REMARK  Name = ZINC61775132
REMARK  10 active torsions:
REMARK  status: ('A' for Active; 'I' for Inactive)
REMARK    1  A    between atoms: C_1  and  C_2
REMARK    2  A    between atoms: C_2  and  C_3
REMARK    3  A    between atoms: C_2  and  N_4
REMARK    4  A    between atoms: C_5  and  C_7
REMARK    5  A    between atoms: C_11  and  N_13
REMARK    6  A    between atoms: C_20  and  C_21
REMARK    7  A    between atoms: C_21  and  C_22
REMARK    8  A    between atoms: C_22  and  C_23
REMARK    9  A    between atoms: C_22  and  C_24
REMARK   10  A    between atoms: C_22  and  C_25
REMARK                            x       y       z     vdW  Elec       q    Type
REMARK                         _______ _______ _______ _____ _____    ______ ____
ROOT
ATOM      1  C   UNL     1      -3.219  -1.307  -1.885  0.00  0.00    +0.039 A 
ATOM      2  C   UNL     1      -4.006  -0.233  -2.303  0.00  0.00    +0.014 A 
ATOM      3  C   UNL     1      -5.131  -0.458  -3.068  0.00  0.00    +0.022 A 
ATOM      4  C   UNL     1      -5.483  -1.748  -3.425  0.00  0.00    +0.062 A 
ATOM      5  C   UNL     1      -4.705  -2.825  -3.014  0.00  0.00    +0.054 A 
ATOM      6  C   UNL     1      -3.570  -2.607  -2.250  0.00  0.00    +0.038 A 
ATOM      7 CL   UNL     1      -6.901  -2.023  -4.388  0.00  0.00    -0.082 Cl
ENDROOT
BRANCH   5   8
ATOM      8  N   UNL     1      -5.065  -4.128  -3.377  0.00  0.00    -0.268 N 
ATOM      9  C   UNL     1      -4.121  -5.085  -3.481  0.00  0.00    +0.307 C 
ATOM     10  O   UNL     1      -2.970  -4.837  -3.178  0.00  0.00    -0.252 OA
ATOM     11  N   UNL     1      -4.453  -6.315  -3.920  0.00  0.00    -0.282 N 
ATOM     12  C   UNL     1      -5.780  -6.720  -4.419  0.00  0.00    +0.110 C 
ATOM     13  C   UNL     1      -5.834  -8.253  -4.202  0.00  0.00    +0.021 C 
ATOM     14  C   UNL     1      -4.373  -8.665  -4.522  0.00  0.00    +0.024 C 
ATOM     15  C   UNL     1      -3.551  -7.474  -3.986  0.00  0.00    +0.078 C 
ATOM     16  H   UNL     1      -5.995  -4.343  -3.555  0.00  0.00    +0.156 HD
BRANCH  15  17
ATOM     17  C   UNL     1      -2.387  -7.173  -4.932  0.00  0.00    +0.028 C 
BRANCH  17  18
ATOM     18  C   UNL     1      -1.358  -8.302  -4.849  0.00  0.00    -0.036 C 
ATOM     19  C   UNL     1      -1.964  -9.588  -5.417  0.00  0.00    +0.010 C 
ATOM     20  C   UNL     1      -0.117  -7.922  -5.661  0.00  0.00    +0.010 C 
ATOM     21  C   UNL     1      -0.963  -8.526  -3.388  0.00  0.00    +0.010 C 
ENDBRANCH  17  18
ENDBRANCH  15  17
ENDBRANCH   5   8
BRANCH   1  23
ATOM     22  N   UNL     1      -1.675   0.188  -0.713  0.00  0.00    -0.309 N 
ATOM     23  C   UNL     1      -2.013  -1.068  -1.064  0.00  0.00    +0.244 C 
ATOM     24  O   UNL     1      -1.326  -2.005  -0.706  0.00  0.00    -0.270 OA
ATOM     25  H   UNL     1      -2.223   0.936  -0.999  0.00  0.00    +0.149 HD
BRANCH  22  27
ATOM     26  C   UNL     1       0.034   1.845  -0.149  0.00  0.00    +0.027 C 
ATOM     27  C   UNL     1      -0.480   0.425   0.100  0.00  0.00    +0.067 C 
ATOM     28  C   UNL     1      -0.830   0.263   1.581  0.00  0.00    +0.027 C 
ENDBRANCH  22  27
ENDBRANCH   1  23
TORSDOF 5
