REMARK  Name = ZINC17029292
REMARK  4 active torsions:
REMARK  status: ('A' for Active; 'I' for Inactive)
REMARK    1  A    between atoms: C_1  and  C_2
REMARK    2  A    between atoms: C_2  and  C_4
REMARK    3  A    between atoms: C_2  and  N_10
REMARK    4  A    between atoms: C_13  and  C_20
REMARK                            x       y       z     vdW  Elec       q    Type
REMARK                         _______ _______ _______ _____ _____    ______ ____
ROOT
ATOM      1  N   UNL     1       0.647  -0.432  -1.242  0.00  0.00    -0.253 N 
ATOM      2  C   UNL     1      -0.070  -1.087  -2.176  0.00  0.00    +0.263 A 
ATOM      3  O   UNL     1      -1.251  -1.324  -1.988  0.00  0.00    -0.267 OA
ATOM      4  C   UNL     1       0.553  -1.495  -3.369  0.00  0.00    +0.073 A 
ATOM      5  C   UNL     1       1.874  -1.217  -3.554  0.00  0.00    +0.260 A 
ATOM      6  N   UNL     1       2.567  -0.548  -2.578  0.00  0.00    -0.275 N 
ATOM      7  H   UNL     1       3.508  -0.347  -2.705  0.00  0.00    +0.173 HD
ATOM      8  C   UNL     1       1.949  -0.162  -1.446  0.00  0.00    +0.333 A 
ATOM      9  O   UNL     1       2.578   0.434  -0.594  0.00  0.00    -0.246 OA
ATOM     10  O   UNL     1       2.497  -1.598  -4.690  0.00  0.00    -0.267 OA
ENDROOT
BRANCH   4  11
ATOM     11  C   UNL     1      -0.229  -2.230  -4.427  0.00  0.00    +0.018 C 
ATOM     12  C   UNL     1      -0.679  -3.567  -3.888  0.00  0.00    +0.011 A 
ATOM     13  C   UNL     1      -1.919  -4.066  -4.099  0.00  0.00    -0.022 A 
ATOM     14  C   UNL     1      -1.982  -5.349  -3.437  0.00  0.00    +0.003 A 
ATOM     15  C   UNL     1      -2.994  -6.306  -3.312  0.00  0.00    +0.010 A 
ATOM     16  C   UNL     1      -2.695  -7.436  -2.592  0.00  0.00    +0.001 A 
ATOM     17  C   UNL     1      -1.452  -7.631  -2.011  0.00  0.00    +0.002 A 
ATOM     18  C   UNL     1      -0.433  -6.702  -2.119  0.00  0.00    +0.026 A 
ATOM     19  C   UNL     1      -0.708  -5.544  -2.844  0.00  0.00    +0.047 A 
ATOM     20  N   UNL     1       0.052  -4.448  -3.139  0.00  0.00    -0.359 N 
ATOM     21  H   UNL     1       0.971  -4.315  -2.859  0.00  0.00    +0.166 HD
ATOM     22  C   UNL     1      -2.975  -3.343  -4.897  0.00  0.00    +0.018 C 
ATOM     23  C   UNL     1      -2.282  -2.227  -5.692  0.00  0.00    -0.076 C 
ATOM     24  N   UNL     1      -1.418  -1.445  -4.797  0.00  0.00    +0.388 N 
ATOM     25  H   UNL     1      -1.933  -1.206  -3.963  0.00  0.00    -0.084 HD
ATOM     26  H   UNL     1      -1.128  -0.599  -5.263  0.00  0.00    -0.084 HD
ENDBRANCH   4  11
BRANCH   1  28
ATOM     27  C   UNL     1      -0.479  -1.233   0.776  0.00  0.00    +0.036 C 
ATOM     28  C   UNL     1       0.002  -0.004   0.002  0.00  0.00    +0.122 C 
BRANCH  28  29
ATOM     29  C   UNL     1      -1.176   0.879  -0.320  0.00  0.00    -0.025 A 
ATOM     30  C   UNL     1      -2.341   0.773   0.416  0.00  0.00    +0.005 A 
ATOM     31  C   UNL     1      -3.422   1.583   0.120  0.00  0.00    +0.000 A 
ATOM     32  C   UNL     1      -3.337   2.499  -0.911  0.00  0.00    +0.000 A 
ATOM     33  C   UNL     1      -2.171   2.606  -1.647  0.00  0.00    +0.000 A 
ATOM     34  C   UNL     1      -1.089   1.799  -1.349  0.00  0.00    +0.005 A 
ENDBRANCH  28  29
ENDBRANCH   1  28
TORSDOF 3
