REMARK  Name = ZINC34377717
REMARK  6 active torsions:
REMARK  status: ('A' for Active; 'I' for Inactive)
REMARK    1  A    between atoms: C_1  and  C_2
REMARK    2  A    between atoms: C_2  and  C_4
REMARK    3  A    between atoms: C_2  and  N_10
REMARK    4  A    between atoms: C_30  and  C_32
REMARK    5  A    between atoms: C_36  and  O_38
REMARK    6  A    between atoms: O_38  and  C_39
REMARK                            x       y       z     vdW  Elec       q    Type
REMARK                         _______ _______ _______ _____ _____    ______ ____
ROOT
ATOM      1  N   UNL     1      -1.223  -0.781   0.169  0.00  0.00    -0.284 N 
ATOM      2  C   UNL     1      -2.168  -0.824  -0.935  0.00  0.00    +0.204 C 
ATOM      3  C   UNL     1      -3.332  -1.715  -0.643  0.00  0.00    +0.234 C 
ATOM      4  O   UNL     1      -4.174  -1.845  -1.506  0.00  0.00    -0.274 OA
ATOM      5  N   UNL     1      -3.507  -2.376   0.503  0.00  0.00    -0.276 N 
ATOM      6  C   UNL     1      -2.610  -2.239   1.649  0.00  0.00    +0.167 C 
ATOM      7  C   UNL     1      -1.406  -1.414   1.326  0.00  0.00    +0.237 C 
ATOM      8  O   UNL     1      -0.544  -1.311   2.172  0.00  0.00    -0.274 OA
ATOM      9  C   UNL     1      -3.378  -1.605   2.817  0.00  0.00    +0.069 C 
ATOM     10  C   UNL     1      -4.714  -2.289   2.948  0.00  0.00    -0.015 A 
ATOM     11  C   UNL     1      -5.617  -2.289   4.081  0.00  0.00    +0.003 A 
ATOM     12  C   UNL     1      -5.551  -1.696   5.346  0.00  0.00    +0.010 A 
ATOM     13  C   UNL     1      -6.612  -1.914   6.189  0.00  0.00    +0.001 A 
ATOM     14  C   UNL     1      -7.702  -2.683   5.817  0.00  0.00    +0.002 A 
ATOM     15  C   UNL     1      -7.794  -3.280   4.572  0.00  0.00    +0.026 A 
ATOM     16  C   UNL     1      -6.732  -3.076   3.694  0.00  0.00    +0.047 A 
ATOM     17  N   UNL     1      -6.501  -3.508   2.420  0.00  0.00    -0.356 N 
ATOM     18  H   UNL     1      -7.103  -4.066   1.902  0.00  0.00    +0.166 HD
ATOM     19  C   UNL     1      -5.292  -3.036   1.982  0.00  0.00    +0.046 A 
ATOM     20  C   UNL     1      -4.660  -3.292   0.633  0.00  0.00    +0.154 C 
ENDROOT
BRANCH  20  21
ATOM     21  C   UNL     1      -4.189  -4.722   0.552  0.00  0.00    -0.018 A 
ATOM     22  C   UNL     1      -3.367  -5.236   1.537  0.00  0.00    +0.006 A 
ATOM     23  C   UNL     1      -2.934  -6.547   1.465  0.00  0.00    +0.004 A 
ATOM     24  C   UNL     1      -3.321  -7.346   0.407  0.00  0.00    +0.045 A 
ATOM     25  C   UNL     1      -4.146  -6.833  -0.582  0.00  0.00    +0.120 A 
ATOM     26  C   UNL     1      -4.585  -5.519  -0.505  0.00  0.00    +0.051 A 
BRANCH  25  27
ATOM     27  O   UNL     1      -4.529  -7.618  -1.624  0.00  0.00    -0.495 OA
ATOM     28  C   UNL     1      -4.045  -8.962  -1.636  0.00  0.00    +0.277 C 
ENDBRANCH  25  27
ENDBRANCH  20  21
BRANCH   1  30
ATOM     29  C   UNL     1      -0.356   1.444  -0.363  0.00  0.00    +0.033 C 
ATOM     30  C   UNL     1       0.004   0.001  -0.004  0.00  0.00    +0.104 C 
BRANCH  30  31
ATOM     31  C   UNL     1       0.831  -0.601  -1.110  0.00  0.00    -0.027 A 
ATOM     32  C   UNL     1       0.394  -0.525  -2.420  0.00  0.00    +0.005 A 
ATOM     33  C   UNL     1       1.153  -1.077  -3.435  0.00  0.00    +0.000 A 
ATOM     34  C   UNL     1       2.349  -1.705  -3.141  0.00  0.00    +0.000 A 
ATOM     35  C   UNL     1       2.786  -1.780  -1.832  0.00  0.00    +0.000 A 
ATOM     36  C   UNL     1       2.030  -1.224  -0.817  0.00  0.00    +0.005 A 
ENDBRANCH  30  31
ENDBRANCH   1  30
TORSDOF 4
