REMARK  Name = ZINC39793587
REMARK  9 active torsions:
REMARK  status: ('A' for Active; 'I' for Inactive)
REMARK    1  A    between atoms: C_1  and  C_2
REMARK    2  A    between atoms: C_2  and  C_3
REMARK    3  A    between atoms: C_9  and  C_11
REMARK    4  A    between atoms: C_11  and  N_12
REMARK    5  A    between atoms: C_16  and  C_17
REMARK    6  A    between atoms: C_20  and  O_25
REMARK    7  A    between atoms: C_21  and  O_23
REMARK    8  A    between atoms: O_23  and  C_24
REMARK    9  A    between atoms: O_25  and  C_26
REMARK                            x       y       z     vdW  Elec       q    Type
REMARK                         _______ _______ _______ _____ _____    ______ ____
ROOT
ATOM      1  N   UNL     1      -6.630  -2.765  -2.236  0.00  0.00    -0.246 N 
ATOM      2  C   UNL     1      -7.556  -1.851  -2.476  0.00  0.00    +0.259 C 
ATOM      3  O   UNL     1      -7.588  -0.799  -1.865  0.00  0.00    -0.269 OA
ATOM      4  C   UNL     1      -8.546  -2.171  -3.523  0.00  0.00    +0.077 C 
ATOM      5  C   UNL     1      -9.593  -1.436  -3.978  0.00  0.00    +0.028 C 
ATOM      6  S   UNL     1      -7.987  -3.792  -4.029  0.00  0.00    -0.061 S 
ATOM      7  C   UNL     1      -6.594  -3.927  -2.920  0.00  0.00    +0.121 C 
ATOM      8  S   UNL     1      -5.484  -5.220  -2.760  0.00  0.00    -0.027 S 
ENDROOT
BRANCH   5   9
ATOM      9  C   UNL     1     -10.543  -2.022  -4.932  0.00  0.00    -0.020 A 
ATOM     10  C   UNL     1     -10.471  -3.385  -5.246  0.00  0.00    +0.012 A 
ATOM     11  C   UNL     1     -11.364  -3.932  -6.141  0.00  0.00    +0.050 A 
ATOM     12  C   UNL     1     -12.335  -3.136  -6.734  0.00  0.00    +0.162 A 
ATOM     13  C   UNL     1     -12.413  -1.779  -6.426  0.00  0.00    +0.162 A 
ATOM     14  C   UNL     1     -11.527  -1.222  -5.525  0.00  0.00    +0.057 A 
BRANCH  13  15
ATOM     15  O   UNL     1     -13.367  -1.004  -7.009  0.00  0.00    -0.491 OA
ATOM     16  C   UNL     1     -13.389   0.379  -6.648  0.00  0.00    +0.277 C 
ENDBRANCH  13  15
BRANCH  12  17
ATOM     17  O   UNL     1     -13.212  -3.682  -7.616  0.00  0.00    -0.485 OA
BRANCH  17  18
ATOM     18  C   UNL     1     -13.087  -5.082  -7.873  0.00  0.00    +0.174 C 
ATOM     19  C   UNL     1     -11.927  -5.321  -8.842  0.00  0.00    +0.044 C 
ATOM     20  C   UNL     1     -11.792  -6.820  -9.118  0.00  0.00    +0.004 C 
ATOM     21  C   UNL     1     -13.090  -7.343  -9.737  0.00  0.00    +0.000 C 
ATOM     22  C   UNL     1     -14.250  -7.104  -8.769  0.00  0.00    +0.004 C 
ATOM     23  C   UNL     1     -14.384  -5.605  -8.493  0.00  0.00    +0.044 C 
ENDBRANCH  17  18
ENDBRANCH  12  17
ENDBRANCH   5   9
BRANCH   1  24
ATOM     24  C   UNL     1      -5.618  -2.507  -1.209  0.00  0.00    +0.211 C 
BRANCH  24  31
ATOM     25  C   UNL     1      -0.087   0.341  -2.401  0.00  0.00    +0.103 A 
ATOM     26  N   UNL     1      -1.030   0.086  -3.285  0.00  0.00    -0.145 NA
ATOM     27  N   UNL     1      -2.088  -0.491  -2.907  0.00  0.00    -0.126 NA
ATOM     28  C   UNL     1      -2.277  -0.845  -1.651  0.00  0.00    +0.188 A 
ATOM     29  S   UNL     1      -0.843  -0.333  -0.928  0.00  0.00    -0.035 S 
ATOM     30  N   UNL     1      -3.372  -1.481  -1.074  0.00  0.00    -0.262 N 
ATOM     31  C   UNL     1      -4.433  -1.818  -1.834  0.00  0.00    +0.237 C 
ATOM     32  O   UNL     1      -4.433  -1.568  -3.021  0.00  0.00    -0.274 OA
ATOM     33  H   UNL     1      -3.372  -1.681  -0.125  0.00  0.00    +0.157 HD
BRANCH  25  35
ATOM     34  C   UNL     1       1.107   2.515  -2.363  0.00  0.00    +0.011 C 
ATOM     35  C   UNL     1       1.253   1.007  -2.581  0.00  0.00    +0.061 C 
ENDBRANCH  25  35
ENDBRANCH  24  31
ENDBRANCH   1  24
TORSDOF 7
