REMARK  Name = ZINC32910600
REMARK  7 active torsions:
REMARK  status: ('A' for Active; 'I' for Inactive)
REMARK    1  A    between atoms: C_1  and  C_2
REMARK    2  A    between atoms: C_10  and  C_12
REMARK    3  A    between atoms: C_12  and  O_13
REMARK    4  A    between atoms: O_13  and  C_14
REMARK    5  A    between atoms: C_14  and  C_16
REMARK    6  A    between atoms: N_22  and  S_23
REMARK    7  A    between atoms: S_23  and  C_26
REMARK                            x       y       z     vdW  Elec       q    Type
REMARK                         _______ _______ _______ _____ _____    ______ ____
ROOT
ATOM      1  C   UNL     1      -1.800   3.414  -1.792  0.00  0.00    +0.327 C 
ATOM      2  O   UNL     1      -2.970   3.508  -1.508  0.00  0.00    -0.249 OA
ENDROOT
BRANCH   1   3
ATOM      3  C   UNL     1      -0.828   2.830  -0.799  0.00  0.00    +0.188 C 
ATOM      4  C   UNL     1      -0.966   3.553   0.544  0.00  0.00    +0.032 C 
ATOM      5  C   UNL     1      -0.075   2.865   1.582  0.00  0.00    +0.003 C 
ATOM      6  C   UNL     1      -0.526   1.414   1.766  0.00  0.00    +0.017 C 
ATOM      7  C   UNL     1      -0.386   0.668   0.435  0.00  0.00    +0.110 C 
ATOM      8  N   UNL     1      -1.122   1.404  -0.602  0.00  0.00    -0.163 NA
BRANCH   8   9
ATOM      9  S   UNL     1      -2.262   0.641  -1.530  0.00  0.00    +0.062 S 
ATOM     10  O   UNL     1      -2.395   1.407  -2.720  0.00  0.00    -0.153 OA
ATOM     11  O   UNL     1      -1.917  -0.737  -1.545  0.00  0.00    -0.153 OA
BRANCH   9  12
ATOM     12  C   UNL     1      -3.798   0.767  -0.676  0.00  0.00    +0.106 A 
ATOM     13  C   UNL     1      -4.027   0.001   0.451  0.00  0.00    +0.028 A 
ATOM     14  C   UNL     1      -5.231   0.103   1.123  0.00  0.00    +0.002 A 
ATOM     15  C   UNL     1      -6.209   0.964   0.663  0.00  0.00    +0.000 A 
ATOM     16  C   UNL     1      -5.982   1.727  -0.468  0.00  0.00    +0.002 A 
ATOM     17  C   UNL     1      -4.777   1.628  -1.137  0.00  0.00    +0.028 A 
ENDBRANCH   9  12
ENDBRANCH   8   9
ENDBRANCH   1   3
BRANCH   1  18
ATOM     18  O   UNL     1      -1.366   3.829  -2.993  0.00  0.00    -0.457 OA
BRANCH  18  19
ATOM     19  C   UNL     1      -2.358   4.380  -3.898  0.00  0.00    +0.287 C 
BRANCH  19  29
ATOM     20  C   UNL     1       0.024   5.460  -9.973  0.00  0.00    +0.064 C 
ATOM     21  C   UNL     1       0.247   6.052  -8.605  0.00  0.00    +0.033 A 
ATOM     22  C   UNL     1       1.121   7.048  -8.457  0.00  0.00    +0.070 A 
ATOM     23  S   UNL     1       1.012   7.372  -6.704  0.00  0.00    -0.057 S 
ATOM     24  C   UNL     1      -0.206   6.134  -6.315  0.00  0.00    +0.181 A 
ATOM     25  N   UNL     1      -0.452   5.556  -7.532  0.00  0.00    -0.259 N 
ATOM     26  C   UNL     1      -1.370   4.544  -7.551  0.00  0.00    +0.259 A 
ATOM     27  O   UNL     1      -1.639   3.983  -8.601  0.00  0.00    -0.267 OA
ATOM     28  C   UNL     1      -1.994   4.148  -6.368  0.00  0.00    +0.097 A 
ATOM     29  C   UNL     1      -1.690   4.789  -5.186  0.00  0.00    +0.087 A 
ATOM     30  N   UNL     1      -0.792   5.771  -5.201  0.00  0.00    -0.224 NA
ENDBRANCH  19  29
ENDBRANCH  18  19
ENDBRANCH   1  18
TORSDOF 6
