REMARK  Name = ZINC06193804
REMARK  10 active torsions:
REMARK  status: ('A' for Active; 'I' for Inactive)
REMARK    1  A    between atoms: C_1  and  C_2
REMARK    2  A    between atoms: C_2  and  N_63
REMARK    3  A    between atoms: C_3  and  C_4
REMARK    4  A    between atoms: C_3  and  N_63
REMARK    5  A    between atoms: C_10  and  C_12
REMARK    6  A    between atoms: C_10  and  C_25
REMARK    7  A    between atoms: C_10  and  N_63
REMARK    8  A    between atoms: C_18  and  C_24
REMARK    9  A    between atoms: N_29  and  C_30
REMARK   10  A    between atoms: C_30  and  C_31
REMARK                            x       y       z     vdW  Elec       q    Type
REMARK                         _______ _______ _______ _____ _____    ______ ____
ROOT
ATOM      1  C   UNL     1       2.222  -2.000  -1.259  0.00  0.00    +0.039 C 
ENDROOT
BRANCH   1   2
ATOM      2  C   UNL     1       0.840  -1.599  -1.706  0.00  0.00    +0.011 A 
ATOM      3  C   UNL     1       0.682  -0.553  -2.555  0.00  0.00    +0.017 A 
ATOM      4  C   UNL     1      -0.674  -0.192  -2.974  0.00  0.00    -0.001 A 
ATOM      5  C   UNL     1      -0.900   0.875  -3.850  0.00  0.00    +0.010 A 
ATOM      6  C   UNL     1      -2.178   1.190  -4.217  0.00  0.00    +0.001 A 
ATOM      7  C   UNL     1      -3.254   0.461  -3.728  0.00  0.00    +0.005 A 
ATOM      8  C   UNL     1      -3.054  -0.593  -2.864  0.00  0.00    -0.026 A 
ATOM      9  C   UNL     1      -1.762  -0.932  -2.475  0.00  0.00    +0.052 A 
ATOM     10  N   UNL     1      -1.534  -1.982  -1.611  0.00  0.00    -0.322 N 
ATOM     11  H   UNL     1      -2.308  -2.507  -1.258  0.00  0.00    +0.169 HD
ATOM     12  C   UNL     1      -0.285  -2.309  -1.236  0.00  0.00    +0.251 A 
ATOM     13  O   UNL     1      -0.120  -3.244  -0.470  0.00  0.00    -0.268 OA
ATOM     14  C   UNL     1      -4.231  -1.375  -2.341  0.00  0.00    +0.046 C 
ENDBRANCH   1   2
BRANCH   1  15
ATOM     15  C   UNL     1       3.151  -0.819  -1.376  0.00  0.00    +0.143 A 
ATOM     16  N   UNL     1       3.814  -0.447  -2.444  0.00  0.00    -0.115 NA
ATOM     17  N   UNL     1       4.499   0.602  -2.142  0.00  0.00    -0.023 NA
ATOM     18  N   UNL     1       4.286   0.912  -0.911  0.00  0.00    -0.044 NA
ATOM     19  N   UNL     1       3.457   0.062  -0.405  0.00  0.00    -0.226 N 
BRANCH  19  20
ATOM     20  C   UNL     1       2.951   0.053   0.970  0.00  0.00    +0.182 C 
BRANCH  20  21
ATOM     21  C   UNL     1       1.730   0.932   1.061  0.00  0.00    -0.026 A 
ATOM     22  C   UNL     1       0.473   0.393   0.861  0.00  0.00    +0.005 A 
ATOM     23  C   UNL     1      -0.646   1.200   0.940  0.00  0.00    +0.000 A 
ATOM     24  C   UNL     1      -0.509   2.546   1.227  0.00  0.00    +0.000 A 
ATOM     25  C   UNL     1       0.748   3.085   1.428  0.00  0.00    +0.000 A 
ATOM     26  C   UNL     1       1.868   2.278   1.345  0.00  0.00    +0.005 A 
ENDBRANCH  20  21
ENDBRANCH  19  20
ENDBRANCH   1  15
BRANCH   1  27
ATOM     27  N   UNL     1       2.742  -3.092  -2.109  0.00  0.00    +0.392 N 
ATOM     28  H   UNL     1       3.765  -3.018  -2.159  0.00  0.00    -0.080 HD
BRANCH  27  30
ATOM     29  C   UNL     1       2.973  -1.913  -4.236  0.00  0.00    -0.017 C 
ATOM     30  C   UNL     1       2.185  -2.979  -3.473  0.00  0.00    -0.080 C 
ENDBRANCH  27  30
BRANCH  27  31
ATOM     31  C   UNL     1       2.383  -4.401  -1.524  0.00  0.00    -0.042 C 
BRANCH  31  32
ATOM     32  C   UNL     1       3.140  -4.581  -0.233  0.00  0.00    -0.064 A 
ATOM     33  C   UNL     1       4.392  -5.166  -0.242  0.00  0.00    +0.002 A 
ATOM     34  C   UNL     1       5.089  -5.326   0.941  0.00  0.00    +0.000 A 
ATOM     35  C   UNL     1       4.529  -4.911   2.135  0.00  0.00    +0.000 A 
ATOM     36  C   UNL     1       3.274  -4.331   2.144  0.00  0.00    +0.000 A 
ATOM     37  C   UNL     1       2.580  -4.166   0.960  0.00  0.00    +0.002 A 
ENDBRANCH  31  32
ENDBRANCH  27  31
ENDBRANCH   1  27
TORSDOF 8
