REMARK  Name = ZINC44493886
REMARK  9 active torsions:
REMARK  status: ('A' for Active; 'I' for Inactive)
REMARK    1  A    between atoms: C_1  and  C_2
REMARK    2  A    between atoms: C_2  and  C_4
REMARK    3  A    between atoms: C_2  and  N_23
REMARK    4  A    between atoms: C_4  and  C_5
REMARK    5  A    between atoms: C_8  and  C_11
REMARK    6  A    between atoms: C_14  and  S_17
REMARK    7  A    between atoms: S_17  and  N_20
REMARK    8  A    between atoms: N_20  and  C_21
REMARK    9  A    between atoms: N_20  and  C_22
REMARK                            x       y       z     vdW  Elec       q    Type
REMARK                         _______ _______ _______ _____ _____    ______ ____
ROOT
ATOM      1  C   UNL     1       0.870  -2.011   1.172  0.00  0.00    +0.106 A 
ATOM      2  N   UNL     1       2.026  -2.704   1.260  0.00  0.00    -0.342 N 
ATOM      3  H   UNL     1       2.913  -2.333   1.379  0.00  0.00    +0.167 HD
ATOM      4  C   UNL     1       1.706  -4.039   1.151  0.00  0.00    +0.066 A 
ATOM      5  C   UNL     1       0.355  -4.101   0.999  0.00  0.00    +0.139 A 
ATOM      6  N   UNL     1      -0.119  -2.850   1.022  0.00  0.00    -0.240 NA
ENDROOT
BRANCH   4   7
ATOM      7  C   UNL     1       2.646  -5.180   1.190  0.00  0.00    -0.000 A 
ATOM      8  C   UNL     1       4.013  -4.957   1.358  0.00  0.00    +0.012 A 
ATOM      9  C   UNL     1       4.884  -6.026   1.393  0.00  0.00    +0.029 A 
ATOM     10  C   UNL     1       4.405  -7.317   1.263  0.00  0.00    +0.105 A 
ATOM     11  C   UNL     1       3.051  -7.546   1.096  0.00  0.00    +0.029 A 
ATOM     12  C   UNL     1       2.168  -6.486   1.065  0.00  0.00    +0.012 A 
BRANCH  10  13
ATOM     13  S   UNL     1       5.525  -8.677   1.308  0.00  0.00    +0.060 S 
ATOM     14  O   UNL     1       4.893  -9.746   0.618  0.00  0.00    -0.153 OA
ATOM     15  O   UNL     1       6.796  -8.169   0.926  0.00  0.00    -0.153 OA
BRANCH  13  16
ATOM     16  N   UNL     1       5.659  -9.148   2.890  0.00  0.00    -0.183 NA
ATOM     17  C   UNL     1       4.749 -10.160   3.432  0.00  0.00    +0.131 C 
ATOM     18  C   UNL     1       6.687  -8.553   3.747  0.00  0.00    +0.131 C 
ENDBRANCH  13  16
ENDBRANCH  10  13
ENDBRANCH   4   7
BRANCH   1  19
ATOM     19  C   UNL     1       0.742  -0.511   1.242  0.00  0.00    +0.058 C 
BRANCH  19  21
ATOM     20  C   UNL     1      -0.019   1.526   0.010  0.00  0.00    -0.014 C 
ATOM     21  C   UNL     1       0.002  -0.004   0.002  0.00  0.00    -0.071 C 
BRANCH  21  22
ATOM     22  N   UNL     1      -1.376  -0.512   0.012  0.00  0.00    +0.380 N 
ATOM     23  H   UNL     1      -1.864  -0.178  -0.805  0.00  0.00    -0.090 HD
ATOM     24  H   UNL     1      -1.362  -1.521   0.007  0.00  0.00    -0.090 HD
ATOM     25  H   UNL     1      -1.848  -0.187   0.843  0.00  0.00    -0.090 HD
ENDBRANCH  21  22
ENDBRANCH  19  21
ENDBRANCH   1  19
TORSDOF 6
