REMARK  Name = ZINC65074737
REMARK  5 active torsions:
REMARK  status: ('A' for Active; 'I' for Inactive)
REMARK    1  A    between atoms: C_1  and  C_2
REMARK    2  A    between atoms: C_7  and  S_8
REMARK    3  A    between atoms: S_8  and  N_11
REMARK    4  A    between atoms: N_22  and  C_23
REMARK    5  A    between atoms: C_23  and  C_24
REMARK                            x       y       z     vdW  Elec       q    Type
REMARK                         _______ _______ _______ _____ _____    ______ ____
ROOT
ATOM      1  N   UNL     1       1.616   1.124   2.614  0.00  0.00    -0.176 NA
ATOM      2  C   UNL     1       2.941   0.576   2.938  0.00  0.00    +0.111 C 
ATOM      3  C   UNL     1       3.884   0.837   1.760  0.00  0.00    +0.047 C 
ATOM      4  C   UNL     1       3.888   2.333   1.435  0.00  0.00    +0.075 C 
ATOM      5  C   UNL     1       2.477   2.768   1.030  0.00  0.00    +0.047 C 
ATOM      6  C   UNL     1       1.518   2.529   2.194  0.00  0.00    +0.111 C 
ATOM      7  C   UNL     1       4.840   2.599   0.304  0.00  0.00    +0.089 C 
ATOM      8  N   UNL     1       5.663   3.579   0.287  0.00  0.00    -0.374 N 
ATOM      9  C   UNL     1       5.786   4.554   1.366  0.00  0.00    +0.129 C 
ATOM     10  C   UNL     1       4.552   4.494   2.270  0.00  0.00    +0.102 C 
ATOM     11  N   UNL     1       4.304   3.087   2.627  0.00  0.00    -0.303 NA
ATOM     12  N   UNL     1       4.827   1.746  -0.767  0.00  0.00    -0.329 N 
ATOM     13  H   UNL     1       3.612   3.016   3.359  0.00  0.00    +0.123 HD
ATOM     14  H   UNL     1       4.214   0.994  -0.781  0.00  0.00    +0.147 HD
ATOM     15  H   UNL     1       6.238   3.679  -0.488  0.00  0.00    +0.161 HD
ENDROOT
BRANCH   1  16
ATOM     16  S   UNL     1       0.263   0.175   2.713  0.00  0.00    +0.061 S 
ATOM     17  O   UNL     1      -0.848   1.059   2.788  0.00  0.00    -0.153 OA
ATOM     18  O   UNL     1       0.525  -0.805   3.708  0.00  0.00    -0.153 OA
BRANCH  16  25
ATOM     19  C   UNL     1      -0.437   1.490   0.080  0.00  0.00    +0.046 C 
ATOM     20  C   UNL     1      -0.207   0.002   0.029  0.00  0.00    -0.024 A 
ATOM     21  C   UNL     1      -0.315  -0.674  -1.172  0.00  0.00    +0.005 A 
ATOM     22  C   UNL     1      -0.104  -2.039  -1.218  0.00  0.00    +0.000 A 
ATOM     23  C   UNL     1       0.215  -2.729  -0.064  0.00  0.00    +0.002 A 
ATOM     24  C   UNL     1       0.324  -2.053   1.137  0.00  0.00    +0.029 A 
ATOM     25  C   UNL     1       0.118  -0.687   1.183  0.00  0.00    +0.108 A 
ENDBRANCH  16  25
ENDBRANCH   1  16
BRANCH  12  26
ATOM     26  C   UNL     1       5.740   1.968  -1.892  0.00  0.00    +0.138 C 
BRANCH  26  27
ATOM     27  C   UNL     1       5.526   0.897  -2.931  0.00  0.00    -0.030 A 
ATOM     28  C   UNL     1       6.249  -0.279  -2.870  0.00  0.00    +0.005 A 
ATOM     29  C   UNL     1       6.054  -1.261  -3.823  0.00  0.00    +0.000 A 
ATOM     30  C   UNL     1       5.134  -1.066  -4.837  0.00  0.00    +0.000 A 
ATOM     31  C   UNL     1       4.410   0.110  -4.898  0.00  0.00    +0.000 A 
ATOM     32  C   UNL     1       4.603   1.090  -3.942  0.00  0.00    +0.005 A 
ENDBRANCH  26  27
ENDBRANCH  12  26
TORSDOF 4
