REMARK  Name = ZINC48380127
REMARK  6 active torsions:
REMARK  status: ('A' for Active; 'I' for Inactive)
REMARK    1  A    between atoms: C_4  and  C_8
REMARK    2  A    between atoms: C_8  and  S_9
REMARK    3  A    between atoms: S_9  and  C_10
REMARK    4  A    between atoms: C_11  and  C_18
REMARK    5  A    between atoms: C_12  and  N_17
REMARK    6  A    between atoms: C_14  and  N_16
REMARK                            x       y       z     vdW  Elec       q    Type
REMARK                         _______ _______ _______ _____ _____    ______ ____
ROOT
ATOM      1  C   UNL     1       5.786  -1.870   1.478  0.00  0.00    +0.118 A 
ATOM      2  C   UNL     1       6.502  -2.277   2.617  0.00  0.00    +0.104 A 
ATOM      3  C   UNL     1       7.724  -2.961   2.443  0.00  0.00    +0.048 A 
ATOM      4  C   UNL     1       8.165  -3.201   1.148  0.00  0.00    +0.067 A 
ATOM      5  C   UNL     1       7.398  -2.766   0.075  0.00  0.00    +0.119 A 
ATOM      6  N   UNL     1       6.249  -2.129   0.265  0.00  0.00    -0.225 NA
ENDROOT
BRANCH   5   7
ATOM      7  N   UNL     1       7.837  -3.005  -1.218  0.00  0.00    -0.343 N 
ATOM      8  H   UNL     1       8.674  -3.473  -1.367  0.00  0.00    +0.144 HD
ATOM      9  H   UNL     1       7.308  -2.705  -1.974  0.00  0.00    +0.144 HD
ENDBRANCH   5   7
BRANCH   3  10
ATOM     10  N   UNL     1       8.466  -3.382   3.537  0.00  0.00    -0.357 N 
ATOM     11  H   UNL     1       8.146  -3.207   4.436  0.00  0.00    +0.142 HD
ATOM     12  H   UNL     1       9.304  -3.851   3.403  0.00  0.00    +0.142 HD
ENDBRANCH   3  10
BRANCH   2  13
ATOM     13  C   UNL     1       6.001  -2.002   3.930  0.00  0.00    +0.104 C 
ATOM     14  N   UNL     1       5.603  -1.785   4.972  0.00  0.00    -0.191 NA
ENDBRANCH   2  13
BRANCH   1  15
ATOM     15  S   UNL     1       4.257  -1.014   1.666  0.00  0.00    -0.100 S 
BRANCH  15  16
ATOM     16  C   UNL     1       3.713  -0.710  -0.038  0.00  0.00    +0.115 C 
BRANCH  16  20
ATOM     17  C   UNL     1      -0.017   1.378   0.010  0.00  0.00    +0.004 A 
ATOM     18  C   UNL     1       1.170   2.086   0.002  0.00  0.00    +0.039 A 
ATOM     19  C   UNL     1       2.379   1.411  -0.013  0.00  0.00    +0.129 A 
ATOM     20  C   UNL     1       2.398   0.026  -0.021  0.00  0.00    +0.016 A 
ATOM     21  C   UNL     1       1.209  -0.680  -0.013  0.00  0.00    +0.048 A 
ATOM     22  C   UNL     1       0.002  -0.004   0.002  0.00  0.00    +0.020 A 
ATOM     23 CL   UNL     1       1.232  -2.416  -0.022  0.00  0.00    -0.083 Cl
ATOM     24  F   UNL     1       3.539   2.103  -0.021  0.00  0.00    -0.205 F 
ENDBRANCH  16  20
ENDBRANCH  15  16
ENDBRANCH   1  15
TORSDOF 6
