REMARK  Name = ZINC24975110
REMARK  10 active torsions:
REMARK  status: ('A' for Active; 'I' for Inactive)
REMARK    1  A    between atoms: C_1  and  N_2
REMARK    2  A    between atoms: N_2  and  C_3
REMARK    3  A    between atoms: N_2  and  C_4
REMARK    4  A    between atoms: C_4  and  C_5
REMARK    5  A    between atoms: C_4  and  C_27
REMARK    6  A    between atoms: C_5  and  N_6
REMARK    7  A    between atoms: C_7  and  C_9
REMARK    8  A    between atoms: C_9  and  S_10
REMARK    9  A    between atoms: S_10  and  C_11
REMARK   10  A    between atoms: C_11  and  C_12
REMARK                            x       y       z     vdW  Elec       q    Type
REMARK                         _______ _______ _______ _____ _____    ______ ____
ROOT
ATOM      1  C   UNL     1      -1.787   3.390  -2.728  0.00  0.00    +0.165 C 
ENDROOT
BRANCH   1   3
ATOM      2  N   UNL     1      -1.702   1.302  -1.405  0.00  0.00    -0.316 N 
ATOM      3  C   UNL     1      -2.076   1.923  -2.541  0.00  0.00    +0.223 C 
ATOM      4  O   UNL     1      -2.645   1.302  -3.413  0.00  0.00    -0.275 OA
ATOM      5  H   UNL     1      -1.246   1.799  -0.708  0.00  0.00    +0.149 HD
BRANCH   2   6
ATOM      6  C   UNL     1      -1.983  -0.125  -1.224  0.00  0.00    +0.093 C 
BRANCH   6   7
ATOM      7  C   UNL     1      -1.353  -0.606   0.085  0.00  0.00    -0.020 C 
BRANCH   7   8
ATOM      8  C   UNL     1       0.147  -0.502  -0.012  0.00  0.00    -0.041 A 
ATOM      9  C   UNL     1       0.805   0.566   0.570  0.00  0.00    +0.003 A 
ATOM     10  C   UNL     1       2.181   0.661   0.481  0.00  0.00    +0.000 A 
ATOM     11  C   UNL     1       2.901  -0.311  -0.189  0.00  0.00    +0.001 A 
ATOM     12  C   UNL     1       2.244  -1.379  -0.770  0.00  0.00    +0.020 A 
ATOM     13  C   UNL     1       0.868  -1.478  -0.677  0.00  0.00    +0.043 A 
ATOM     14 CL   UNL     1       0.043  -2.823  -1.402  0.00  0.00    -0.083 Cl
ENDBRANCH   7   8
BRANCH   7  16
ATOM     15  C   UNL     1      -3.300   0.231   1.207  0.00  0.00    -0.096 C 
ATOM     16  N   UNL     1      -1.831   0.228   1.195  0.00  0.00    +0.382 N 
ATOM     17  C   UNL     1      -1.332  -0.314   2.465  0.00  0.00    -0.096 C 
ATOM     18  H   UNL     1      -1.494   1.172   1.076  0.00  0.00    -0.082 HD
ENDBRANCH   7  16
ENDBRANCH   6   7
ENDBRANCH   2   6
ENDBRANCH   1   3
BRANCH   1  19
ATOM     19  S   UNL     1      -2.408   3.929  -4.344  0.00  0.00    -0.144 S 
BRANCH  19  20
ATOM     20  C   UNL     1      -1.987   5.692  -4.412  0.00  0.00    +0.143 C 
BRANCH  20  21
ATOM     21  C   UNL     1      -2.455   6.270  -5.723  0.00  0.00    +0.121 A 
ATOM     22  N   UNL     1      -2.236   7.584  -5.988  0.00  0.00    -0.310 N 
ATOM     23  H   UNL     1      -1.781   8.132  -5.329  0.00  0.00    +0.170 HD
ATOM     24  C   UNL     1      -2.636   8.140  -7.146  0.00  0.00    +0.260 A 
ATOM     25  O   UNL     1      -2.432   9.321  -7.369  0.00  0.00    -0.267 OA
ATOM     26  C   UNL     1      -3.308   7.322  -8.113  0.00  0.00    +0.075 A 
ATOM     27  C   UNL     1      -3.827   7.706  -9.424  0.00  0.00    -0.023 A 
ATOM     28  C   UNL     1      -4.424   6.739 -10.153  0.00  0.00    -0.004 A 
ATOM     29  S   UNL     1      -4.330   5.282  -9.149  0.00  0.00    -0.073 S 
ATOM     30  C   UNL     1      -3.488   5.978  -7.749  0.00  0.00    +0.116 A 
ATOM     31  N   UNL     1      -3.059   5.497  -6.586  0.00  0.00    -0.226 NA
ATOM     32  C   UNL     1      -5.034   6.875 -11.515  0.00  0.00    +0.043 C 
ATOM     33  C   UNL     1      -5.215   8.369 -11.818  0.00  0.00    +0.005 C 
ATOM     34  C   UNL     1      -3.912   9.100 -11.479  0.00  0.00    +0.005 C 
ATOM     35  C   UNL     1      -3.711   9.129  -9.964  0.00  0.00    +0.037 C 
ENDBRANCH  20  21
ENDBRANCH  19  20
ENDBRANCH   1  19
TORSDOF 8
