REMARK  Name = ZINC24852993
REMARK  13 active torsions:
REMARK  status: ('A' for Active; 'I' for Inactive)
REMARK    1  A    between atoms: C_1  and  C_2
REMARK    2  A    between atoms: C_2  and  N_3
REMARK    3  A    between atoms: N_3  and  C_4
REMARK    4  A    between atoms: N_3  and  C_6
REMARK    5  A    between atoms: C_4  and  C_5
REMARK    6  A    between atoms: C_6  and  C_8
REMARK    7  A    between atoms: C_6  and  C_28
REMARK    8  A    between atoms: C_8  and  N_9
REMARK    9  A    between atoms: C_10  and  C_12
REMARK   10  A    between atoms: C_12  and  S_13
REMARK   11  A    between atoms: S_13  and  C_14
REMARK   12  A    between atoms: C_17  and  C_25
REMARK   13  A    between atoms: N_18  and  C_19
REMARK                            x       y       z     vdW  Elec       q    Type
REMARK                         _______ _______ _______ _____ _____    ______ ____
ROOT
ATOM      1  N   UNL     1      -2.664   4.297   1.754  0.00  0.00    -0.316 N 
ATOM      2  C   UNL     1      -2.742   4.859   2.976  0.00  0.00    +0.223 C 
ATOM      3  O   UNL     1      -2.082   4.414   3.891  0.00  0.00    -0.275 OA
ATOM      4  H   UNL     1      -3.262   4.700   0.924  0.00  0.00    +0.149 HD
ENDROOT
BRANCH   1   5
ATOM      5  C   UNL     1      -1.783   3.148   1.530  0.00  0.00    +0.096 C 
BRANCH   5   6
ATOM      6  C   UNL     1      -1.785   2.785   0.044  0.00  0.00    +0.016 C 
BRANCH   6   7
ATOM      7  C   UNL     1      -0.773   1.697  -0.209  0.00  0.00    +0.093 A 
ATOM      8  C   UNL     1      -1.043   0.466  -0.680  0.00  0.00    +0.043 A 
ATOM      9  C   UNL     1       0.191  -0.218  -0.767  0.00  0.00    +0.041 A 
ATOM     10  C   UNL     1       1.141   0.635  -0.344  0.00  0.00    +0.195 A 
ATOM     11  O   UNL     1       0.551   1.794  -0.007  0.00  0.00    -0.469 OA
ENDBRANCH   6   7
BRANCH   6  12
ATOM     12  N   UNL     1      -1.437   3.971  -0.750  0.00  0.00    +0.387 N 
ATOM     13  H   UNL     1      -1.861   4.852  -0.246  0.00  0.00    -0.081 HD
BRANCH  12  15
ATOM     14  C   UNL     1       0.551   4.551   0.558  0.00  0.00    -0.017 C 
ATOM     15  C   UNL     1       0.019   4.149  -0.820  0.00  0.00    -0.081 C 
ENDBRANCH  12  15
BRANCH  12  16
ATOM     16  C   UNL     1      -2.023   3.894  -2.095  0.00  0.00    -0.081 C 
ATOM     17  C   UNL     1      -3.517   4.213  -2.019  0.00  0.00    -0.017 C 
ENDBRANCH  12  16
ENDBRANCH   6  12
ENDBRANCH   5   6
ENDBRANCH   1   5
BRANCH   2  18
ATOM     18  C   UNL     1      -3.648   6.040   3.206  0.00  0.00    +0.173 C 
BRANCH  18  19
ATOM     19  S   UNL     1      -3.532   6.563   4.935  0.00  0.00    -0.076 S 
BRANCH  19  20
ATOM     20  C   UNL     1      -4.659   7.917   4.922  0.00  0.00    +0.197 A 
ATOM     21  N   UNL     1      -5.343   8.354   3.890  0.00  0.00    -0.122 NA
ATOM     22  N   UNL     1      -6.069   9.355   4.238  0.00  0.00    -0.133 NA
ATOM     23  C   UNL     1      -5.890   9.623   5.501  0.00  0.00    +0.142 A 
ATOM     24  N   UNL     1      -4.984   8.716   5.984  0.00  0.00    -0.274 N 
BRANCH  24  25
ATOM     25  C   UNL     1      -4.492   8.625   7.294  0.00  0.00    +0.050 A 
ATOM     26  C   UNL     1      -5.349   8.308   8.339  0.00  0.00    +0.026 A 
ATOM     27  C   UNL     1      -4.861   8.215   9.627  0.00  0.00    +0.002 A 
ATOM     28  C   UNL     1      -3.521   8.448   9.879  0.00  0.00    +0.000 A 
ATOM     29  C   UNL     1      -2.666   8.769   8.841  0.00  0.00    +0.002 A 
ATOM     30  C   UNL     1      -3.148   8.858   7.550  0.00  0.00    +0.026 A 
ENDBRANCH  24  25
BRANCH  23  31
ATOM     31  C   UNL     1      -6.555  10.725   6.284  0.00  0.00    +0.057 C 
ATOM     32  C   UNL     1      -7.687  11.494   5.599  0.00  0.00    +0.012 C 
ATOM     33  C   UNL     1      -6.327  12.163   5.814  0.00  0.00    +0.012 C 
ENDBRANCH  23  31
ENDBRANCH  19  20
ENDBRANCH  18  19
ENDBRANCH   2  18
TORSDOF 11
