REMARK  Name = ZINC10869250
REMARK  8 active torsions:
REMARK  status: ('A' for Active; 'I' for Inactive)
REMARK    1  A    between atoms: C_1  and  C_2
REMARK    2  A    between atoms: C_3  and  C_31
REMARK    3  A    between atoms: N_4  and  C_25
REMARK    4  A    between atoms: C_5  and  S_7
REMARK    5  A    between atoms: S_7  and  C_8
REMARK    6  A    between atoms: C_8  and  C_9
REMARK    7  A    between atoms: N_11  and  C_12
REMARK    8  A    between atoms: N_11  and  C_20
REMARK                            x       y       z     vdW  Elec       q    Type
REMARK                         _______ _______ _______ _____ _____    ______ ____
ROOT
ATOM      1  C   UNL     1       0.058  -2.734   3.441  0.00  0.00    +0.173 C 
ENDROOT
BRANCH   1   2
ATOM      2  C   UNL     1       0.077  -3.839   4.466  0.00  0.00    +0.226 C 
ATOM      3  O   UNL     1      -0.001  -4.996   4.111  0.00  0.00    -0.275 OA
ATOM      4  N   UNL     1       0.182  -3.541   5.776  0.00  0.00    -0.293 N 
BRANCH   4   5
ATOM      5  C   UNL     1       0.312  -4.615   6.763  0.00  0.00    +0.099 C 
ATOM      6  C   UNL     1       1.560  -5.458   6.452  0.00  0.00    +0.046 C 
ATOM      7  C   UNL     1       1.533  -6.767   7.277  0.00  0.00    +0.168 C 
ATOM      8  S   UNL     1      -0.267  -7.057   7.515  0.00  0.00    -0.029 S 
ATOM      9  O   UNL     1      -0.566  -6.997   8.903  0.00  0.00    -0.174 OA
ATOM     10  O   UNL     1      -0.654  -8.200   6.765  0.00  0.00    -0.174 OA
ATOM     11  C   UNL     1      -0.931  -5.547   6.693  0.00  0.00    +0.188 C 
ENDBRANCH   4   5
BRANCH   4  12
ATOM     12  C   UNL     1       0.165  -2.143   6.213  0.00  0.00    +0.076 C 
ATOM     13  C   UNL     1       1.499  -1.788   6.901  0.00  0.00    +0.022 C 
ATOM     14  C   UNL     1       1.090  -0.838   8.055  0.00  0.00    +0.002 C 
ATOM     15  C   UNL     1      -0.240  -1.456   8.552  0.00  0.00    +0.002 C 
ATOM     16  C   UNL     1      -0.941  -1.932   7.263  0.00  0.00    +0.022 C 
ENDBRANCH   4  12
ENDBRANCH   1   2
BRANCH   1  17
ATOM     17  S   UNL     1       0.060  -3.453   1.776  0.00  0.00    -0.080 S 
BRANCH  17  22
ATOM     18  C   UNL     1      -0.014   1.502   0.010  0.00  0.00    +0.065 C 
ATOM     19  C   UNL     1       0.005  -0.004   0.002  0.00  0.00    +0.034 A 
ATOM     20  C   UNL     1       0.011  -0.785  -1.092  0.00  0.00    +0.037 A 
ATOM     21  N   UNL     1       0.030  -2.090  -0.654  0.00  0.00    -0.321 N 
ATOM     22  C   UNL     1       0.036  -2.053   0.707  0.00  0.00    +0.148 A 
ATOM     23  N   UNL     1       0.026  -0.797   1.087  0.00  0.00    -0.338 N 
ATOM     24  C   UNL     1      -0.003  -0.321  -2.526  0.00  0.00    +0.065 C 
ATOM     25  H   UNL     1       0.031  -0.488   2.006  0.00  0.00    +0.168 HD
BRANCH  21  26
ATOM     26  C   UNL     1       0.042  -3.291  -1.493  0.00  0.00    +0.089 C 
ATOM     27  C   UNL     1       1.304  -4.106  -1.200  0.00  0.00    +0.025 C 
ATOM     28  C   UNL     1       1.316  -5.360  -2.076  0.00  0.00    +0.002 C 
ATOM     29  C   UNL     1       0.080  -6.207  -1.771  0.00  0.00    +0.000 C 
ATOM     30  C   UNL     1      -1.182  -5.393  -2.064  0.00  0.00    +0.002 C 
ATOM     31  C   UNL     1      -1.194  -4.139  -1.188  0.00  0.00    +0.025 C 
ENDBRANCH  21  26
ENDBRANCH  17  22
ENDBRANCH   1  17
TORSDOF 6
