REMARK  Name = ZINC35404600
REMARK  6 active torsions:
REMARK  status: ('A' for Active; 'I' for Inactive)
REMARK    1  A    between atoms: C_6  and  C_7
REMARK    2  A    between atoms: C_7  and  N_8
REMARK    3  A    between atoms: C_9  and  C_11
REMARK    4  A    between atoms: C_11  and  N_12
REMARK    5  A    between atoms: C_15  and  C_18
REMARK    6  A    between atoms: N_21  and  C_23
REMARK                            x       y       z     vdW  Elec       q    Type
REMARK                         _______ _______ _______ _____ _____    ______ ____
ROOT
ATOM      1  N   UNL     1      -4.574  -2.695  -3.017  0.00  0.00    +0.388 N 
ATOM      2  C   UNL     1      -4.954  -3.033  -4.398  0.00  0.00    -0.073 C 
ATOM      3  C   UNL     1      -6.118  -4.027  -4.354  0.00  0.00    +0.017 C 
ATOM      4  C   UNL     1      -7.189  -3.509  -3.433  0.00  0.00    -0.045 C 
ATOM      5  C   UNL     1      -6.965  -2.546  -2.566  0.00  0.00    -0.041 C 
ATOM      6  C   UNL     1      -5.631  -1.872  -2.418  0.00  0.00    -0.050 C 
ATOM      7  H   UNL     1      -4.459  -3.541  -2.480  0.00  0.00    -0.081 HD
ENDROOT
BRANCH   4   8
ATOM      8  C   UNL     1      -8.541  -4.103  -3.506  0.00  0.00    +0.016 A 
ATOM      9  C   UNL     1      -8.886  -5.432  -3.183  0.00  0.00    +0.143 A 
ATOM     10  N   UNL     1     -10.170  -5.576  -3.373  0.00  0.00    -0.174 NA
ATOM     11  N   UNL     1     -10.695  -4.358  -3.821  0.00  0.00    -0.239 N 
ATOM     12  C   UNL     1      -9.685  -3.464  -3.893  0.00  0.00    +0.122 A 
BRANCH  11  13
ATOM     13  C   UNL     1     -12.038  -4.108  -4.137  0.00  0.00    +0.066 A 
ATOM     14  C   UNL     1     -12.425  -2.850  -4.578  0.00  0.00    +0.030 A 
ATOM     15  C   UNL     1     -13.748  -2.605  -4.889  0.00  0.00    +0.040 A 
ATOM     16  C   UNL     1     -14.689  -3.614  -4.759  0.00  0.00    +0.124 A 
ATOM     17  C   UNL     1     -14.304  -4.869  -4.318  0.00  0.00    +0.040 A 
ATOM     18  C   UNL     1     -12.981  -5.119  -4.013  0.00  0.00    +0.030 A 
ATOM     19  F   UNL     1     -15.983  -3.372  -5.062  0.00  0.00    -0.205 F 
ENDBRANCH  11  13
ENDBRANCH   4   8
BRANCH   1  20
ATOM     20  C   UNL     1      -3.312  -1.943  -3.025  0.00  0.00    +0.019 C 
BRANCH  20  22
ATOM     21  N   UNL     1      -1.726  -1.017  -1.368  0.00  0.00    -0.313 N 
ATOM     22  C   UNL     1      -2.866  -1.694  -1.607  0.00  0.00    +0.197 C 
ATOM     23  O   UNL     1      -3.535  -2.102  -0.681  0.00  0.00    -0.278 OA
ATOM     24  H   UNL     1      -1.191  -0.691  -2.109  0.00  0.00    +0.149 HD
BRANCH  21  25
ATOM     25  C   UNL     1      -1.293  -0.775   0.010  0.00  0.00    +0.139 C 
BRANCH  25  31
ATOM     26  C   UNL     1      -0.017   1.378   0.010  0.00  0.00    +0.006 A 
ATOM     27  C   UNL     1       1.171   2.086   0.002  0.00  0.00    +0.015 A 
ATOM     28  C   UNL     1       2.378   1.411  -0.013  0.00  0.00    +0.018 A 
ATOM     29  C   UNL     1       2.396   0.027  -0.021  0.00  0.00    +0.015 A 
ATOM     30  C   UNL     1       1.208  -0.679  -0.013  0.00  0.00    +0.006 A 
ATOM     31  C   UNL     1       0.002  -0.004   0.002  0.00  0.00    -0.030 A 
ATOM     32 BR   UNL     1       4.003   2.378  -0.024  0.00  0.00    -0.050 Br
ENDBRANCH  25  31
ENDBRANCH  21  25
ENDBRANCH  20  22
ENDBRANCH   1  20
TORSDOF 6
