REMARK  Name = ZINC27529475
REMARK  6 active torsions:
REMARK  status: ('A' for Active; 'I' for Inactive)
REMARK    1  A    between atoms: C_1  and  C_2
REMARK    2  A    between atoms: C_2  and  O_3
REMARK    3  A    between atoms: O_3  and  C_4
REMARK    4  A    between atoms: C_4  and  C_6
REMARK    5  A    between atoms: C_10  and  N_11
REMARK    6  A    between atoms: N_25  and  C_28
REMARK                            x       y       z     vdW  Elec       q    Type
REMARK                         _______ _______ _______ _____ _____    ______ ____
ROOT
ATOM      1  C   UNL     1      -2.823  -2.469   0.016  0.00  0.00    +0.091 A 
ATOM      2  C   UNL     1      -3.532  -2.753  -1.215  0.00  0.00    -0.025 A 
ATOM      3  C   UNL     1      -4.790  -3.219  -1.037  0.00  0.00    -0.021 A 
ATOM      4  S   UNL     1      -5.002  -3.273   0.716  0.00  0.00    -0.079 S 
ATOM      5  C   UNL     1      -3.497  -2.709   1.204  0.00  0.00    +0.096 A 
ATOM      6  C   UNL     1      -5.754  -3.591  -2.119  0.00  0.00    -0.036 C 
ATOM      7  N   UNL     1      -5.271  -3.017  -3.388  0.00  0.00    +0.381 N 
ATOM      8  C   UNL     1      -3.859  -3.371  -3.583  0.00  0.00    -0.074 C 
ATOM      9  C   UNL     1      -2.975  -2.571  -2.620  0.00  0.00    +0.018 C 
ATOM     10  C   UNL     1      -6.067  -3.551  -4.501  0.00  0.00    -0.096 C 
ATOM     11  H   UNL     1      -5.365  -2.013  -3.360  0.00  0.00    -0.082 HD
ENDROOT
BRANCH   5  12
ATOM     12  N   UNL     1      -3.034  -2.523   2.502  0.00  0.00    -0.203 N 
ATOM     13  C   UNL     1      -2.426  -3.491   3.209  0.00  0.00    +0.230 C 
ATOM     14  O   UNL     1      -2.072  -4.570   2.784  0.00  0.00    -0.274 OA
ATOM     15  C   UNL     1      -2.260  -2.990   4.642  0.00  0.00    +0.088 C 
ATOM     16  C   UNL     1      -3.348  -3.622   5.488  0.00  0.00    +0.013 C 
ATOM     17  C   UNL     1      -3.698  -2.786   6.711  0.00  0.00    +0.001 C 
ATOM     18  C   UNL     1      -4.169  -1.406   6.237  0.00  0.00    +0.001 C 
ATOM     19  C   UNL     1      -2.988  -0.699   5.582  0.00  0.00    +0.013 C 
ATOM     20  C   UNL     1      -2.367  -1.483   4.450  0.00  0.00    +0.088 C 
ATOM     21  C   UNL     1      -3.150  -1.355   3.162  0.00  0.00    +0.230 C 
ATOM     22  O   UNL     1      -3.768  -0.380   2.793  0.00  0.00    -0.274 OA
ENDBRANCH   5  12
BRANCH   1  23
ATOM     23  C   UNL     1      -1.450  -1.955   0.006  0.00  0.00    +0.342 C 
ATOM     24  O   UNL     1      -0.511  -2.729   0.013  0.00  0.00    -0.245 OA
BRANCH  23  25
ATOM     25  O   UNL     1      -1.228  -0.625  -0.009  0.00  0.00    -0.461 OA
BRANCH  25  27
ATOM     26  C   UNL     1       0.188   1.334  -0.036  0.00  0.00    +0.048 C 
ATOM     27  C   UNL     1       0.135  -0.195  -0.018  0.00  0.00    +0.229 C 
ENDBRANCH  25  27
ENDBRANCH  23  25
ENDBRANCH   1  23
TORSDOF 4
