REMARK  Name = ZINC39563891
REMARK  13 active torsions:
REMARK  status: ('A' for Active; 'I' for Inactive)
REMARK    1  A    between atoms: C_1  and  C_2
REMARK    2  A    between atoms: C_4  and  C_8
REMARK    3  A    between atoms: C_5  and  C_7
REMARK    4  A    between atoms: C_10  and  C_20
REMARK    5  A    between atoms: N_14  and  C_17
REMARK    6  A    between atoms: C_17  and  C_18
REMARK    7  A    between atoms: C_17  and  C_19
REMARK    8  A    between atoms: C_25  and  C_28
REMARK    9  A    between atoms: C_28  and  N_29
REMARK   10  A    between atoms: N_29  and  C_30
REMARK   11  A    between atoms: N_29  and  C_31
REMARK   12  A    between atoms: C_31  and  C_32
REMARK   13  A    between atoms: C_31  and  C_33
REMARK                            x       y       z     vdW  Elec       q    Type
REMARK                         _______ _______ _______ _____ _____    ______ ____
ROOT
ATOM      1  C   UNL     1      -1.935  -3.799   1.022  0.00  0.00    +0.075 A 
ATOM      2  C   UNL     1      -3.282  -3.419   1.042  0.00  0.00    +0.042 A 
ATOM      3  C   UNL     1      -4.120  -3.829   0.013  0.00  0.00    +0.051 A 
ATOM      4  C   UNL     1      -3.564  -4.621  -1.019  0.00  0.00    +0.051 A 
ATOM      5  C   UNL     1      -4.089  -5.205  -2.191  0.00  0.00    +0.145 A 
ATOM      6  N   UNL     1      -3.132  -5.845  -2.802  0.00  0.00    -0.177 NA
ATOM      7  N   UNL     1      -1.942  -5.719  -2.076  0.00  0.00    -0.244 N 
ATOM      8  C   UNL     1      -2.197  -4.960  -0.964  0.00  0.00    +0.160 A 
ATOM      9  N   UNL     1      -1.442  -4.536   0.040  0.00  0.00    -0.227 NA
ENDROOT
BRANCH   3  10
ATOM     10  C   UNL     1      -5.549  -3.450  -0.004  0.00  0.00    +0.247 C 
ATOM     11  O   UNL     1      -6.404  -4.308  -0.112  0.00  0.00    -0.270 OA
ATOM     12  N   UNL     1      -5.904  -2.154   0.102  0.00  0.00    -0.297 N 
ATOM     13  C   UNL     1      -4.885  -1.096   0.099  0.00  0.00    +0.108 C 
ATOM     14  C   UNL     1      -5.239  -0.074  -0.985  0.00  0.00    +0.021 C 
ATOM     15  C   UNL     1      -6.666   0.430  -0.759  0.00  0.00    -0.025 C 
ATOM     16  C   UNL     1      -7.645  -0.743  -0.863  0.00  0.00    +0.021 C 
ATOM     17  C   UNL     1      -7.318  -1.772   0.216  0.00  0.00    +0.108 C 
BRANCH  15  18
ATOM     18  C   UNL     1      -7.011   1.477  -1.820  0.00  0.00    -0.075 C 
BRANCH  18  19
ATOM     19  N   UNL     1      -8.335   2.047  -1.533  0.00  0.00    +0.380 N 
ATOM     20  C   UNL     1      -8.286   2.782  -0.263  0.00  0.00    -0.096 C 
ATOM     21  H   UNL     1      -9.014   1.303  -1.466  0.00  0.00    -0.082 HD
BRANCH  19  22
ATOM     22  C   UNL     1      -8.718   2.964  -2.615  0.00  0.00    -0.075 C 
ATOM     23  C   UNL     1      -8.768   2.198  -3.939  0.00  0.00    -0.014 C 
ATOM     24  C   UNL     1     -10.096   3.557  -2.316  0.00  0.00    -0.014 C 
ENDBRANCH  19  22
ENDBRANCH  18  19
ENDBRANCH  15  18
ENDBRANCH   3  10
BRANCH   1  28
ATOM     25  C   UNL     1      -0.844  -1.412   5.366  0.00  0.00    +0.051 C 
ATOM     26  C   UNL     1      -0.630  -2.236   4.122  0.00  0.00    -0.012 A 
ATOM     27  C   UNL     1      -1.526  -2.583   3.171  0.00  0.00    +0.021 A 
ATOM     28  C   UNL     1      -1.042  -3.361   2.119  0.00  0.00    +0.011 A 
ATOM     29  C   UNL     1       0.276  -3.707   2.128  0.00  0.00    -0.004 A 
ATOM     30  S   UNL     1       0.869  -2.994   3.529  0.00  0.00    -0.098 S 
ATOM     31  C   UNL     1       1.028  -4.533   1.116  0.00  0.00    +0.052 C 
ENDBRANCH   1  28
BRANCH   7  32
ATOM     32  C   UNL     1      -0.647  -6.300  -2.442  0.00  0.00    +0.103 C 
ATOM     33  C   UNL     1      -0.775  -7.823  -2.520  0.00  0.00    +0.032 C 
ATOM     34  C   UNL     1      -0.210  -5.755  -3.803  0.00  0.00    +0.032 C 
ENDBRANCH   7  32
TORSDOF 6
