REMARK  Name = ZINC60374717
REMARK  8 active torsions:
REMARK  status: ('A' for Active; 'I' for Inactive)
REMARK    1  A    between atoms: C_1  and  C_2
REMARK    2  A    between atoms: C_5  and  N_9
REMARK    3  A    between atoms: C_6  and  C_8
REMARK    4  A    between atoms: C_18  and  S_19
REMARK    5  A    between atoms: S_19  and  C_20
REMARK    6  A    between atoms: C_20  and  C_21
REMARK    7  A    between atoms: C_21  and  C_22
REMARK    8  A    between atoms: C_22  and  C_23
REMARK                            x       y       z     vdW  Elec       q    Type
REMARK                         _______ _______ _______ _____ _____    ______ ____
ROOT
ATOM      1  N   UNL     1       0.059  -4.171  -0.021  0.00  0.00    -0.255 N 
ATOM      2  C   UNL     1      -1.105  -4.848  -0.024  0.00  0.00    +0.268 A 
ATOM      3  O   UNL     1      -2.168  -4.251  -0.020  0.00  0.00    -0.267 OA
ATOM      4  C   UNL     1      -1.076  -6.277  -0.033  0.00  0.00    +0.076 A 
ATOM      5  C   UNL     1      -2.218  -7.207  -0.037  0.00  0.00    -0.023 A 
ATOM      6  C   UNL     1      -1.933  -8.519  -0.044  0.00  0.00    -0.004 A 
ATOM      7  S   UNL     1      -0.157  -8.605  -0.048  0.00  0.00    -0.073 S 
ATOM      8  C   UNL     1       0.197  -6.867  -0.037  0.00  0.00    +0.117 A 
ATOM      9  N   UNL     1       1.311  -6.143  -0.033  0.00  0.00    -0.216 NA
ATOM     10  C   UNL     1       1.258  -4.827  -0.031  0.00  0.00    +0.177 A 
ATOM     11  C   UNL     1      -3.174  -9.370  -0.043  0.00  0.00    +0.043 C 
ATOM     12  C   UNL     1      -4.301  -8.412   0.400  0.00  0.00    +0.010 C 
ATOM     13  C   UNL     1      -3.741  -7.045  -0.040  0.00  0.00    +0.037 C 
ENDROOT
BRANCH   1  18
ATOM     14  C   UNL     1      -0.018   1.503   0.010  0.00  0.00    +0.044 C 
ATOM     15  C   UNL     1       0.002  -0.004   0.002  0.00  0.00    -0.050 A 
ATOM     16  C   UNL     1       0.006  -0.688  -1.200  0.00  0.00    +0.005 A 
ATOM     17  C   UNL     1       0.025  -2.068  -1.211  0.00  0.00    +0.027 A 
ATOM     18  C   UNL     1       0.040  -2.771  -0.013  0.00  0.00    +0.055 A 
ATOM     19  C   UNL     1       0.037  -2.082   1.192  0.00  0.00    -0.026 A 
ATOM     20  C   UNL     1       0.023  -0.700   1.196  0.00  0.00    +0.008 A 
ATOM     21  C   UNL     1       0.053  -2.840   2.494  0.00  0.00    +0.046 C 
ENDBRANCH   1  18
BRANCH  10  22
ATOM     22  S   UNL     1       2.755  -3.897  -0.034  0.00  0.00    -0.087 S 
BRANCH  22  23
ATOM     23  C   UNL     1       4.056  -5.162  -0.047  0.00  0.00    +0.078 C 
BRANCH  23  24
ATOM     24  C   UNL     1       5.427  -4.482  -0.051  0.00  0.00    +0.020 C 
BRANCH  24  25
ATOM     25  C   UNL     1       6.525  -5.548  -0.062  0.00  0.00    +0.097 C 
BRANCH  25  26
ATOM     26  C   UNL     1       7.875  -4.880  -0.066  0.00  0.00    +0.220 C 
ATOM     27  O   UNL     1       7.952  -3.670  -0.059  0.00  0.00    -0.275 OA
ATOM     28  N   UNL     1       8.997  -5.626  -0.076  0.00  0.00    -0.240 N 
ATOM     29  C   UNL     1      10.205  -5.028  -0.079  0.00  0.00    +0.303 C 
ATOM     30  O   UNL     1      10.282  -3.815  -0.072  0.00  0.00    -0.253 OA
ATOM     31  N   UNL     1      11.327  -5.775  -0.089  0.00  0.00    -0.313 N 
ATOM     32  H   UNL     1       8.935  -6.594  -0.081  0.00  0.00    +0.159 HD
ATOM     33  H   UNL     1      11.265  -6.743  -0.094  0.00  0.00    +0.146 HD
ATOM     34  H   UNL     1      12.196  -5.344  -0.091  0.00  0.00    +0.146 HD
ENDBRANCH  25  26
ENDBRANCH  24  25
ENDBRANCH  23  24
ENDBRANCH  22  23
ENDBRANCH  10  22
TORSDOF 6
