REMARK  Name = ZINC35523321
REMARK  7 active torsions:
REMARK  status: ('A' for Active; 'I' for Inactive)
REMARK    1  A    between atoms: C_5  and  C_7
REMARK    2  A    between atoms: N_16  and  C_17
REMARK    3  A    between atoms: C_17  and  C_18
REMARK    4  A    between atoms: C_21  and  C_23
REMARK    5  A    between atoms: N_25  and  C_26
REMARK    6  A    between atoms: C_26  and  C_27
REMARK    7  A    between atoms: C_27  and  C_28
REMARK                            x       y       z     vdW  Elec       q    Type
REMARK                         _______ _______ _______ _____ _____    ______ ____
ROOT
ATOM      1  C   UNL     1      -0.221  -2.408   1.879  0.00  0.00    -0.002 C 
ENDROOT
BRANCH   1  10
ATOM      2  C   UNL     1       1.229  -2.186  -0.022  0.00  0.00    +0.012 C 
ATOM      3  C   UNL     1       1.453  -2.684  -1.429  0.00  0.00    +0.009 A 
ATOM      4  C   UNL     1       2.326  -2.234  -2.341  0.00  0.00    +0.021 A 
ATOM      5  C   UNL     1       2.158  -3.014  -3.505  0.00  0.00    +0.019 A 
ATOM      6  C   UNL     1       1.184  -3.915  -3.252  0.00  0.00    +0.086 A 
ATOM      7  N   UNL     1       0.749  -3.722  -1.982  0.00  0.00    -0.353 N 
ATOM      8  C   UNL     1      -0.291  -4.461  -1.255  0.00  0.00    +0.103 C 
ATOM      9  C   UNL     1      -0.133  -4.155   0.239  0.00  0.00    -0.055 C 
ATOM     10  N   UNL     1      -0.068  -2.703   0.448  0.00  0.00    +0.394 N 
ATOM     11  H   UNL     1      -0.813  -2.258  -0.066  0.00  0.00    -0.080 HD
BRANCH   2  16
ATOM     12  C   UNL     1      -0.017   1.378   0.010  0.00  0.00    +0.000 A 
ATOM     13  C   UNL     1       1.171   2.086   0.002  0.00  0.00    +0.001 A 
ATOM     14  C   UNL     1       2.377   1.412  -0.013  0.00  0.00    +0.020 A 
ATOM     15  C   UNL     1       2.397   0.029  -0.021  0.00  0.00    +0.043 A 
ATOM     16  C   UNL     1       1.208  -0.679  -0.013  0.00  0.00    -0.037 A 
ATOM     17  C   UNL     1       0.002  -0.004   0.002  0.00  0.00    +0.004 A 
ATOM     18 CL   UNL     1       3.912  -0.818  -0.041  0.00  0.00    -0.083 Cl
ENDBRANCH   2  16
ENDBRANCH   1  10
BRANCH   1  19
ATOM     19  C   UNL     1      -1.595  -2.826   2.334  0.00  0.00    +0.090 A 
ATOM     20  C   UNL     1      -1.926  -4.041   2.824  0.00  0.00    +0.043 A 
ATOM     21  C   UNL     1      -3.297  -4.006   3.125  0.00  0.00    +0.055 A 
ATOM     22  C   UNL     1      -3.738  -2.755   2.799  0.00  0.00    +0.189 A 
ATOM     23  O   UNL     1      -2.689  -2.052   2.325  0.00  0.00    -0.457 OA
BRANCH  22  24
ATOM     24  C   UNL     1      -5.112  -2.261   2.942  0.00  0.00    +0.279 C 
ATOM     25  O   UNL     1      -5.978  -2.992   3.388  0.00  0.00    -0.267 OA
ATOM     26  N   UNL     1      -5.415  -0.999   2.581  0.00  0.00    -0.308 N 
ATOM     27  H   UNL     1      -4.726  -0.417   2.225  0.00  0.00    +0.149 HD
BRANCH  26  28
ATOM     28  C   UNL     1      -6.787  -0.506   2.724  0.00  0.00    +0.111 C 
BRANCH  28  29
ATOM     29  C   UNL     1      -6.860   0.946   2.246  0.00  0.00    +0.074 C 
BRANCH  29  30
ATOM     30  C   UNL     1      -8.271   1.453   2.393  0.00  0.00    +0.043 A 
ATOM     31  C   UNL     1      -8.510   2.608   3.114  0.00  0.00    +0.023 A 
ATOM     32  C   UNL     1      -9.812   3.066   3.244  0.00  0.00    +0.003 A 
ATOM     33  C   UNL     1     -10.830   2.342   2.641  0.00  0.00    +0.020 A 
ATOM     34  C   UNL     1     -10.515   1.196   1.937  0.00  0.00    +0.111 A 
ATOM     35  N   UNL     1      -9.264   0.793   1.829  0.00  0.00    -0.260 NA
ENDBRANCH  29  30
ENDBRANCH  28  29
ENDBRANCH  26  28
ENDBRANCH  22  24
ENDBRANCH   1  19
TORSDOF 7
