REMARK  Name = ZINC35697747
REMARK  3 active torsions:
REMARK  status: ('A' for Active; 'I' for Inactive)
REMARK    1  A    between atoms: C_3  and  N_11
REMARK    2  A    between atoms: C_5  and  S_7
REMARK    3  A    between atoms: S_7  and  N_10
REMARK                            x       y       z     vdW  Elec       q    Type
REMARK                         _______ _______ _______ _____ _____    ______ ____
ROOT
ATOM      1  C   UNL     1       0.087   1.196  -0.678  0.00  0.00    +0.004 A 
ATOM      2  C   UNL     1       1.273   1.904  -0.688  0.00  0.00    +0.026 A 
ATOM      3  C   UNL     1       2.381   1.409  -0.013  0.00  0.00    +0.054 A 
ATOM      4  C   UNL     1       2.293   0.203   0.669  0.00  0.00    +0.054 A 
ATOM      5  C   UNL     1       1.104  -0.500   0.675  0.00  0.00    +0.107 A 
ATOM      6  C   UNL     1       0.002  -0.004   0.002  0.00  0.00    +0.028 A 
ENDROOT
BRANCH   3   7
ATOM      7  N   UNL     1       3.585   2.124  -0.021  0.00  0.00    -0.254 N 
ATOM      8  C   UNL     1       4.514   1.903  -1.003  0.00  0.00    +0.274 A 
ATOM      9  O   UNL     1       4.289   0.996  -1.978  0.00  0.00    -0.266 OA
ATOM     10  C   UNL     1       5.677   2.625  -0.972  0.00  0.00    +0.102 A 
ATOM     11  C   UNL     1       5.930   3.582   0.044  0.00  0.00    +0.086 A 
ATOM     12  C   UNL     1       7.162   4.245  -0.052  0.00  0.00    +0.036 A 
ATOM     13  C   UNL     1       8.012   3.958  -1.060  0.00  0.00    +0.048 A 
ATOM     14  S   UNL     1       7.136   2.703  -1.978  0.00  0.00    -0.090 S 
ATOM     15  N   UNL     1       4.956   3.736   0.976  0.00  0.00    -0.222 NA
ATOM     16  C   UNL     1       3.838   3.038   0.932  0.00  0.00    +0.188 A 
ATOM     17  S   UNL     1       2.660   3.303   2.146  0.00  0.00    -0.011 S 
ENDBRANCH   3   7
BRANCH   5  18
ATOM     18  S   UNL     1       0.991  -2.031   1.541  0.00  0.00    +0.056 S 
ATOM     19  O   UNL     1      -0.069  -2.761   0.939  0.00  0.00    -0.153 OA
ATOM     20  O   UNL     1       2.313  -2.544   1.632  0.00  0.00    -0.153 OA
BRANCH  18  21
ATOM     21  N   UNL     1       0.510  -1.685   3.087  0.00  0.00    -0.204 NA
ATOM     22  H   UNL     1       0.349  -0.765   3.350  0.00  0.00    +0.144 HD
ATOM     23  H   UNL     1       0.388  -2.402   3.729  0.00  0.00    +0.144 HD
ENDBRANCH  18  21
ENDBRANCH   5  18
TORSDOF 3
