REMARK  Name = ZINC01069039
REMARK  4 active torsions:
REMARK  status: ('A' for Active; 'I' for Inactive)
REMARK    1  A    between atoms: C_6  and  C_7
REMARK    2  A    between atoms: C_10  and  C_22
REMARK    3  A    between atoms: C_15  and  C_17
REMARK    4  A    between atoms: N_19  and  N_20
REMARK                            x       y       z     vdW  Elec       q    Type
REMARK                         _______ _______ _______ _____ _____    ______ ____
ROOT
ATOM      1  C   UNL     1       2.479   0.244  -0.317  0.00  0.00    +0.104 C 
ATOM      2  C   UNL     1       1.382  -0.484   0.467  0.00  0.00    +0.063 C 
ATOM      3  C   UNL     1       0.002  -0.004   0.002  0.00  0.00    +0.215 C 
ATOM      4  N   UNL     1      -0.018   1.461   0.010  0.00  0.00    -0.238 N 
ATOM      5  C   UNL     1       1.108   2.235   0.004  0.00  0.00    +0.119 A 
ATOM      6  C   UNL     1       0.730   3.528   0.017  0.00  0.00    +0.078 A 
ATOM      7  C   UNL     1      -0.683   3.559   0.031  0.00  0.00    +0.150 A 
ATOM      8  N   UNL     1      -1.122   2.312   0.031  0.00  0.00    -0.164 NA
ATOM      9  N   UNL     1       2.394   1.686  -0.016  0.00  0.00    -0.322 N 
ATOM     10  H   UNL     1       3.184   2.222   0.158  0.00  0.00    +0.148 HD
ENDROOT
BRANCH   1  16
ATOM     11  C   UNL     1       4.419   0.173   1.262  0.00  0.00    +0.008 A 
ATOM     12  C   UNL     1       5.655  -0.312   1.645  0.00  0.00    +0.038 A 
ATOM     13  C   UNL     1       6.309  -1.244   0.856  0.00  0.00    +0.123 A 
ATOM     14  C   UNL     1       5.720  -1.693  -0.313  0.00  0.00    +0.038 A 
ATOM     15  C   UNL     1       4.481  -1.212  -0.692  0.00  0.00    +0.008 A 
ATOM     16  C   UNL     1       3.830  -0.281   0.097  0.00  0.00    -0.027 A 
ATOM     17  F   UNL     1       7.520  -1.713   1.227  0.00  0.00    -0.205 F 
ENDBRANCH   1  16
BRANCH   7  18
ATOM     18  C   UNL     1      -1.524   4.774   0.048  0.00  0.00    +0.278 C 
ATOM     19  O   UNL     1      -1.003   5.872   0.050  0.00  0.00    -0.267 OA
ATOM     20  N   UNL     1      -2.867   4.664   0.060  0.00  0.00    -0.248 N 
ATOM     21  H   UNL     1      -3.282   3.787   0.058  0.00  0.00    +0.169 HD
BRANCH  20  22
ATOM     22  N   UNL     1      -3.644   5.787   0.075  0.00  0.00    -0.254 NA
ATOM     23  H   UNL     1      -3.424   6.389  -0.705  0.00  0.00    +0.140 HD
ATOM     24  H   UNL     1      -4.624   5.549   0.083  0.00  0.00    +0.140 HD
ENDBRANCH  20  22
ENDBRANCH   7  18
BRANCH   3  25
ATOM     25  C   UNL     1      -1.073  -0.536   0.952  0.00  0.00    +0.412 C 
ATOM     26  F   UNL     1      -2.329  -0.086   0.534  0.00  0.00    -0.168 F 
ATOM     27  F   UNL     1      -1.052  -1.935   0.943  0.00  0.00    -0.168 F 
ATOM     28  F   UNL     1      -0.819  -0.075   2.248  0.00  0.00    -0.168 F 
ENDBRANCH   3  25
TORSDOF 4
