REMARK  Name = ZINC39579216
REMARK  7 active torsions:
REMARK  status: ('A' for Active; 'I' for Inactive)
REMARK    1  A    between atoms: C_1  and  C_2
REMARK    2  A    between atoms: C_2  and  O_3
REMARK    3  A    between atoms: O_3  and  C_4
REMARK    4  A    between atoms: C_6  and  C_12
REMARK    5  A    between atoms: C_9  and  O_10
REMARK    6  A    between atoms: N_13  and  N_14
REMARK    7  A    between atoms: N_14  and  C_15
REMARK                            x       y       z     vdW  Elec       q    Type
REMARK                         _______ _______ _______ _____ _____    ______ ____
ROOT
ATOM      1  C   UNL     1       0.621  -4.950  -0.019  0.00  0.00    +0.138 C 
ATOM      2  N   UNL     1       0.463  -6.238  -0.025  0.00  0.00    -0.191 NA
ENDROOT
BRANCH   1   5
ATOM      3  C   UNL     1      -1.498  -1.849   0.006  0.00  0.00    +0.163 A 
ATOM      4  C   UNL     1      -0.390  -2.676  -0.003  0.00  0.00    +0.059 A 
ATOM      5  C   UNL     1      -0.558  -4.063  -0.009  0.00  0.00    -0.001 A 
ATOM      6  C   UNL     1      -1.844  -4.608  -0.005  0.00  0.00    +0.028 A 
ATOM      7  C   UNL     1      -2.945  -3.776   0.004  0.00  0.00    +0.063 A 
ATOM      8  C   UNL     1      -2.778  -2.399   0.016  0.00  0.00    +0.173 A 
ATOM      9 BR   UNL     1      -4.686  -4.516   0.009  0.00  0.00    -0.046 Br
BRANCH   8  10
ATOM     10  O   UNL     1      -3.866  -1.583   0.031  0.00  0.00    -0.503 OA
ATOM     11  H   UNL     1      -4.189  -1.343  -0.848  0.00  0.00    +0.292 HD
ENDBRANCH   8  10
BRANCH   3  12
ATOM     12  O   UNL     1      -1.339  -0.499   0.012  0.00  0.00    -0.489 OA
BRANCH  12  14
ATOM     13  C   UNL     1      -0.019   1.526   0.010  0.00  0.00    +0.048 C 
ATOM     14  C   UNL     1       0.002  -0.004   0.002  0.00  0.00    +0.226 C 
ENDBRANCH  12  14
ENDBRANCH   3  12
ENDBRANCH   1   5
BRANCH   2  15
ATOM     15  N   UNL     1       1.583  -7.080  -0.035  0.00  0.00    -0.229 N 
ATOM     16  H   UNL     1       2.475  -6.701  -0.037  0.00  0.00    +0.172 HD
BRANCH  15  17
ATOM     17  C   UNL     1       1.405  -8.534  -0.041  0.00  0.00    +0.283 C 
ATOM     18  N   UNL     1       1.424  -9.050   1.334  0.00  0.00    -0.347 N 
ATOM     19  C   UNL     1       2.422  -9.881   1.425  0.00  0.00    +0.061 A 
ATOM     20  C   UNL     1       2.942 -10.700   2.530  0.00  0.00    +0.027 A 
ATOM     21  C   UNL     1       4.018 -11.485   2.325  0.00  0.00    +0.002 A 
ATOM     22  C   UNL     1       4.678 -11.560   1.085  0.00  0.00    +0.002 A 
ATOM     23  C   UNL     1       4.283 -10.852   0.008  0.00  0.00    +0.027 A 
ATOM     24  C   UNL     1       3.119  -9.961   0.113  0.00  0.00    +0.061 A 
ATOM     25  N   UNL     1       2.526  -9.176  -0.739  0.00  0.00    -0.347 N 
ATOM     26  H   UNL     1       0.806  -8.815   2.044  0.00  0.00    +0.163 HD
ATOM     27  H   UNL     1       2.778  -9.040  -1.666  0.00  0.00    +0.163 HD
ENDBRANCH  15  17
ENDBRANCH   2  15
TORSDOF 6
