REMARK  Name = ZINC36517234
REMARK  19 active torsions:
REMARK  status: ('A' for Active; 'I' for Inactive)
REMARK    1  A    between atoms: C_1  and  C_2
REMARK    2  A    between atoms: C_2  and  C_3
REMARK    3  A    between atoms: C_3  and  C_4
REMARK    4  A    between atoms: C_4  and  C_5
REMARK    5  A    between atoms: C_5  and  C_6
REMARK    6  A    between atoms: C_6  and  N_7
REMARK    7  A    between atoms: N_7  and  C_8
REMARK    8  A    between atoms: C_8  and  C_10
REMARK    9  A    between atoms: C_8  and  C_19
REMARK   10  A    between atoms: C_13  and  O_18
REMARK   11  A    between atoms: C_14  and  O_16
REMARK   12  A    between atoms: O_16  and  C_17
REMARK   13  A    between atoms: N_21  and  C_22
REMARK   14  A    between atoms: C_22  and  S_23
REMARK   15  A    between atoms: S_23  and  C_26
REMARK   16  A    between atoms: C_29  and  C_32
REMARK   17  A    between atoms: C_33  and  C_35
REMARK   18  A    between atoms: C_35  and  C_36
REMARK   19  A    between atoms: C_36  and  C_37
REMARK                            x       y       z     vdW  Elec       q    Type
REMARK                         _______ _______ _______ _____ _____    ______ ____
ROOT
ATOM      1  C   UNL     1       3.568  -4.751  -3.799  0.00  0.00    +0.192 C 
ENDROOT
BRANCH   1   2
ATOM      2  C   UNL     1       4.130  -3.965  -4.956  0.00  0.00    -0.015 A 
ATOM      3  C   UNL     1       4.099  -4.499  -6.231  0.00  0.00    +0.010 A 
ATOM      4  C   UNL     1       4.613  -3.782  -7.296  0.00  0.00    +0.049 A 
ATOM      5  C   UNL     1       5.160  -2.526  -7.086  0.00  0.00    +0.158 A 
ATOM      6  C   UNL     1       5.191  -1.989  -5.803  0.00  0.00    +0.162 A 
ATOM      7  C   UNL     1       4.669  -2.711  -4.741  0.00  0.00    +0.055 A 
BRANCH   6   8
ATOM      8  O   UNL     1       5.726  -0.757  -5.592  0.00  0.00    -0.491 OA
ATOM      9  C   UNL     1       5.724  -0.270  -4.249  0.00  0.00    +0.277 C 
ENDBRANCH   6   8
BRANCH   5  10
ATOM     10  O   UNL     1       5.667  -1.821  -8.132  0.00  0.00    -0.503 OA
ATOM     11  H   UNL     1       5.021  -1.249  -8.570  0.00  0.00    +0.292 HD
ENDBRANCH   5  10
ENDBRANCH   1   2
BRANCH   1  12
ATOM     12  C   UNL     1       3.842  -6.218  -4.008  0.00  0.00    +0.239 C 
ATOM     13  O   UNL     1       2.920  -7.002  -4.079  0.00  0.00    -0.273 OA
ATOM     14  N   UNL     1       5.111  -6.658  -4.114  0.00  0.00    -0.294 N 
ATOM     15  H   UNL     1       5.849  -6.031  -4.057  0.00  0.00    +0.150 HD
BRANCH  14  16
ATOM     16  C   UNL     1       5.377  -8.084  -4.317  0.00  0.00    +0.278 C 
BRANCH  16  17
ATOM     17  S   UNL     1       5.571  -8.417  -6.090  0.00  0.00    +0.013 S 
ATOM     18  O   UNL     1       5.892  -9.786  -6.299  0.00  0.00    -0.168 OA
ATOM     19  O   UNL     1       4.520  -7.800  -6.821  0.00  0.00    -0.168 OA
BRANCH  17  20
ATOM     20  C   UNL     1       7.023  -7.537  -6.560  0.00  0.00    +0.090 A 
ATOM     21  C   UNL     1       6.929  -6.228  -6.992  0.00  0.00    +0.027 A 
ATOM     22  C   UNL     1       8.069  -5.538  -7.361  0.00  0.00    +0.005 A 
ATOM     23  C   UNL     1       9.303  -6.157  -7.297  0.00  0.00    -0.050 A 
ATOM     24  C   UNL     1       9.397  -7.466  -6.864  0.00  0.00    +0.005 A 
ATOM     25  C   UNL     1       8.258  -8.155  -6.491  0.00  0.00    +0.027 A 
ATOM     26  C   UNL     1      10.545  -5.405  -7.699  0.00  0.00    +0.044 C 
ENDBRANCH  17  20
ENDBRANCH  16  17
ENDBRANCH  14  16
ENDBRANCH   1  12
BRANCH   1  27
ATOM     27  N   UNL     1       2.122  -4.531  -3.715  0.00  0.00    -0.286 N 
ATOM     28  C   UNL     1       1.324  -4.904  -4.735  0.00  0.00    +0.216 C 
ATOM     29  O   UNL     1       1.788  -5.505  -5.680  0.00  0.00    -0.276 OA
BRANCH  27  30
ATOM     30  C   UNL     1       1.544  -3.905  -2.523  0.00  0.00    +0.109 C 
BRANCH  30  31
ATOM     31  C   UNL     1       1.506  -2.387  -2.711  0.00  0.00    +0.019 C 
BRANCH  31  32
ATOM     32  C   UNL     1       0.902  -1.734  -1.466  0.00  0.00    +0.002 C 
BRANCH  32  33
ATOM     33  C   UNL     1       0.864  -0.216  -1.654  0.00  0.00    -0.000 C 
BRANCH  33  35
ATOM     34  C   UNL     1       0.222   1.955  -0.597  0.00  0.00    +0.004 C 
ATOM     35  C   UNL     1       0.260   0.437  -0.409  0.00  0.00    -0.003 C 
ENDBRANCH  33  35
ENDBRANCH  32  33
ENDBRANCH  31  32
ENDBRANCH  30  31
ENDBRANCH  27  30
BRANCH  28  36
ATOM     36  C   UNL     1      -0.146  -4.573  -4.701  0.00  0.00    +0.096 C 
BRANCH  36  37
ATOM     37  C   UNL     1      -0.818  -5.104  -5.968  0.00  0.00    +0.006 C 
ATOM     38  C   UNL     1      -2.310  -4.769  -5.934  0.00  0.00    +0.004 C 
ENDBRANCH  36  37
ENDBRANCH  28  36
ENDBRANCH   1  27
TORSDOF 15
