REMARK  Name = ZINC26951824
REMARK  8 active torsions:
REMARK  status: ('A' for Active; 'I' for Inactive)
REMARK    1  A    between atoms: C_1  and  C_2
REMARK    2  A    between atoms: C_2  and  C_3
REMARK    3  A    between atoms: C_3  and  C_5
REMARK    4  A    between atoms: C_3  and  N_6
REMARK    5  A    between atoms: N_14  and  C_15
REMARK    6  A    between atoms: N_14  and  C_17
REMARK    7  A    between atoms: C_17  and  C_19
REMARK    8  A    between atoms: C_17  and  N_23
REMARK                            x       y       z     vdW  Elec       q    Type
REMARK                         _______ _______ _______ _____ _____    ______ ____
ROOT
ATOM      1  N   UNL     1      -0.011   0.966   0.007  0.00  0.00    -0.311 N 
ATOM      2  C   UNL     1       1.175   1.672  -0.000  0.00  0.00    +0.221 A 
ATOM      3  N   UNL     1       2.335   1.024  -0.015  0.00  0.00    -0.180 NA
ATOM      4  C   UNL     1       3.474   1.707  -0.022  0.00  0.00    +0.238 A 
ATOM      5  N   UNL     1       3.450   3.037  -0.015  0.00  0.00    -0.183 NA
ATOM      6  C   UNL     1       2.294   3.680  -0.001  0.00  0.00    +0.229 A 
ATOM      7  N   UNL     1       1.157   3.002   0.002  0.00  0.00    -0.184 NA
ATOM      8 CL   UNL     1       2.268   5.416   0.007  0.00  0.00    -0.041 Cl
ATOM      9  N   UNL     1       4.684   1.036  -0.037  0.00  0.00    -0.182 N 
ATOM     10  H   UNL     1       0.004  -0.134   0.006  0.00  0.00    +0.149 HD
ENDROOT
BRANCH   1  11
ATOM     11  C   UNL     1      -1.290   1.681   0.017  0.00  0.00    +0.070 C 
ATOM     12  C   UNL     1      -1.667   2.032   1.458  0.00  0.00    +0.028 C 
BRANCH  11  14
ATOM     13  C   UNL     1      -2.062   0.544  -2.069  0.00  0.00    +0.005 C 
ATOM     14  C   UNL     1      -2.376   0.792  -0.592  0.00  0.00    +0.018 C 
ENDBRANCH  11  14
ENDBRANCH   1  11
BRANCH   9  15
ATOM     15  C   UNL     1       4.707  -0.319  -0.044  0.00  0.00    +0.178 C 
ATOM     16  N   UNL     1       4.726  -1.455  -0.049  0.00  0.00    -0.174 NA
ENDBRANCH   9  15
BRANCH   9  17
ATOM     17  C   UNL     1       5.940   1.790  -0.046  0.00  0.00    +0.229 C 
BRANCH  17  18
ATOM     18  C   UNL     1       6.582   1.726   1.341  0.00  0.00    +0.226 C 
ATOM     19 CL   UNL     1       6.917   0.007   1.770  0.00  0.00    -0.080 Cl
ATOM     20 CL   UNL     1       8.128   2.654   1.331  0.00  0.00    -0.080 Cl
ATOM     21 CL   UNL     1       5.460   2.441   2.558  0.00  0.00    -0.080 Cl
ENDBRANCH  17  18
BRANCH  17  22
ATOM     22  N   UNL     1       6.852   1.208  -1.034  0.00  0.00    -0.295 N 
ATOM     23  C   UNL     1       7.062   1.835  -2.208  0.00  0.00    +0.327 C 
ATOM     24  O   UNL     1       6.495   2.881  -2.447  0.00  0.00    -0.279 OA
ATOM     25  H   UNL     1       7.365   0.260  -0.817  0.00  0.00    +0.150 HD
ENDBRANCH  17  22
ENDBRANCH   9  17
TORSDOF 6
