REMARK  Name = ZINC09433764
REMARK  8 active torsions:
REMARK  status: ('A' for Active; 'I' for Inactive)
REMARK    1  A    between atoms: C_1  and  O_2
REMARK    2  A    between atoms: O_2  and  C_3
REMARK    3  A    between atoms: C_6  and  N_9
REMARK    4  A    between atoms: C_11  and  C_20
REMARK    5  A    between atoms: N_22  and  C_23
REMARK    6  A    between atoms: C_27  and  C_28
REMARK    7  A    between atoms: C_28  and  O_30
REMARK    8  A    between atoms: O_30  and  C_31
REMARK                            x       y       z     vdW  Elec       q    Type
REMARK                         _______ _______ _______ _____ _____    ______ ____
ROOT
ATOM      1  N   UNL     1       7.290  -2.627  -0.502  0.00  0.00    -0.283 N 
ATOM      2  C   UNL     1       5.968  -2.340  -0.406  0.00  0.00    +0.108 A 
ATOM      3  C   UNL     1       5.510  -1.061  -0.293  0.00  0.00    +0.061 A 
ATOM      4  C   UNL     1       6.480   0.049  -0.281  0.00  0.00    +0.001 A 
ATOM      5  C   UNL     1       6.078   1.376  -0.164  0.00  0.00    +0.009 A 
ATOM      6  C   UNL     1       7.028   2.375  -0.151  0.00  0.00    +0.001 A 
ATOM      7  C   UNL     1       8.379   2.070  -0.250  0.00  0.00    +0.001 A 
ATOM      8  C   UNL     1       8.798   0.762  -0.362  0.00  0.00    +0.014 A 
ATOM      9  C   UNL     1       7.853  -0.264  -0.376  0.00  0.00    +0.048 A 
ATOM     10  C   UNL     1       8.242  -1.674  -0.493  0.00  0.00    +0.263 A 
ATOM     11  O   UNL     1       9.416  -1.981  -0.583  0.00  0.00    -0.267 OA
ENDROOT
BRANCH   1  15
ATOM     12  C   UNL     1       8.453  -6.618  -0.838  0.00  0.00    +0.120 A 
ATOM     13  C   UNL     1       7.856  -6.166   0.330  0.00  0.00    +0.047 A 
ATOM     14  C   UNL     1       7.471  -4.845   0.442  0.00  0.00    +0.030 A 
ATOM     15  C   UNL     1       7.681  -3.969  -0.615  0.00  0.00    +0.050 A 
ATOM     16  C   UNL     1       8.273  -4.423  -1.786  0.00  0.00    +0.030 A 
ATOM     17  C   UNL     1       8.663  -5.743  -1.895  0.00  0.00    +0.047 A 
BRANCH  12  19
ATOM     18  C   UNL     1       9.440  -8.316  -2.179  0.00  0.00    +0.277 C 
ATOM     19  O   UNL     1       8.832  -7.919  -0.948  0.00  0.00    -0.495 OA
ENDBRANCH  12  19
ENDBRANCH   1  15
BRANCH   3  20
ATOM     20  C   UNL     1       4.068  -0.792  -0.190  0.00  0.00    +0.250 C 
ATOM     21  O   UNL     1       3.661   0.354  -0.207  0.00  0.00    -0.270 OA
ATOM     22  N   UNL     1       3.198  -1.815  -0.079  0.00  0.00    -0.280 N 
ATOM     23  H   UNL     1       3.526  -2.724   0.009  0.00  0.00    +0.155 HD
BRANCH  22  24
ATOM     24  C   UNL     1       1.826  -1.567  -0.088  0.00  0.00    +0.055 A 
ATOM     25  C   UNL     1       1.322  -0.285  -0.030  0.00  0.00    +0.032 A 
ATOM     26  C   UNL     1      -0.022  -0.100  -0.042  0.00  0.00    +0.048 A 
ATOM     27  S   UNL     1      -0.649  -1.713  -0.136  0.00  0.00    -0.088 S 
ATOM     28  C   UNL     1       0.896  -2.605  -0.158  0.00  0.00    +0.117 A 
BRANCH  28  29
ATOM     29  C   UNL     1       1.120  -4.000  -0.226  0.00  0.00    +0.347 C 
ATOM     30  O   UNL     1       2.257  -4.434  -0.230  0.00  0.00    -0.244 OA
BRANCH  29  31
ATOM     31  O   UNL     1       0.072  -4.849  -0.288  0.00  0.00    -0.464 OA
ATOM     32  C   UNL     1       0.372  -6.244  -0.355  0.00  0.00    +0.280 C 
ENDBRANCH  29  31
ENDBRANCH  28  29
ENDBRANCH  22  24
ENDBRANCH   3  20
TORSDOF 6
