REMARK  Name = ZINC21165725
REMARK  6 active torsions:
REMARK  status: ('A' for Active; 'I' for Inactive)
REMARK    1  A    between atoms: C_1  and  C_2
REMARK    2  A    between atoms: C_2  and  C_3
REMARK    3  A    between atoms: C_3  and  C_4
REMARK    4  A    between atoms: C_17  and  C_20
REMARK    5  A    between atoms: N_22  and  C_23
REMARK    6  A    between atoms: C_28  and  C_29
REMARK                            x       y       z     vdW  Elec       q    Type
REMARK                         _______ _______ _______ _____ _____    ______ ____
ROOT
ATOM      1  C   UNL     1       3.640 -13.039   0.952  0.00  0.00    +0.049 A 
ATOM      2  C   UNL     1       2.290 -12.786   1.079  0.00  0.00    +0.095 A 
ATOM      3  C   UNL     1       1.830 -11.469   1.080  0.00  0.00    +0.275 A 
ATOM      4  O   UNL     1       0.636 -11.238   1.191  0.00  0.00    -0.266 OA
ATOM      5  N   UNL     1       2.717 -10.438   0.955  0.00  0.00    -0.170 N 
ATOM      6  C   UNL     1       4.035 -10.778   0.834  0.00  0.00    +0.201 A 
ATOM      7  N   UNL     1       4.476 -12.010   0.832  0.00  0.00    -0.226 NA
ATOM      8  S   UNL     1       4.832  -9.193   0.692  0.00  0.00    -0.013 S 
ATOM      9  C   UNL     1       3.367  -8.181   0.811  0.00  0.00    +0.184 A 
ATOM     10  N   UNL     1       2.425  -9.077   0.937  0.00  0.00    -0.139 NA
ATOM     11  N   UNL     1       3.256  -6.802   0.774  0.00  0.00    -0.308 N 
ATOM     12  C   UNL     1       3.882  -6.256  -0.437  0.00  0.00    +0.108 C 
ATOM     13  C   UNL     1       3.869  -4.727  -0.375  0.00  0.00    +0.032 C 
ATOM     14  C   UNL     1       2.423  -4.237  -0.260  0.00  0.00    +0.078 C 
ATOM     15  C   UNL     1       1.778  -4.858   0.982  0.00  0.00    +0.032 C 
ATOM     16  C   UNL     1       1.852  -6.383   0.881  0.00  0.00    +0.108 C 
ENDROOT
BRANCH  14  17
ATOM     17  C   UNL     1       2.408  -2.735  -0.138  0.00  0.00    +0.220 C 
ATOM     18  O   UNL     1       3.451  -2.116  -0.144  0.00  0.00    -0.275 OA
ATOM     19  N   UNL     1       1.236  -2.080  -0.021  0.00  0.00    -0.285 N 
ATOM     20  H   UNL     1       0.297  -2.645   0.076  0.00  0.00    +0.155 HD
BRANCH  19  21
ATOM     21  C   UNL     1       1.213  -0.681  -0.024  0.00  0.00    +0.036 A 
ATOM     22  C   UNL     1       2.236   0.031  -0.638  0.00  0.00    +0.025 A 
ATOM     23  C   UNL     1       2.211   1.411  -0.640  0.00  0.00    +0.022 A 
ATOM     24  C   UNL     1       1.168   2.086  -0.030  0.00  0.00    +0.041 A 
ATOM     25  C   UNL     1       0.147   1.380   0.582  0.00  0.00    +0.025 A 
ATOM     26  C   UNL     1       0.168  -0.001   0.586  0.00  0.00    -0.028 A 
ATOM     27  C   UNL     1      -0.944  -0.769   1.253  0.00  0.00    +0.046 C 
ATOM     28 CL   UNL     1       1.139   3.822  -0.035  0.00  0.00    -0.084 Cl
ENDBRANCH  19  21
ENDBRANCH  14  17
BRANCH   1  29
ATOM     29  C   UNL     1       4.159 -14.453   0.949  0.00  0.00    +0.055 C 
BRANCH  29  31
ATOM     30  C   UNL     1       4.835 -16.375  -0.497  0.00  0.00    +0.004 C 
ATOM     31  C   UNL     1       4.308 -14.939  -0.494  0.00  0.00    +0.003 C 
ENDBRANCH  29  31
ENDBRANCH   1  29
TORSDOF 4
