REMARK  Name = ZINC07219020
REMARK  14 active torsions:
REMARK  status: ('A' for Active; 'I' for Inactive)
REMARK    1  A    between atoms: C_1  and  C_2
REMARK    2  A    between atoms: C_4  and  C_29
REMARK    3  A    between atoms: C_5  and  N_9
REMARK    4  A    between atoms: C_6  and  C_8
REMARK    5  A    between atoms: C_10  and  C_12
REMARK    6  A    between atoms: C_12  and  N_13
REMARK    7  A    between atoms: N_13  and  C_14
REMARK    8  A    between atoms: N_13  and  C_15
REMARK    9  A    between atoms: C_15  and  C_16
REMARK   10  A    between atoms: N_18  and  C_19
REMARK   11  A    between atoms: C_19  and  C_20
REMARK   12  A    between atoms: C_23  and  N_26
REMARK   13  A    between atoms: N_26  and  C_27
REMARK   14  A    between atoms: N_26  and  C_28
REMARK                            x       y       z     vdW  Elec       q    Type
REMARK                         _______ _______ _______ _____ _____    ______ ____
ROOT
ATOM      1  N   UNL     1      -0.170  -6.235   2.098  0.00  0.00    +0.389 N 
ATOM      2  C   UNL     1      -1.207  -5.627   2.941  0.00  0.00    -0.095 C 
ATOM      3  H   UNL     1       0.737  -6.071   2.509  0.00  0.00    -0.081 HD
ENDROOT
BRANCH   1   4
ATOM      4  C   UNL     1      -0.216  -5.636   0.757  0.00  0.00    +0.019 C 
BRANCH   4   6
ATOM      5  N   UNL     1       0.172  -3.418  -0.268  0.00  0.00    -0.287 N 
ATOM      6  C   UNL     1       0.148  -4.176   0.847  0.00  0.00    +0.201 C 
ATOM      7  O   UNL     1       0.418  -3.683   1.921  0.00  0.00    -0.278 OA
ATOM      8  H   UNL     1       0.036  -3.828  -1.136  0.00  0.00    +0.155 HD
BRANCH   5  13
ATOM      9  C   UNL     1       1.074   2.169   0.120  0.00  0.00    +0.044 C 
ATOM     10  C   UNL     1       0.834   0.685   0.017  0.00  0.00    -0.050 A 
ATOM     11  C   UNL     1       1.758  -0.201   0.540  0.00  0.00    +0.008 A 
ATOM     12  C   UNL     1       1.542  -1.562   0.447  0.00  0.00    -0.029 A 
ATOM     13  C   UNL     1       0.394  -2.040  -0.171  0.00  0.00    +0.039 A 
ATOM     14  C   UNL     1      -0.532  -1.148  -0.695  0.00  0.00    -0.029 A 
ATOM     15  C   UNL     1      -0.312   0.212  -0.595  0.00  0.00    +0.008 A 
ATOM     16  C   UNL     1      -1.779  -1.663  -1.368  0.00  0.00    +0.045 C 
ATOM     17  C   UNL     1       2.550  -2.526   1.016  0.00  0.00    +0.045 C 
ENDBRANCH   5  13
ENDBRANCH   4   6
ENDBRANCH   1   4
BRANCH   1  18
ATOM     18  C   UNL     1      -0.406  -7.681   1.996  0.00  0.00    +0.019 C 
BRANCH  18  19
ATOM     19  C   UNL     1      -0.238  -8.315   3.353  0.00  0.00    +0.197 C 
ATOM     20  O   UNL     1       0.051  -7.629   4.311  0.00  0.00    -0.278 OA
ATOM     21  N   UNL     1      -0.408  -9.643   3.503  0.00  0.00    -0.313 N 
ATOM     22  H   UNL     1      -0.639 -10.192   2.737  0.00  0.00    +0.149 HD
BRANCH  21  23
ATOM     23  C   UNL     1      -0.245 -10.259   4.822  0.00  0.00    +0.139 C 
BRANCH  23  24
ATOM     24  C   UNL     1      -0.487 -11.742   4.718  0.00  0.00    -0.030 A 
ATOM     25  C   UNL     1      -1.763 -12.246   4.890  0.00  0.00    +0.007 A 
ATOM     26  C   UNL     1      -1.989 -13.606   4.795  0.00  0.00    +0.023 A 
ATOM     27  C   UNL     1      -0.933 -14.467   4.526  0.00  0.00    +0.029 A 
ATOM     28  C   UNL     1       0.348 -13.957   4.353  0.00  0.00    +0.023 A 
ATOM     29  C   UNL     1       0.566 -12.596   4.444  0.00  0.00    +0.007 A 
BRANCH  27  30
ATOM     30  N   UNL     1      -1.158 -15.842   4.430  0.00  0.00    -0.336 N 
ATOM     31  C   UNL     1      -2.525 -16.366   4.485  0.00  0.00    +0.129 C 
ATOM     32  C   UNL     1      -0.027 -16.760   4.273  0.00  0.00    +0.129 C 
ENDBRANCH  27  30
ENDBRANCH  23  24
ENDBRANCH  21  23
ENDBRANCH  18  19
ENDBRANCH   1  18
TORSDOF 8
