REMARK  Name = ZINC39686170
REMARK  11 active torsions:
REMARK  status: ('A' for Active; 'I' for Inactive)
REMARK    1  A    between atoms: C_1  and  C_2
REMARK    2  A    between atoms: C_2  and  C_3
REMARK    3  A    between atoms: C_2  and  C_4
REMARK    4  A    between atoms: C_4  and  C_5
REMARK    5  A    between atoms: C_10  and  N_13
REMARK    6  A    between atoms: C_14  and  C_16
REMARK    7  A    between atoms: C_27  and  C_29
REMARK    8  A    between atoms: C_31  and  O_37
REMARK    9  A    between atoms: C_33  and  O_35
REMARK   10  A    between atoms: O_35  and  C_36
REMARK   11  A    between atoms: O_37  and  C_38
REMARK                            x       y       z     vdW  Elec       q    Type
REMARK                         _______ _______ _______ _____ _____    ______ ____
ROOT
ATOM      1  C   UNL     1      -6.433  -6.768   2.741  0.00  0.00    +0.100 C 
ATOM      2  C   UNL     1      -5.780  -7.136   4.092  0.00  0.00    +0.121 C 
ATOM      3  N   UNL     1      -6.497  -8.354   4.535  0.00  0.00    -0.296 N 
ATOM      4  C   UNL     1      -6.693  -9.139   3.292  0.00  0.00    +0.115 C 
ATOM      5  C   UNL     1      -7.031  -8.085   2.219  0.00  0.00    -0.004 C 
ATOM      6  C   UNL     1      -6.390  -8.465   0.887  0.00  0.00    -0.010 C 
ATOM      7  C   UNL     1      -7.041  -9.746   0.360  0.00  0.00    -0.082 C 
ATOM      8  N   UNL     1      -8.483  -9.530   0.188  0.00  0.00    +0.379 N 
ATOM      9  C   UNL     1      -9.107  -9.257   1.489  0.00  0.00    -0.082 C 
ATOM     10  C   UNL     1      -8.543  -7.955   2.064  0.00  0.00    -0.010 C 
ATOM     11  C   UNL     1      -6.885  -8.677   5.785  0.00  0.00    +0.247 C 
ATOM     12  O   UNL     1      -6.766  -7.869   6.685  0.00  0.00    -0.270 OA
ATOM     13  H   UNL     1      -8.633  -8.745  -0.427  0.00  0.00    -0.086 HD
ATOM     14  H   UNL     1      -8.900 -10.355  -0.216  0.00  0.00    -0.086 HD
ENDROOT
BRANCH  11  15
ATOM     15  C   UNL     1      -7.454 -10.013   6.061  0.00  0.00    +0.044 A 
ATOM     16  C   UNL     1      -7.207 -11.073   5.188  0.00  0.00    +0.059 A 
ATOM     17  C   UNL     1      -7.742 -12.323   5.451  0.00  0.00    +0.124 A 
ATOM     18  C   UNL     1      -8.522 -12.523   6.580  0.00  0.00    +0.091 A 
ATOM     19  C   UNL     1      -8.770 -11.472   7.452  0.00  0.00    +0.124 A 
ATOM     20  C   UNL     1      -8.234 -10.219   7.199  0.00  0.00    +0.059 A 
BRANCH  19  21
ATOM     21  O   UNL     1      -9.534 -11.672   8.557  0.00  0.00    -0.495 OA
ATOM     22  C   UNL     1     -10.050 -12.990   8.758  0.00  0.00    +0.277 C 
ENDBRANCH  19  21
BRANCH  17  23
ATOM     23  O   UNL     1      -7.502 -13.356   4.600  0.00  0.00    -0.495 OA
ATOM     24  C   UNL     1      -8.085 -14.618   4.932  0.00  0.00    +0.277 C 
ENDBRANCH  17  23
ENDBRANCH  11  15
BRANCH   1  26
ATOM     25  N   UNL     1      -5.740  -5.342   0.842  0.00  0.00    -0.312 N 
ATOM     26  C   UNL     1      -5.396  -6.245   1.781  0.00  0.00    +0.218 C 
ATOM     27  O   UNL     1      -4.250  -6.638   1.854  0.00  0.00    -0.275 OA
ATOM     28  H   UNL     1      -6.656  -5.028   0.783  0.00  0.00    +0.149 HD
BRANCH  25  34
ATOM     29  C   UNL     1      -3.371  -1.623  -2.262  0.00  0.00    +0.216 C 
ATOM     30  O   UNL     1      -2.690  -0.787  -1.708  0.00  0.00    -0.276 OA
ATOM     31  N   UNL     1      -3.538  -2.837  -1.699  0.00  0.00    -0.301 N 
ATOM     32  C   UNL     1      -4.356  -3.862  -2.361  0.00  0.00    +0.109 C 
ATOM     33  C   UNL     1      -5.417  -4.360  -1.375  0.00  0.00    +0.041 C 
ATOM     34  C   UNL     1      -4.731  -4.835  -0.091  0.00  0.00    +0.076 C 
ATOM     35  C   UNL     1      -3.984  -3.664   0.552  0.00  0.00    +0.041 C 
ATOM     36  C   UNL     1      -2.902  -3.160  -0.415  0.00  0.00    +0.109 C 
BRANCH  29  37
ATOM     37  C   UNL     1      -4.030  -1.307  -3.580  0.00  0.00    +0.099 C 
BRANCH  37  39
ATOM     38  C   UNL     1      -4.246   0.405  -5.387  0.00  0.00    +0.008 C 
ATOM     39  C   UNL     1      -3.681   0.125  -3.993  0.00  0.00    -0.008 C 
ATOM     40  C   UNL     1      -4.289   1.107  -2.990  0.00  0.00    +0.008 C 
ENDBRANCH  37  39
ENDBRANCH  29  37
ENDBRANCH  25  34
ENDBRANCH   1  26
TORSDOF 7
