REMARK  Name = ZINC39966389
REMARK  11 active torsions:
REMARK  status: ('A' for Active; 'I' for Inactive)
REMARK    1  A    between atoms: C_1  and  C_2
REMARK    2  A    between atoms: C_2  and  N_3
REMARK    3  A    between atoms: C_4  and  C_24
REMARK    4  A    between atoms: C_7  and  S_8
REMARK    5  A    between atoms: S_8  and  C_9
REMARK    6  A    between atoms: C_9  and  C_10
REMARK    7  A    between atoms: C_15  and  C_23
REMARK    8  A    between atoms: C_16  and  C_18
REMARK    9  A    between atoms: C_18  and  O_20
REMARK   10  A    between atoms: O_20  and  C_21
REMARK   11  A    between atoms: C_21  and  C_22
REMARK                            x       y       z     vdW  Elec       q    Type
REMARK                         _______ _______ _______ _____ _____    ______ ____
ROOT
ATOM      1  N   UNL     1       0.702  -0.332  -1.264  0.00  0.00    -0.302 N 
ATOM      2  C   UNL     1       0.113  -0.840  -2.399  0.00  0.00    +0.166 A 
ATOM      3  N   UNL     1       1.073  -1.335  -3.143  0.00  0.00    -0.128 NA
ATOM      4  N   UNL     1       2.208  -1.175  -2.561  0.00  0.00    -0.122 NA
ATOM      5  C   UNL     1       2.042  -0.562  -1.412  0.00  0.00    +0.192 A 
ENDROOT
BRANCH   2   6
ATOM      6  C   UNL     1      -1.331  -0.830  -2.718  0.00  0.00    +0.030 A 
ATOM      7  C   UNL     1      -2.242  -1.233  -1.787  0.00  0.00    +0.057 A 
ATOM      8  S   UNL     1      -3.782  -1.026  -2.666  0.00  0.00    -0.101 S 
ATOM      9  C   UNL     1      -3.113  -0.416  -4.192  0.00  0.00    -0.006 A 
ATOM     10  C   UNL     1      -1.773  -0.398  -3.985  0.00  0.00    -0.026 A 
ATOM     11  C   UNL     1      -0.792   0.047  -5.066  0.00  0.00    +0.036 C 
ATOM     12  C   UNL     1      -1.476   1.018  -6.022  0.00  0.00    +0.005 C 
ATOM     13  C   UNL     1      -2.136   0.265  -7.176  0.00  0.00    +0.001 C 
ATOM     14  C   UNL     1      -3.229  -0.657  -6.644  0.00  0.00    +0.005 C 
ATOM     15  C   UNL     1      -3.863  -0.003  -5.417  0.00  0.00    +0.043 C 
ENDBRANCH   2   6
BRANCH   1  17
ATOM     16  C   UNL     1      -0.164   1.807  -0.455  0.00  0.00    +0.027 C 
ATOM     17  C   UNL     1       0.035   0.324  -0.137  0.00  0.00    +0.122 C 
ENDBRANCH   1  17
BRANCH   5  18
ATOM     18  S   UNL     1       3.310  -0.122  -0.270  0.00  0.00    -0.077 S 
BRANCH  18  19
ATOM     19  C   UNL     1       4.835  -0.705  -1.062  0.00  0.00    +0.173 C 
BRANCH  19  20
ATOM     20  C   UNL     1       6.013  -0.387  -0.177  0.00  0.00    +0.229 C 
ATOM     21  O   UNL     1       5.841   0.177   0.882  0.00  0.00    -0.275 OA
ATOM     22  N   UNL     1       7.258  -0.729  -0.564  0.00  0.00    -0.264 N 
ATOM     23  C   UNL     1       8.340  -0.437   0.247  0.00  0.00    +0.165 A 
ATOM     24  N   UNL     1       9.617  -0.690   0.029  0.00  0.00    -0.229 NA
ATOM     25  C   UNL     1      10.540  -0.353   0.894  0.00  0.00    +0.062 A 
ATOM     26  C   UNL     1      10.100   0.282   2.048  0.00  0.00    +0.120 A 
ATOM     27  S   UNL     1       8.340   0.332   1.744  0.00  0.00    -0.045 S 
ATOM     28  C   UNL     1      11.999  -0.640   0.652  0.00  0.00    +0.067 C 
ATOM     29  H   UNL     1       7.396  -1.180  -1.412  0.00  0.00    +0.157 HD
BRANCH  26  30
ATOM     30  C   UNL     1      10.864   0.777   3.191  0.00  0.00    +0.348 C 
ATOM     31  O   UNL     1      12.074   0.653   3.213  0.00  0.00    -0.244 OA
BRANCH  30  32
ATOM     32  O   UNL     1      10.228   1.372   4.221  0.00  0.00    -0.461 OA
BRANCH  32  33
ATOM     33  C   UNL     1      11.038   1.832   5.305  0.00  0.00    +0.229 C 
ATOM     34  C   UNL     1      10.148   2.473   6.371  0.00  0.00    +0.048 C 
ENDBRANCH  32  33
ENDBRANCH  30  32
ENDBRANCH  26  30
ENDBRANCH  19  20
ENDBRANCH  18  19
ENDBRANCH   5  18
TORSDOF 8
