REMARK  Name = ZINC35939456
REMARK  8 active torsions:
REMARK  status: ('A' for Active; 'I' for Inactive)
REMARK    1  A    between atoms: C_1  and  C_2
REMARK    2  A    between atoms: C_7  and  N_8
REMARK    3  A    between atoms: C_11  and  C_14
REMARK    4  A    between atoms: N_19  and  C_22
REMARK    5  A    between atoms: C_22  and  C_23
REMARK    6  A    between atoms: N_25  and  C_26
REMARK    7  A    between atoms: C_26  and  C_27
REMARK    8  A    between atoms: C_27  and  C_28
REMARK                            x       y       z     vdW  Elec       q    Type
REMARK                         _______ _______ _______ _____ _____    ______ ____
ROOT
ATOM      1  C   UNL     1      -0.354  -0.542   7.251  0.00  0.00    +0.266 C 
ATOM      2  O   UNL     1      -0.479  -1.311   8.185  0.00  0.00    -0.268 OA
ATOM      3  N   UNL     1      -0.496   0.784   7.447  0.00  0.00    -0.294 N 
ATOM      4  C   UNL     1      -0.430   1.724   6.318  0.00  0.00    +0.123 C 
ATOM      5  C   UNL     1      -1.662   2.634   6.370  0.00  0.00    +0.104 C 
ATOM      6  N   UNL     1      -1.749   3.260   7.696  0.00  0.00    -0.291 NA
ATOM      7  C   UNL     1      -1.940   2.254   8.749  0.00  0.00    +0.104 C 
ATOM      8  C   UNL     1      -0.725   1.328   8.793  0.00  0.00    +0.123 C 
ENDROOT
BRANCH   1  12
ATOM      9  N   UNL     1       0.948   0.032   2.585  0.00  0.00    -0.293 N 
ATOM     10  C   UNL     1       0.575  -0.676   3.716  0.00  0.00    +0.163 A 
ATOM     11  N   UNL     1       0.298  -0.227   4.924  0.00  0.00    -0.220 NA
ATOM     12  C   UNL     1      -0.049  -1.060   5.908  0.00  0.00    +0.135 A 
ATOM     13  C   UNL     1      -0.117  -2.406   5.648  0.00  0.00    +0.081 A 
ATOM     14  S   UNL     1       0.334  -2.435   3.918  0.00  0.00    -0.060 S 
ATOM     15  H   UNL     1       1.003   1.000   2.614  0.00  0.00    +0.154 HD
BRANCH   9  22
ATOM     16  C   UNL     1       0.321   1.295   0.114  0.00  0.00    +0.045 C 
ATOM     17  C   UNL     1       0.957  -0.070   0.173  0.00  0.00    -0.029 A 
ATOM     18  C   UNL     1       1.258  -0.743  -0.995  0.00  0.00    +0.006 A 
ATOM     19  C   UNL     1       1.841  -1.995  -0.943  0.00  0.00    +0.020 A 
ATOM     20  C   UNL     1       2.126  -2.579   0.280  0.00  0.00    +0.043 A 
ATOM     21  C   UNL     1       1.827  -1.911   1.452  0.00  0.00    +0.043 A 
ATOM     22  C   UNL     1       1.246  -0.649   1.401  0.00  0.00    +0.037 A 
ATOM     23 CL   UNL     1       2.858  -4.152   0.340  0.00  0.00    -0.083 Cl
ENDBRANCH   9  22
ENDBRANCH   1  12
BRANCH   6  24
ATOM     24  C   UNL     1      -2.816   4.269   7.732  0.00  0.00    +0.180 C 
BRANCH  24  25
ATOM     25  C   UNL     1      -2.718   5.057   9.013  0.00  0.00    +0.227 C 
ATOM     26  O   UNL     1      -1.845   4.803   9.816  0.00  0.00    -0.274 OA
ATOM     27  N   UNL     1      -3.600   6.045   9.266  0.00  0.00    -0.314 N 
ATOM     28  H   UNL     1      -4.297   6.248   8.624  0.00  0.00    +0.149 HD
BRANCH  27  29
ATOM     29  C   UNL     1      -3.505   6.811  10.511  0.00  0.00    +0.109 C 
BRANCH  29  30
ATOM     30  C   UNL     1      -4.615   7.862  10.550  0.00  0.00    +0.061 C 
BRANCH  30  31
ATOM     31  C   UNL     1      -4.518   8.650  11.830  0.00  0.00    -0.009 A 
ATOM     32  C   UNL     1      -3.829   9.790  12.081  0.00  0.00    +0.011 A 
ATOM     33  C   UNL     1      -3.886  10.344  13.346  0.00  0.00    +0.008 A 
ATOM     34  C   UNL     1      -4.628   9.730  14.299  0.00  0.00    +0.045 A 
ATOM     35  S   UNL     1      -5.285   8.328  13.410  0.00  0.00    -0.102 S 
ENDBRANCH  30  31
ENDBRANCH  29  30
ENDBRANCH  27  29
ENDBRANCH  24  25
ENDBRANCH   6  24
TORSDOF 7
