REMARK  Name = ZINC03232459
REMARK  9 active torsions:
REMARK  status: ('A' for Active; 'I' for Inactive)
REMARK    1  A    between atoms: C_1  and  C_2
REMARK    2  A    between atoms: C_4  and  S_10
REMARK    3  A    between atoms: C_5  and  C_9
REMARK    4  A    between atoms: S_10  and  C_11
REMARK    5  A    between atoms: C_11  and  C_12
REMARK    6  A    between atoms: N_14  and  N_15
REMARK    7  A    between atoms: N_15  and  C_16
REMARK    8  A    between atoms: C_16  and  C_18
REMARK    9  A    between atoms: C_21  and  O_24
REMARK                            x       y       z     vdW  Elec       q    Type
REMARK                         _______ _______ _______ _____ _____    ______ ____
ROOT
ATOM      1  C   UNL     1       3.664  -4.897  -0.058  0.00  0.00    +0.239 C 
ATOM      2  O   UNL     1       4.705  -4.274  -0.065  0.00  0.00    -0.273 OA
ATOM      3  N   UNL     1       2.486  -4.242  -0.044  0.00  0.00    -0.236 N 
ATOM      4  H   UNL     1       1.655  -4.741  -0.038  0.00  0.00    +0.173 HD
ENDROOT
BRANCH   3   5
ATOM      5  N   UNL     1       2.464  -2.842  -0.036  0.00  0.00    -0.264 N 
ATOM      6  H   UNL     1       3.296  -2.343  -0.042  0.00  0.00    +0.170 HD
BRANCH   5   7
ATOM      7  C   UNL     1       1.244  -2.164  -0.021  0.00  0.00    +0.044 C 
ATOM      8  C   UNL     1       0.100  -2.849  -0.013  0.00  0.00    +0.035 C 
BRANCH   7   9
ATOM      9  C   UNL     1       1.220  -0.683  -0.013  0.00  0.00    -0.003 A 
ATOM     10  C   UNL     1       0.002  -0.004   0.002  0.00  0.00    +0.013 A 
ATOM     11  C   UNL     1      -0.017   1.375   0.010  0.00  0.00    +0.046 A 
ATOM     12  C   UNL     1       1.175   2.087   0.002  0.00  0.00    +0.117 A 
ATOM     13  C   UNL     1       2.390   1.414  -0.013  0.00  0.00    +0.046 A 
ATOM     14  C   UNL     1       2.416   0.035  -0.021  0.00  0.00    +0.013 A 
BRANCH  12  15
ATOM     15  O   UNL     1       1.153   3.445   0.010  0.00  0.00    -0.507 OA
ATOM     16  H   UNL     1       1.155   3.833   0.895  0.00  0.00    +0.292 HD
ENDBRANCH  12  15
ENDBRANCH   7   9
ENDBRANCH   5   7
ENDBRANCH   3   5
BRANCH   1  17
ATOM     17  C   UNL     1       3.689  -6.404  -0.066  0.00  0.00    +0.171 C 
BRANCH  17  18
ATOM     18  S   UNL     1       5.409  -6.981  -0.086  0.00  0.00    -0.116 S 
BRANCH  18  22
ATOM     19  C   UNL     1       2.550 -11.363  -0.081  0.00  0.00    +0.045 C 
ATOM     20  C   UNL     1       3.909 -10.713  -0.090  0.00  0.00    -0.035 A 
ATOM     21  C   UNL     1       4.016  -9.336  -0.079  0.00  0.00    +0.019 A 
ATOM     22  C   UNL     1       5.269  -8.737  -0.093  0.00  0.00    +0.012 A 
ATOM     23  C   UNL     1       6.413  -9.527  -0.109  0.00  0.00    -0.036 A 
ATOM     24  C   UNL     1       6.300 -10.903  -0.115  0.00  0.00    +0.020 A 
ATOM     25  C   UNL     1       5.050 -11.496  -0.105  0.00  0.00    +0.021 A 
ATOM     26 BR   UNL     1       4.900 -13.381  -0.113  0.00  0.00    -0.050 Br
ATOM     27  C   UNL     1       7.775  -8.881  -0.119  0.00  0.00    +0.045 C 
ENDBRANCH  18  22
ENDBRANCH  17  18
ENDBRANCH   1  17
TORSDOF 7
