REMARK  Name = ZINC00687092
REMARK  7 active torsions:
REMARK  status: ('A' for Active; 'I' for Inactive)
REMARK    1  A    between atoms: C_1  and  C_2
REMARK    2  A    between atoms: C_2  and  C_4
REMARK    3  A    between atoms: C_2  and  N_16
REMARK    4  A    between atoms: N_6  and  N_7
REMARK    5  A    between atoms: C_8  and  C_9
REMARK    6  A    between atoms: C_14  and  O_15
REMARK    7  A    between atoms: N_16  and  C_17
REMARK                            x       y       z     vdW  Elec       q    Type
REMARK                         _______ _______ _______ _____ _____    ______ ____
ROOT
ATOM      1  C   UNL     1       3.579   7.298   0.007  0.00  0.00    +0.252 C 
ATOM      2  O   UNL     1       2.518   7.888   0.019  0.00  0.00    -0.272 OA
ATOM      3  N   UNL     1       3.601   5.951  -0.000  0.00  0.00    -0.205 N 
ATOM      4  H   UNL     1       4.448   5.479  -0.010  0.00  0.00    +0.177 HD
ENDROOT
BRANCH   1   6
ATOM      5  C   UNL     1       5.691   7.710   1.239  0.00  0.00    +0.038 C 
ATOM      6  C   UNL     1       4.871   8.073  -0.001  0.00  0.00    +0.155 C 
BRANCH   6   7
ATOM      7  N   UNL     1       4.580   9.509   0.009  0.00  0.00    -0.333 N 
ATOM      8  H   UNL     1       3.741   9.831   0.373  0.00  0.00    +0.147 HD
BRANCH   7   9
ATOM      9  C   UNL     1       5.512  10.414  -0.506  0.00  0.00    +0.028 A 
ATOM     10  C   UNL     1       6.716   9.954  -1.023  0.00  0.00    +0.024 A 
ATOM     11  C   UNL     1       7.633  10.851  -1.536  0.00  0.00    +0.017 A 
ATOM     12  C   UNL     1       7.357  12.207  -1.526  0.00  0.00    +0.018 A 
ATOM     13  C   UNL     1       6.160  12.668  -1.007  0.00  0.00    +0.017 A 
ATOM     14  C   UNL     1       5.237  11.775  -0.498  0.00  0.00    +0.024 A 
ATOM     15 BR   UNL     1       8.617  13.432  -2.223  0.00  0.00    -0.050 Br
ENDBRANCH   7   9
ENDBRANCH   6   7
ENDBRANCH   1   6
BRANCH   3  16
ATOM     16  N   UNL     1       2.399   5.231   0.007  0.00  0.00    -0.188 NA
ATOM     17  C   UNL     1       2.420   3.933   0.000  0.00  0.00    +0.142 C 
BRANCH  17  18
ATOM     18  C   UNL     1       1.156   3.175   0.008  0.00  0.00    +0.036 A 
ATOM     19  C   UNL     1       1.174   1.779   0.000  0.00  0.00    +0.013 A 
ATOM     20  C   UNL     1      -0.013   1.076   0.008  0.00  0.00    +0.001 A 
ATOM     21  C   UNL     1      -1.222   1.749   0.017  0.00  0.00    +0.004 A 
ATOM     22  C   UNL     1      -1.254   3.130   0.030  0.00  0.00    +0.046 A 
ATOM     23  C   UNL     1      -0.071   3.852   0.022  0.00  0.00    +0.125 A 
BRANCH  23  24
ATOM     24  O   UNL     1      -0.101   5.210   0.030  0.00  0.00    -0.506 OA
ATOM     25  H   UNL     1      -0.118   5.608  -0.851  0.00  0.00    +0.292 HD
ENDBRANCH  23  24
ENDBRANCH  17  18
ENDBRANCH   3  16
TORSDOF 6
