REMARK  Name = ZINC05790067
REMARK  12 active torsions:
REMARK  status: ('A' for Active; 'I' for Inactive)
REMARK    1  A    between atoms: C_1  and  C_2
REMARK    2  A    between atoms: C_2  and  O_3
REMARK    3  A    between atoms: O_3  and  C_4
REMARK    4  A    between atoms: C_7  and  C_10
REMARK    5  A    between atoms: C_13  and  C_25
REMARK    6  A    between atoms: N_20  and  C_21
REMARK    7  A    between atoms: C_21  and  C_22
REMARK    8  A    between atoms: C_22  and  C_23
REMARK    9  A    between atoms: C_23  and  O_24
REMARK   10  A    between atoms: C_27  and  C_33
REMARK   11  A    between atoms: C_29  and  C_32
REMARK   12  A    between atoms: C_30  and  O_31
REMARK                            x       y       z     vdW  Elec       q    Type
REMARK                         _______ _______ _______ _____ _____    ______ ____
ROOT
ATOM      1  C   UNL     1       1.391  -5.626   1.873  0.00  0.00    +0.141 C 
ATOM      2  C   UNL     1       2.591  -6.341   1.315  0.00  0.00    +0.035 A 
ATOM      3  C   UNL     1       3.373  -6.634   0.193  0.00  0.00    +0.102 A 
ATOM      4  N   UNL     1       4.357  -7.416   0.591  0.00  0.00    -0.173 NA
ATOM      5  N   UNL     1       4.274  -7.646   1.853  0.00  0.00    -0.272 N 
ATOM      6  H   UNL     1       4.892  -8.194   2.361  0.00  0.00    +0.189 HD
ATOM      7  C   UNL     1       3.188  -7.001   2.372  0.00  0.00    +0.126 A 
ATOM      8  C   UNL     1       2.411  -6.733   3.588  0.00  0.00    +0.265 C 
ATOM      9  O   UNL     1       2.675  -7.170   4.691  0.00  0.00    -0.268 OA
ATOM     10  N   UNL     1       1.363  -5.934   3.308  0.00  0.00    -0.285 N 
ENDROOT
BRANCH   3  11
ATOM     11  C   UNL     1       3.138  -6.154  -1.192  0.00  0.00    +0.044 A 
ATOM     12  C   UNL     1       1.987  -5.430  -1.495  0.00  0.00    +0.017 A 
ATOM     13  C   UNL     1       1.773  -4.986  -2.784  0.00  0.00    -0.049 A 
ATOM     14  C   UNL     1       2.698  -5.256  -3.777  0.00  0.00    +0.010 A 
ATOM     15  C   UNL     1       3.843  -5.974  -3.487  0.00  0.00    -0.008 A 
ATOM     16  C   UNL     1       4.073  -6.421  -2.196  0.00  0.00    +0.129 A 
ATOM     17  C   UNL     1       4.845  -6.265  -4.574  0.00  0.00    +0.047 C 
ATOM     18  C   UNL     1       0.527  -4.203  -3.111  0.00  0.00    +0.044 C 
BRANCH  16  19
ATOM     19  O   UNL     1       5.202  -7.120  -1.907  0.00  0.00    -0.506 OA
ATOM     20  H   UNL     1       5.109  -8.077  -2.014  0.00  0.00    +0.292 HD
ENDBRANCH  16  19
ENDBRANCH   3  11
BRANCH   1  24
ATOM     21  C   UNL     1       1.785  -1.412   1.281  0.00  0.00    +0.121 A 
ATOM     22  C   UNL     1       2.620  -2.069   2.173  0.00  0.00    +0.046 A 
ATOM     23  C   UNL     1       2.490  -3.432   2.363  0.00  0.00    +0.009 A 
ATOM     24  C   UNL     1       1.530  -4.140   1.664  0.00  0.00    -0.022 A 
ATOM     25  C   UNL     1       0.697  -3.487   0.774  0.00  0.00    +0.009 A 
ATOM     26  C   UNL     1       0.818  -2.124   0.586  0.00  0.00    +0.046 A 
BRANCH  21  27
ATOM     27  O   UNL     1       1.910  -0.072   1.093  0.00  0.00    -0.492 OA
BRANCH  27  29
ATOM     28  C   UNL     1       2.916   2.088   1.501  0.00  0.00    +0.048 C 
ATOM     29  C   UNL     1       2.927   0.596   1.843  0.00  0.00    +0.225 C 
ENDBRANCH  27  29
ENDBRANCH  21  27
ENDBRANCH   1  24
BRANCH  10  30
ATOM     30  C   UNL     1       0.367  -5.455   4.270  0.00  0.00    +0.111 C 
BRANCH  30  31
ATOM     31  C   UNL     1      -0.795  -6.449   4.339  0.00  0.00    +0.047 C 
BRANCH  31  32
ATOM     32  C   UNL     1      -1.835  -5.948   5.343  0.00  0.00    +0.157 C 
BRANCH  32  33
ATOM     33  O   UNL     1      -2.920  -6.876   5.408  0.00  0.00    -0.395 OA
ATOM     34  H   UNL     1      -3.618  -6.622   6.026  0.00  0.00    +0.209 HD
ENDBRANCH  32  33
ENDBRANCH  31  32
ENDBRANCH  30  31
ENDBRANCH  10  30
TORSDOF 9
