REMARK  Name = ZINC09897225
REMARK  7 active torsions:
REMARK  status: ('A' for Active; 'I' for Inactive)
REMARK    1  A    between atoms: C_4  and  C_7
REMARK    2  A    between atoms: C_7  and  C_8
REMARK    3  A    between atoms: C_11  and  S_19
REMARK    4  A    between atoms: N_12  and  C_13
REMARK    5  A    between atoms: S_19  and  C_20
REMARK    6  A    between atoms: C_20  and  C_21
REMARK    7  A    between atoms: N_23  and  C_24
REMARK                            x       y       z     vdW  Elec       q    Type
REMARK                         _______ _______ _______ _____ _____    ______ ____
ROOT
ATOM      1  C   UNL     1      -2.893   0.738   1.459  0.00  0.00    +0.143 A 
ATOM      2  N   UNL     1      -3.651   1.503   2.193  0.00  0.00    -0.133 NA
ATOM      3  N   UNL     1      -3.824   0.974   3.352  0.00  0.00    -0.122 NA
ATOM      4  C   UNL     1      -3.180  -0.169   3.422  0.00  0.00    +0.197 A 
ATOM      5  N   UNL     1      -2.569  -0.359   2.213  0.00  0.00    -0.274 N 
ENDROOT
BRANCH   5   6
ATOM      6  C   UNL     1      -1.775  -1.448   1.826  0.00  0.00    +0.050 A 
ATOM      7  C   UNL     1      -2.202  -2.295   0.813  0.00  0.00    +0.026 A 
ATOM      8  C   UNL     1      -1.415  -3.364   0.430  0.00  0.00    +0.002 A 
ATOM      9  C   UNL     1      -0.208  -3.597   1.064  0.00  0.00    +0.000 A 
ATOM     10  C   UNL     1       0.217  -2.758   2.077  0.00  0.00    +0.002 A 
ATOM     11  C   UNL     1      -0.563  -1.684   2.460  0.00  0.00    +0.026 A 
ENDBRANCH   5   6
BRANCH   1  12
ATOM     12  C   UNL     1      -2.459   1.008   0.041  0.00  0.00    +0.111 C 
BRANCH  12  16
ATOM     13  C   UNL     1       1.216   3.185   0.061  0.00  0.00    +0.000 A 
ATOM     14  C   UNL     1       1.232   1.803   0.048  0.00  0.00    +0.000 A 
ATOM     15  C   UNL     1       0.042   1.098   0.046  0.00  0.00    +0.004 A 
ATOM     16  C   UNL     1      -1.162   1.776   0.051  0.00  0.00    -0.040 A 
ATOM     17  C   UNL     1      -1.178   3.158   0.069  0.00  0.00    +0.004 A 
ATOM     18  C   UNL     1       0.011   3.863   0.071  0.00  0.00    +0.000 A 
ENDBRANCH  12  16
ENDBRANCH   1  12
BRANCH   4  19
ATOM     19  S   UNL     1      -3.121  -1.255   4.808  0.00  0.00    -0.076 S 
BRANCH  19  20
ATOM     20  C   UNL     1      -4.153  -0.332   5.974  0.00  0.00    +0.173 C 
BRANCH  20  21
ATOM     21  C   UNL     1      -4.248  -1.093   7.272  0.00  0.00    +0.228 C 
ATOM     22  O   UNL     1      -3.674  -2.155   7.396  0.00  0.00    -0.275 OA
ATOM     23  N   UNL     1      -4.970  -0.594   8.294  0.00  0.00    -0.284 N 
ATOM     24  H   UNL     1      -5.375   0.284   8.219  0.00  0.00    +0.155 HD
BRANCH  23  25
ATOM     25  C   UNL     1      -5.136  -1.344   9.466  0.00  0.00    +0.056 A 
ATOM     26  C   UNL     1      -4.110  -2.161   9.920  0.00  0.00    +0.074 A 
ATOM     27  C   UNL     1      -4.274  -2.902  11.079  0.00  0.00    +0.164 A 
ATOM     28  C   UNL     1      -5.467  -2.826  11.788  0.00  0.00    +0.164 A 
ATOM     29  C   UNL     1      -6.492  -2.010  11.332  0.00  0.00    +0.071 A 
ATOM     30  C   UNL     1      -6.326  -1.267  10.178  0.00  0.00    +0.066 A 
ATOM     31 CL   UNL     1      -7.609  -0.241   9.616  0.00  0.00    -0.082 Cl
ATOM     32  O   UNL     1      -5.645  -3.544  12.932  0.00  0.00    -0.485 OA
ATOM     33  C   UNL     1      -4.744  -4.633  13.154  0.00  0.00    +0.270 C 
ATOM     34  C   UNL     1      -3.318  -4.142  12.870  0.00  0.00    +0.270 C 
ATOM     35  O   UNL     1      -3.259  -3.701  11.509  0.00  0.00    -0.485 OA
ENDBRANCH  23  25
ENDBRANCH  20  21
ENDBRANCH  19  20
ENDBRANCH   4  19
TORSDOF 7
