REMARK  Name = ZINC02924741
REMARK  5 active torsions:
REMARK  status: ('A' for Active; 'I' for Inactive)
REMARK    1  A    between atoms: C_5  and  N_8
REMARK    2  A    between atoms: C_9  and  C_11
REMARK    3  A    between atoms: C_11  and  N_12
REMARK    4  A    between atoms: C_13  and  C_15
REMARK    5  A    between atoms: C_15  and  N_16
REMARK                            x       y       z     vdW  Elec       q    Type
REMARK                         _______ _______ _______ _____ _____    ______ ____
ROOT
ATOM      1  N   UNL     1      -1.075  -4.792   0.943  0.00  0.00    -0.305 N 
ATOM      2  C   UNL     1      -1.254  -6.117   1.105  0.00  0.00    +0.233 C 
ATOM      3  O   UNL     1      -0.346  -6.886   0.870  0.00  0.00    -0.274 OA
ATOM      4  H   UNL     1      -1.801  -4.177   1.130  0.00  0.00    +0.149 HD
ENDROOT
BRANCH   1   5
ATOM      5  C   UNL     1       0.218  -4.279   0.482  0.00  0.00    +0.200 C 
BRANCH   5   7
ATOM      6  N   UNL     1       1.239  -2.083  -0.022  0.00  0.00    -0.281 N 
ATOM      7  C   UNL     1       0.157  -2.776   0.384  0.00  0.00    +0.234 C 
ATOM      8  O   UNL     1      -0.866  -2.191   0.670  0.00  0.00    -0.274 OA
ATOM      9  H   UNL     1       2.033  -2.554  -0.319  0.00  0.00    +0.155 HD
BRANCH   6  14
ATOM     10  C   UNL     1       0.673   1.394  -1.094  0.00  0.00    +0.078 A 
ATOM     11  C   UNL     1       1.171   2.088  -0.004  0.00  0.00    +0.127 A 
ATOM     12  C   UNL     1       1.691   1.400   1.079  0.00  0.00    +0.055 A 
ATOM     13  C   UNL     1       1.714   0.018   1.075  0.00  0.00    +0.045 A 
ATOM     14  C   UNL     1       1.216  -0.681  -0.016  0.00  0.00    +0.083 A 
ATOM     15  C   UNL     1       0.694   0.012  -1.103  0.00  0.00    +0.148 A 
ATOM     16  F   UNL     1       0.208  -0.665  -2.166  0.00  0.00    -0.203 F 
ATOM     17 BR   UNL     1       2.426  -0.921   2.555  0.00  0.00    -0.048 Br
ATOM     18  F   UNL     1       1.150   3.439   0.003  0.00  0.00    -0.205 F 
ENDBRANCH   6  14
ENDBRANCH   5   7
ENDBRANCH   1   5
BRANCH   2  19
ATOM     19  C   UNL     1      -2.584  -6.645   1.579  0.00  0.00    +0.221 C 
BRANCH  19  20
ATOM     20  N   UNL     1      -2.525  -8.105   1.674  0.00  0.00    -0.290 N 
ATOM     21  C   UNL     1      -2.857  -8.857   0.593  0.00  0.00    +0.203 A 
ATOM     22  N   UNL     1      -2.817 -10.162   0.638  0.00  0.00    -0.230 NA
ATOM     23  C   UNL     1      -2.447 -10.796   1.747  0.00  0.00    +0.116 A 
ATOM     24  C   UNL     1      -2.085 -10.105   2.914  0.00  0.00    +0.076 A 
ATOM     25  C   UNL     1      -2.136  -8.675   2.830  0.00  0.00    +0.263 A 
ATOM     26  O   UNL     1      -1.836  -7.987   3.790  0.00  0.00    -0.267 OA
ATOM     27  C   UNL     1      -1.703 -10.935   4.056  0.00  0.00    -0.023 A 
ATOM     28  C   UNL     1      -1.734 -12.273   3.879  0.00  0.00    -0.004 A 
ATOM     29  S   UNL     1      -2.267 -12.502   2.204  0.00  0.00    -0.073 S 
ATOM     30  C   UNL     1      -1.390 -13.329   4.884  0.00  0.00    +0.043 C 
ATOM     31  C   UNL     1      -0.637 -12.666   6.046  0.00  0.00    +0.005 C 
ATOM     32  C   UNL     1      -1.403 -11.412   6.476  0.00  0.00    +0.005 C 
ATOM     33  C   UNL     1      -1.285 -10.336   5.396  0.00  0.00    +0.037 C 
ENDBRANCH  19  20
ENDBRANCH   2  19
TORSDOF 5
