REMARK  Name = ZINC33033931
REMARK  9 active torsions:
REMARK  status: ('A' for Active; 'I' for Inactive)
REMARK    1  A    between atoms: C_1  and  C_2
REMARK    2  A    between atoms: C_2  and  C_3
REMARK    3  A    between atoms: C_3  and  C_5
REMARK    4  A    between atoms: C_3  and  N_6
REMARK    5  A    between atoms: C_7  and  C_9
REMARK    6  A    between atoms: C_12  and  N_26
REMARK    7  A    between atoms: C_13  and  N_15
REMARK    8  A    between atoms: N_15  and  S_16
REMARK    9  A    between atoms: S_16  and  C_19
REMARK                            x       y       z     vdW  Elec       q    Type
REMARK                         _______ _______ _______ _____ _____    ______ ____
ROOT
ATOM      1  C   UNL     1       0.674   1.092   4.807  0.00  0.00    +0.039 A 
ATOM      2  C   UNL     1       2.047   1.000   5.051  0.00  0.00    +0.015 A 
ATOM      3  C   UNL     1       2.502   0.598   6.287  0.00  0.00    +0.026 A 
ATOM      4  C   UNL     1       1.599   0.273   7.292  0.00  0.00    +0.052 A 
ATOM      5  C   UNL     1       0.225   0.357   7.053  0.00  0.00    +0.070 A 
ATOM      6  C   UNL     1      -0.237   0.765   5.816  0.00  0.00    +0.039 A 
ENDROOT
BRANCH   4   7
ATOM      7  N   UNL     1       2.064  -0.138   8.540  0.00  0.00    -0.332 N 
ATOM      8  C   UNL     1       3.511  -0.396   8.504  0.00  0.00    +0.086 C 
ATOM      9  C   UNL     1       3.967  -0.920   9.867  0.00  0.00    -0.063 C 
ATOM     10  N   UNL     1       3.637   0.068  10.904  0.00  0.00    +0.381 N 
ATOM     11  C   UNL     1       2.191   0.326  10.940  0.00  0.00    -0.063 C 
ATOM     12  C   UNL     1       1.734   0.850   9.576  0.00  0.00    +0.086 C 
ATOM     13  H   UNL     1       3.953  -0.312  11.887  0.00  0.00    -0.086 HD
ATOM     14  H   UNL     1       4.159   1.012  10.691  0.00  0.00    -0.086 HD
ENDBRANCH   4   7
BRANCH   1  16
ATOM     15  N   UNL     1       1.065   1.843   2.513  0.00  0.00    -0.309 N 
ATOM     16  C   UNL     1       0.186   1.528   3.485  0.00  0.00    +0.244 C 
ATOM     17  O   UNL     1      -1.008   1.603   3.272  0.00  0.00    -0.270 OA
ATOM     18  H   UNL     1       2.146   1.775   2.705  0.00  0.00    +0.149 HD
BRANCH  15  19
ATOM     19  C   UNL     1       0.581   2.276   1.199  0.00  0.00    +0.070 C 
ATOM     20  C   UNL     1       0.300   3.780   1.230  0.00  0.00    +0.028 C 
BRANCH  19  22
ATOM     21  C   UNL     1       1.835   0.464   0.022  0.00  0.00    +0.005 C 
ATOM     22  C   UNL     1       1.644   1.977   0.140  0.00  0.00    +0.018 C 
ENDBRANCH  19  22
ENDBRANCH  15  19
ENDBRANCH   1  16
BRANCH   5  23
ATOM     23  N   UNL     1      -0.684   0.029   8.067  0.00  0.00    -0.214 N 
ATOM     24  H   UNL     1      -0.951   0.775   8.829  0.00  0.00    +0.174 HD
BRANCH  23  25
ATOM     25  S   UNL     1      -1.358  -1.483   8.117  0.00  0.00    +0.072 S 
ATOM     26  O   UNL     1      -2.206  -1.512   9.257  0.00  0.00    -0.150 OA
ATOM     27  O   UNL     1      -1.833  -1.760   6.807  0.00  0.00    -0.150 OA
BRANCH  25  28
ATOM     28  C   UNL     1      -0.053  -2.625   8.431  0.00  0.00    +0.109 A 
ATOM     29  C   UNL     1       0.634  -3.196   7.376  0.00  0.00    +0.030 A 
ATOM     30  C   UNL     1       1.661  -4.087   7.622  0.00  0.00    +0.022 A 
ATOM     31  C   UNL     1       1.994  -4.416   8.924  0.00  0.00    +0.041 A 
ATOM     32  C   UNL     1       1.302  -3.849   9.979  0.00  0.00    +0.022 A 
ATOM     33  C   UNL     1       0.279  -2.953   9.732  0.00  0.00    +0.030 A 
ATOM     34 CL   UNL     1       3.280  -5.541   9.233  0.00  0.00    -0.084 Cl
ENDBRANCH  25  28
ENDBRANCH  23  25
ENDBRANCH   5  23
TORSDOF 7
