REMARK  Name = ZINC12497523
REMARK  9 active torsions:
REMARK  status: ('A' for Active; 'I' for Inactive)
REMARK    1  A    between atoms: C_1  and  O_2
REMARK    2  A    between atoms: O_2  and  C_3
REMARK    3  A    between atoms: C_5  and  C_10
REMARK    4  A    between atoms: C_8  and  O_9
REMARK    5  A    between atoms: N_18  and  C_21
REMARK    6  A    between atoms: C_28  and  C_29
REMARK    7  A    between atoms: C_28  and  C_35
REMARK    8  A    between atoms: C_35  and  O_37
REMARK    9  A    between atoms: O_37  and  C_38
REMARK                            x       y       z     vdW  Elec       q    Type
REMARK                         _______ _______ _______ _____ _____    ______ ____
ROOT
ATOM      1  C   UNL     1       1.312  -2.111  -0.240  0.00  0.00    -0.026 C 
ATOM      2  C   UNL     1       1.529  -2.515   1.199  0.00  0.00    +0.078 C 
ATOM      3  C   UNL     1       1.857  -4.040   0.948  0.00  0.00    +0.090 C 
ATOM      4  C   UNL     1       1.866  -4.516   2.329  0.00  0.00    +0.230 C 
ATOM      5  O   UNL     1       2.585  -5.363   2.814  0.00  0.00    -0.275 OA
ATOM      6  N   UNL     1       0.884  -3.792   2.958  0.00  0.00    -0.207 N 
ATOM      7  C   UNL     1       0.479  -2.708   2.224  0.00  0.00    +0.229 C 
ATOM      8  O   UNL     1      -0.525  -2.046   2.382  0.00  0.00    -0.275 OA
ATOM      9  C   UNL     1       2.892  -3.940  -0.111  0.00  0.00    +0.070 C 
ATOM     10  N   UNL     1       2.470  -2.764  -0.924  0.00  0.00    +0.398 N 
ATOM     11  H   UNL     1       3.247  -2.098  -1.001  0.00  0.00    -0.083 HD
ATOM     12  H   UNL     1       2.189  -3.073  -1.862  0.00  0.00    -0.083 HD
ENDROOT
BRANCH   6  13
ATOM     13  C   UNL     1       0.353  -4.125   4.213  0.00  0.00    +0.079 A 
ATOM     14  C   UNL     1      -0.752  -4.960   4.301  0.00  0.00    +0.027 A 
ATOM     15  C   UNL     1      -1.269  -5.291   5.539  0.00  0.00    +0.002 A 
ATOM     16  C   UNL     1      -0.695  -4.783   6.689  0.00  0.00    +0.003 A 
ATOM     17  C   UNL     1       0.403  -3.946   6.606  0.00  0.00    +0.040 A 
ATOM     18  C   UNL     1       0.929  -3.615   5.370  0.00  0.00    +0.145 A 
ATOM     19  F   UNL     1       2.001  -2.797   5.289  0.00  0.00    -0.204 F 
ENDBRANCH   6  13
BRANCH   1  22
ATOM     20  C   UNL     1       0.242   1.494  -0.608  0.00  0.00    +0.161 A 
ATOM     21  C   UNL     1       0.194   0.116  -0.470  0.00  0.00    +0.051 A 
ATOM     22  C   UNL     1       1.367  -0.612  -0.390  0.00  0.00    -0.057 A 
ATOM     23  C   UNL     1       2.589   0.032  -0.447  0.00  0.00    +0.006 A 
ATOM     24  C   UNL     1       2.644   1.406  -0.584  0.00  0.00    +0.049 A 
ATOM     25  C   UNL     1       1.472   2.142  -0.665  0.00  0.00    +0.158 A 
BRANCH  20  27
ATOM     26  C   UNL     1      -2.136   1.478  -0.633  0.00  0.00    +0.277 C 
ATOM     27  O   UNL     1      -0.910   2.211  -0.693  0.00  0.00    -0.491 OA
ENDBRANCH  20  27
BRANCH  25  28
ATOM     28  O   UNL     1       1.525   3.494  -0.800  0.00  0.00    -0.503 OA
ATOM     29  H   UNL     1       1.534   3.973   0.040  0.00  0.00    +0.292 HD
ENDBRANCH  25  28
ENDBRANCH   1  22
BRANCH   9  30
ATOM     30  C   UNL     1       4.249  -3.704   0.501  0.00  0.00    -0.047 A 
ATOM     31  C   UNL     1       4.950  -2.550   0.204  0.00  0.00    +0.003 A 
ATOM     32  C   UNL     1       6.192  -2.332   0.770  0.00  0.00    +0.000 A 
ATOM     33  C   UNL     1       6.739  -3.272   1.623  0.00  0.00    +0.000 A 
ATOM     34  C   UNL     1       6.040  -4.429   1.915  0.00  0.00    +0.000 A 
ATOM     35  C   UNL     1       4.796  -4.645   1.354  0.00  0.00    +0.003 A 
ENDBRANCH   9  30
BRANCH   9  36
ATOM     36  C   UNL     1       2.906  -5.190  -0.952  0.00  0.00    +0.301 C 
ATOM     37  O   UNL     1       2.506  -6.233  -0.491  0.00  0.00    -0.252 OA
BRANCH  36  38
ATOM     38  O   UNL     1       3.363  -5.146  -2.214  0.00  0.00    -0.469 OA
ATOM     39  C   UNL     1       3.347  -6.388  -2.965  0.00  0.00    +0.280 C 
ENDBRANCH  36  38
ENDBRANCH   9  36
TORSDOF 7
