REMARK  Name = ZINC66810519
REMARK  8 active torsions:
REMARK  status: ('A' for Active; 'I' for Inactive)
REMARK    1  A    between atoms: C_1  and  C_2
REMARK    2  A    between atoms: C_6  and  O_8
REMARK    3  A    between atoms: O_8  and  C_9
REMARK    4  A    between atoms: C_9  and  C_10
REMARK    5  A    between atoms: C_10  and  C_12
REMARK    6  A    between atoms: C_10  and  O_29
REMARK    7  A    between atoms: C_12  and  N_13
REMARK    8  A    between atoms: C_18  and  C_20
REMARK                            x       y       z     vdW  Elec       q    Type
REMARK                         _______ _______ _______ _____ _____    ______ ____
ROOT
ATOM      1  N   UNL     1      -0.130  -6.881   4.945  0.00  0.00    -0.326 N 
ATOM      2  C   UNL     1      -0.237  -8.251   5.119  0.00  0.00    +0.126 A 
ATOM      3  C   UNL     1      -0.345  -8.797   6.401  0.00  0.00    +0.014 A 
ATOM      4  C   UNL     1      -0.450 -10.167   6.530  0.00  0.00    +0.050 A 
ATOM      5  N   UNL     1      -0.446 -10.921   5.439  0.00  0.00    -0.232 NA
ATOM      6  C   UNL     1      -0.343 -10.377   4.236  0.00  0.00    +0.162 A 
ATOM      7  N   UNL     1      -0.245  -9.066   4.070  0.00  0.00    -0.213 NA
ATOM      8  C   UNL     1      -0.555 -10.536   7.993  0.00  0.00    +0.056 C 
ATOM      9  C   UNL     1      -0.068  -9.288   8.760  0.00  0.00    +0.011 C 
ATOM     10  C   UNL     1      -0.371  -8.147   7.764  0.00  0.00    +0.041 C 
ATOM     11  H   UNL     1      -0.125  -6.293   5.716  0.00  0.00    +0.148 HD
ENDROOT
BRANCH   6  12
ATOM     12  C   UNL     1      -0.343 -11.259   3.042  0.00  0.00    +0.022 A 
ATOM     13  C   UNL     1      -0.455 -12.646   3.174  0.00  0.00    +0.031 A 
ATOM     14  C   UNL     1      -0.450 -13.429   2.037  0.00  0.00    +0.111 A 
ATOM     15  N   UNL     1      -0.342 -12.885   0.840  0.00  0.00    -0.263 NA
ATOM     16  C   UNL     1      -0.234 -11.582   0.672  0.00  0.00    +0.111 A 
ATOM     17  C   UNL     1      -0.236 -10.725   1.755  0.00  0.00    +0.031 A 
ENDBRANCH   6  12
BRANCH   1  18
ATOM     18  C   UNL     1      -0.023  -6.320   3.595  0.00  0.00    +0.137 C 
BRANCH  18  19
ATOM     19  C   UNL     1       0.083  -4.796   3.683  0.00  0.00    +0.169 C 
BRANCH  19  20
ATOM     20  O   UNL     1       1.302  -4.441   4.338  0.00  0.00    -0.387 OA
ATOM     21  H   UNL     1       2.097  -4.756   3.887  0.00  0.00    +0.210 HD
ENDBRANCH  19  20
BRANCH  19  22
ATOM     22  C   UNL     1       0.069  -4.202   2.274  0.00  0.00    +0.261 C 
BRANCH  22  23
ATOM     23  O   UNL     1       0.050  -2.776   2.358  0.00  0.00    -0.489 OA
BRANCH  23  29
ATOM     24  C   UNL     1      -0.018   1.503   0.010  0.00  0.00    +0.044 C 
ATOM     25  C   UNL     1       0.002  -0.004   0.002  0.00  0.00    -0.047 A 
ATOM     26  C   UNL     1       0.006  -0.688  -1.200  0.00  0.00    +0.003 A 
ATOM     27  C   UNL     1       0.024  -2.071  -1.211  0.00  0.00    +0.004 A 
ATOM     28  C   UNL     1       0.039  -2.772  -0.020  0.00  0.00    +0.045 A 
ATOM     29  C   UNL     1       0.035  -2.088   1.186  0.00  0.00    +0.121 A 
ATOM     30  C   UNL     1       0.023  -0.700   1.195  0.00  0.00    +0.049 A 
ENDBRANCH  23  29
ENDBRANCH  22  23
ENDBRANCH  19  22
ENDBRANCH  18  19
ENDBRANCH   1  18
TORSDOF 7
