REMARK  Name = ZINC67299151
REMARK  6 active torsions:
REMARK  status: ('A' for Active; 'I' for Inactive)
REMARK    1  A    between atoms: C_1  and  C_2
REMARK    2  A    between atoms: C_7  and  N_8
REMARK    3  A    between atoms: C_10  and  C_20
REMARK    4  A    between atoms: C_15  and  O_19
REMARK    5  A    between atoms: N_22  and  C_23
REMARK    6  A    between atoms: C_23  and  C_24
REMARK                            x       y       z     vdW  Elec       q    Type
REMARK                         _______ _______ _______ _____ _____    ______ ____
ROOT
ATOM      1  N   UNL     1      -0.033  -0.013   2.392  0.00  0.00    -0.325 N 
ATOM      2  C   UNL     1      -0.093  -0.689   3.519  0.00  0.00    +0.212 A 
ATOM      3  C   UNL     1      -0.179   0.002   4.820  0.00  0.00    +0.097 A 
ATOM      4  C   UNL     1      -0.763  -0.689   5.872  0.00  0.00    +0.030 A 
ATOM      5  C   UNL     1      -1.207  -2.016   5.638  0.00  0.00    +0.018 A 
ATOM      6  C   UNL     1      -1.980  -2.685   6.599  0.00  0.00    +0.015 A 
ATOM      7  C   UNL     1      -2.437  -3.945   6.346  0.00  0.00    +0.046 A 
ATOM      8  C   UNL     1      -2.134  -4.579   5.141  0.00  0.00    +0.120 A 
ATOM      9  C   UNL     1      -1.355  -3.940   4.188  0.00  0.00    +0.092 A 
ATOM     10  C   UNL     1      -0.877  -2.663   4.432  0.00  0.00    +0.141 A 
ATOM     11  O   UNL     1      -0.084  -2.047   3.525  0.00  0.00    -0.438 OA
ATOM     12  H   UNL     1      -0.028   0.957   2.408  0.00  0.00    +0.169 HD
ENDROOT
BRANCH   1  19
ATOM     13  C   UNL     1      -1.894   0.731   0.378  0.00  0.00    +0.046 C 
ATOM     14  C   UNL     1      -0.868  -0.353   0.172  0.00  0.00    -0.027 A 
ATOM     15  C   UNL     1      -0.803  -1.024  -1.032  0.00  0.00    +0.005 A 
ATOM     16  C   UNL     1       0.139  -2.020  -1.222  0.00  0.00    +0.000 A 
ATOM     17  C   UNL     1       1.020  -2.351  -0.208  0.00  0.00    +0.002 A 
ATOM     18  C   UNL     1       0.966  -1.689   1.001  0.00  0.00    +0.026 A 
ATOM     19  C   UNL     1       0.022  -0.678   1.198  0.00  0.00    +0.045 A 
ENDBRANCH   1  19
BRANCH   3  20
ATOM     20  C   UNL     1       0.335   1.370   4.995  0.00  0.00    +0.250 C 
ATOM     21  O   UNL     1       0.784   1.977   4.042  0.00  0.00    -0.270 OA
ATOM     22  N   UNL     1       0.308   1.949   6.212  0.00  0.00    -0.304 N 
ATOM     23  H   UNL     1      -0.109   1.491   6.958  0.00  0.00    +0.149 HD
BRANCH  22  24
ATOM     24  C   UNL     1       0.909   3.271   6.407  0.00  0.00    +0.179 C 
BRANCH  24  25
ATOM     25  C   UNL     1       0.746   3.689   7.846  0.00  0.00    +0.122 A 
ATOM     26  C   UNL     1       1.617   3.442   8.841  0.00  0.00    +0.046 A 
ATOM     27  C   UNL     1       1.070   4.010  10.014  0.00  0.00    +0.041 A 
ATOM     28  C   UNL     1      -0.103   4.569   9.667  0.00  0.00    +0.195 A 
ATOM     29  O   UNL     1      -0.291   4.377   8.351  0.00  0.00    -0.466 OA
ENDBRANCH  24  25
ENDBRANCH  22  24
ENDBRANCH   3  20
BRANCH   8  30
ATOM     30  O   UNL     1      -2.605  -5.828   4.899  0.00  0.00    -0.507 OA
ATOM     31  H   UNL     1      -3.469  -5.845   4.465  0.00  0.00    +0.292 HD
ENDBRANCH   8  30
TORSDOF 5
