REMARK  Name = ZINC38546309
REMARK  8 active torsions:
REMARK  status: ('A' for Active; 'I' for Inactive)
REMARK    1  A    between atoms: C_1  and  C_2
REMARK    2  A    between atoms: N_5  and  C_8
REMARK    3  A    between atoms: C_8  and  C_10
REMARK    4  A    between atoms: C_8  and  C_18
REMARK    5  A    between atoms: C_13  and  O_16
REMARK    6  A    between atoms: O_16  and  C_17
REMARK    7  A    between atoms: C_22  and  N_23
REMARK    8  A    between atoms: C_24  and  C_26
REMARK                            x       y       z     vdW  Elec       q    Type
REMARK                         _______ _______ _______ _____ _____    ______ ____
ROOT
ATOM      1  C   UNL     1      -2.014  -4.665   1.361  0.00  0.00    -0.025 A 
ATOM      2  C   UNL     1      -2.205  -5.718   0.465  0.00  0.00    -0.033 A 
ATOM      3  C   UNL     1      -3.403  -6.358   0.524  0.00  0.00    -0.005 A 
ATOM      4  S   UNL     1      -4.274  -5.514   1.817  0.00  0.00    -0.078 S 
ATOM      5  C   UNL     1      -3.000  -4.334   2.236  0.00  0.00    +0.074 A 
ATOM      6  C   UNL     1      -3.865  -7.506  -0.314  0.00  0.00    +0.043 C 
ATOM      7  C   UNL     1      -2.921  -7.635  -1.519  0.00  0.00    +0.005 C 
ATOM      8  C   UNL     1      -1.475  -7.572  -1.019  0.00  0.00    +0.005 C 
ATOM      9  C   UNL     1      -1.147  -6.156  -0.544  0.00  0.00    +0.036 C 
ENDROOT
BRANCH   5  10
ATOM     10  N   UNL     1      -3.014  -3.332   3.208  0.00  0.00    -0.273 N 
ATOM     11  C   UNL     1      -4.143  -3.078   3.898  0.00  0.00    +0.284 C 
ATOM     12  O   UNL     1      -5.152  -3.722   3.674  0.00  0.00    -0.266 OA
ATOM     13  H   UNL     1      -2.211  -2.818   3.387  0.00  0.00    +0.156 HD
BRANCH  11  14
ATOM     14  C   UNL     1      -4.158  -2.025   4.919  0.00  0.00    +0.189 A 
ATOM     15  C   UNL     1      -5.228  -1.670   5.690  0.00  0.00    +0.054 A 
ATOM     16  C   UNL     1      -4.795  -0.627   6.524  0.00  0.00    +0.042 A 
ATOM     17  C   UNL     1      -3.498  -0.394   6.229  0.00  0.00    +0.196 A 
ATOM     18  O   UNL     1      -3.116  -1.242   5.264  0.00  0.00    -0.458 OA
ENDBRANCH  11  14
ENDBRANCH   5  10
BRANCH   1  19
ATOM     19  C   UNL     1      -0.715  -3.901   1.362  0.00  0.00    -0.004 C 
BRANCH  19  24
ATOM     20  C   UNL     1      -1.310   1.715   0.570  0.00  0.00    +0.007 C 
ATOM     21  C   UNL     1      -0.967   0.236   0.376  0.00  0.00    -0.018 C 
ATOM     22  C   UNL     1      -2.248  -0.600   0.447  0.00  0.00    -0.015 C 
ATOM     23  C   UNL     1      -1.889  -2.083   0.332  0.00  0.00    -0.077 C 
ATOM     24  N   UNL     1      -0.994  -2.461   1.432  0.00  0.00    +0.387 N 
ATOM     25  C   UNL     1       0.266  -1.714   1.329  0.00  0.00    -0.077 C 
ATOM     26  C   UNL     1      -0.010  -0.217   1.482  0.00  0.00    -0.015 C 
ATOM     27  H   UNL     1      -1.438  -2.249   2.313  0.00  0.00    -0.080 HD
ENDBRANCH  19  24
BRANCH  19  28
ATOM     28  C   UNL     1       0.108  -4.312   2.556  0.00  0.00    -0.056 A 
ATOM     29  C   UNL     1      -0.013  -3.623   3.748  0.00  0.00    +0.006 A 
ATOM     30  C   UNL     1       0.741  -3.997   4.844  0.00  0.00    +0.046 A 
ATOM     31  C   UNL     1       1.619  -5.066   4.747  0.00  0.00    +0.120 A 
ATOM     32  C   UNL     1       1.739  -5.757   3.550  0.00  0.00    +0.046 A 
ATOM     33  C   UNL     1       0.979  -5.382   2.458  0.00  0.00    +0.006 A 
BRANCH  31  34
ATOM     34  O   UNL     1       2.362  -5.436   5.823  0.00  0.00    -0.495 OA
ATOM     35  C   UNL     1       3.246  -6.546   5.651  0.00  0.00    +0.277 C 
ENDBRANCH  31  34
ENDBRANCH  19  28
ENDBRANCH   1  19
TORSDOF 6
