REMARK  Name = ZINC19084457
REMARK  11 active torsions:
REMARK  status: ('A' for Active; 'I' for Inactive)
REMARK    1  A    between atoms: C_1  and  C_2
REMARK    2  A    between atoms: C_2  and  C_3
REMARK    3  A    between atoms: C_2  and  C_4
REMARK    4  A    between atoms: C_2  and  C_5
REMARK    5  A    between atoms: C_8  and  C_11
REMARK    6  A    between atoms: C_11  and  C_13
REMARK    7  A    between atoms: C_11  and  O_32
REMARK    8  A    between atoms: C_13  and  N_66
REMARK    9  A    between atoms: C_20  and  O_31
REMARK   10  A    between atoms: C_25  and  O_29
REMARK   11  A    between atoms: O_29  and  C_30
REMARK                            x       y       z     vdW  Elec       q    Type
REMARK                         _______ _______ _______ _____ _____    ______ ____
ROOT
ATOM      1  C   UNL     1       0.104  -4.711   0.965  0.00  0.00    -0.075 C 
ATOM      2  C   UNL     1       0.207  -6.232   0.828  0.00  0.00    +0.029 C 
ATOM      3  C   UNL     1       0.606  -6.836   2.176  0.00  0.00    +0.110 C 
ATOM      4  C   UNL     1       1.926  -6.218   2.640  0.00  0.00    +0.029 C 
ATOM      5  C   UNL     1       1.771  -4.697   2.724  0.00  0.00    -0.075 C 
ATOM      6  C   UNL     1       0.773  -8.352   2.028  0.00  0.00    +0.084 C 
ATOM      7  C   UNL     1      -0.526  -8.926   1.458  0.00  0.00    +0.152 C 
ATOM      8  C   UNL     1      -1.702  -8.384   2.230  0.00  0.00    +0.023 A 
ATOM      9  C   UNL     1      -2.918  -9.043   2.139  0.00  0.00    +0.013 A 
ATOM     10  C   UNL     1      -4.018  -8.577   2.830  0.00  0.00    +0.046 A 
ATOM     11  C   UNL     1      -3.910  -7.440   3.619  0.00  0.00    +0.124 A 
ATOM     12  C   UNL     1      -2.697  -6.779   3.712  0.00  0.00    +0.091 A 
ATOM     13  C   UNL     1      -1.589  -7.252   3.018  0.00  0.00    +0.130 A 
ATOM     14  O   UNL     1      -0.413  -6.581   3.141  0.00  0.00    -0.485 OA
ATOM     15  N   UNL     1       1.417  -4.177   1.386  0.00  0.00    +0.382 N 
ATOM     16  H   UNL     1       2.131  -4.479   0.712  0.00  0.00    -0.082 HD
ENDROOT
BRANCH  11  17
ATOM     17  O   UNL     1      -4.992  -6.977   4.299  0.00  0.00    -0.495 OA
ATOM     18  C   UNL     1      -6.210  -7.710   4.156  0.00  0.00    +0.277 C 
ENDBRANCH  11  17
BRANCH   7  19
ATOM     19  O   UNL     1      -0.503 -10.351   1.563  0.00  0.00    -0.387 OA
ATOM     20  H   UNL     1      -1.297 -10.784   1.220  0.00  0.00    +0.210 HD
ENDBRANCH   7  19
BRANCH  15  21
ATOM     21  C   UNL     1       1.376  -2.701   1.413  0.00  0.00    -0.042 C 
BRANCH  21  22
ATOM     22  C   UNL     1       1.229  -2.186  -0.021  0.00  0.00    +0.128 C 
BRANCH  22  26
ATOM     23  C   UNL     1       1.171   2.086   0.002  0.00  0.00    -0.042 A 
ATOM     24  C   UNL     1      -0.017   1.378   0.010  0.00  0.00    +0.004 A 
ATOM     25  C   UNL     1       0.002  -0.004   0.002  0.00  0.00    +0.006 A 
ATOM     26  C   UNL     1       1.208  -0.679  -0.013  0.00  0.00    -0.021 A 
ATOM     27  C   UNL     1       2.396   0.029  -0.021  0.00  0.00    +0.006 A 
ATOM     28  C   UNL     1       2.377   1.411  -0.015  0.00  0.00    +0.004 A 
BRANCH  23  30
ATOM     29  C   UNL     1       0.434   4.086   1.268  0.00  0.00    +0.015 C 
ATOM     30  C   UNL     1       1.151   3.592   0.010  0.00  0.00    -0.013 C 
ATOM     31  C   UNL     1       2.586   4.122  -0.001  0.00  0.00    +0.015 C 
ATOM     32  C   UNL     1       0.411   4.099  -1.230  0.00  0.00    +0.015 C 
ENDBRANCH  23  30
ENDBRANCH  22  26
BRANCH  22  33
ATOM     33  O   UNL     1       2.331  -2.643  -0.806  0.00  0.00    -0.389 OA
ATOM     34  H   UNL     1       3.194  -2.348  -0.484  0.00  0.00    +0.210 HD
ENDBRANCH  22  33
ENDBRANCH  21  22
ENDBRANCH  15  21
TORSDOF 7
