REMARK  Name = ZINC49152166
REMARK  7 active torsions:
REMARK  status: ('A' for Active; 'I' for Inactive)
REMARK    1  A    between atoms: C_1  and  C_2
REMARK    2  A    between atoms: C_5  and  C_7
REMARK    3  A    between atoms: C_7  and  C_9
REMARK    4  A    between atoms: C_7  and  N_10
REMARK    5  A    between atoms: N_10  and  S_11
REMARK    6  A    between atoms: S_11  and  C_14
REMARK    7  A    between atoms: C_17  and  N_21
REMARK                            x       y       z     vdW  Elec       q    Type
REMARK                         _______ _______ _______ _____ _____    ______ ____
ROOT
ATOM      1  S   UNL     1       2.490  -5.528   1.726  0.00  0.00    +0.062 S 
ATOM      2  O   UNL     1       3.692  -5.313   2.452  0.00  0.00    -0.153 OA
ATOM      3  O   UNL     1       1.265  -5.862   2.363  0.00  0.00    -0.153 OA
ENDROOT
BRANCH   1   4
ATOM      4  C   UNL     1       2.823  -6.814   0.569  0.00  0.00    +0.142 A 
ATOM      5  C   UNL     1       1.784  -7.580   0.069  0.00  0.00    +0.070 A 
ATOM      6  C   UNL     1       2.043  -8.590  -0.839  0.00  0.00    +0.044 A 
ATOM      7  C   UNL     1       3.347  -8.836  -1.248  0.00  0.00    +0.027 A 
ATOM      8  C   UNL     1       4.388  -8.067  -0.745  0.00  0.00    +0.044 A 
ATOM      9  C   UNL     1       4.123  -7.055   0.159  0.00  0.00    +0.070 A 
ATOM     10 CL   UNL     1       5.422  -6.088   0.784  0.00  0.00    -0.081 Cl
ATOM     11 CL   UNL     1       0.155  -7.271   0.581  0.00  0.00    -0.081 Cl
BRANCH   7  12
ATOM     12  N   UNL     1       3.611  -9.857  -2.165  0.00  0.00    -0.358 N 
ATOM     13  H   UNL     1       2.884 -10.394  -2.516  0.00  0.00    +0.142 HD
ATOM     14  H   UNL     1       4.522 -10.028  -2.450  0.00  0.00    +0.142 HD
ENDBRANCH   7  12
ENDBRANCH   1   4
BRANCH   1  15
ATOM     15  N   UNL     1       2.210  -4.147   0.855  0.00  0.00    -0.182 NA
ATOM     16  H   UNL     1       2.818  -3.395   0.929  0.00  0.00    +0.149 HD
BRANCH  15  17
ATOM     17  C   UNL     1       1.043  -4.062  -0.027  0.00  0.00    +0.110 C 
ATOM     18  C   UNL     1       1.452  -4.441  -1.452  0.00  0.00    +0.031 C 
BRANCH  17  23
ATOM     19  C   UNL     1      -0.018   1.503   0.010  0.00  0.00    +0.051 C 
ATOM     20  C   UNL     1       0.002  -0.004   0.002  0.00  0.00    -0.013 A 
ATOM     21  C   UNL     1      -1.039  -0.872   0.002  0.00  0.00    +0.011 A 
ATOM     22  C   UNL     1      -0.780  -2.230  -0.007  0.00  0.00    +0.013 A 
ATOM     23  C   UNL     1       0.507  -2.653  -0.016  0.00  0.00    +0.008 A 
ATOM     24  S   UNL     1       1.404  -1.109  -0.018  0.00  0.00    -0.097 S 
ENDBRANCH  17  23
ENDBRANCH  15  17
ENDBRANCH   1  15
TORSDOF 5
