REMARK  Name = ZINC06624321
REMARK  10 active torsions:
REMARK  status: ('A' for Active; 'I' for Inactive)
REMARK    1  A    between atoms: C_1  and  C_2
REMARK    2  A    between atoms: C_6  and  C_24
REMARK    3  A    between atoms: C_7  and  C_11
REMARK    4  A    between atoms: C_11  and  C_12
REMARK    5  A    between atoms: N_14  and  C_15
REMARK    6  A    between atoms: C_17  and  C_22
REMARK    7  A    between atoms: C_17  and  C_23
REMARK    8  A    between atoms: C_18  and  C_20
REMARK    9  A    between atoms: C_18  and  C_21
REMARK   10  A    between atoms: C_27  and  C_30
REMARK                            x       y       z     vdW  Elec       q    Type
REMARK                         _______ _______ _______ _____ _____    ______ ____
ROOT
ATOM      1  C   UNL     1      -3.693   2.135   0.608  0.00  0.00    +0.044 C 
ATOM      2  C   UNL     1      -2.391   1.384   0.493  0.00  0.00    -0.036 A 
ATOM      3  C   UNL     1      -1.214   2.074   0.434  0.00  0.00    +0.051 A 
ATOM      4  C   UNL     1      -0.002   1.397   0.323  0.00  0.00    +0.143 A 
ATOM      5  C   UNL     1       0.015  -0.006   0.284  0.00  0.00    +0.064 A 
ATOM      6  C   UNL     1       1.298  -0.700   0.173  0.00  0.00    -0.026 A 
ATOM      7  C   UNL     1       2.430   0.049   0.113  0.00  0.00    +0.049 A 
ATOM      8  C   UNL     1       2.341   1.455   0.157  0.00  0.00    +0.341 A 
ATOM      9  O   UNL     1       3.362   2.116   0.102  0.00  0.00    -0.245 OA
ATOM     10  O   UNL     1       1.160   2.083   0.259  0.00  0.00    -0.422 OA
ATOM     11  C   UNL     1       1.362  -2.205   0.127  0.00  0.00    +0.045 C 
ATOM     12  C   UNL     1      -1.192  -0.723   0.351  0.00  0.00    +0.146 A 
ATOM     13  C   UNL     1      -2.396  -0.013   0.457  0.00  0.00    +0.027 A 
ATOM     14  C   UNL     1      -3.450  -1.034   0.504  0.00  0.00    -0.005 A 
ATOM     15  C   UNL     1      -2.826  -2.218   0.428  0.00  0.00    +0.199 A 
ATOM     16  O   UNL     1      -1.498  -2.033   0.337  0.00  0.00    -0.462 OA
ATOM     17  C   UNL     1      -4.934  -0.799   0.617  0.00  0.00    +0.047 C 
ENDROOT
BRANCH   7  18
ATOM     18  C   UNL     1       3.776  -0.621  -0.002  0.00  0.00    +0.138 C 
BRANCH  18  19
ATOM     19  C   UNL     1       4.123  -0.805  -1.457  0.00  0.00    +0.218 C 
ATOM     20  O   UNL     1       3.353  -0.430  -2.316  0.00  0.00    -0.275 OA
ATOM     21  N   UNL     1       5.288  -1.387  -1.803  0.00  0.00    -0.312 N 
ATOM     22  H   UNL     1       5.903  -1.688  -1.116  0.00  0.00    +0.149 HD
BRANCH  21  23
ATOM     23  C   UNL     1       5.626  -1.567  -3.221  0.00  0.00    +0.070 C 
ATOM     24  C   UNL     1       5.023  -2.880  -3.720  0.00  0.00    +0.009 C 
ATOM     25  C   UNL     1       5.378  -3.105  -5.187  0.00  0.00    -0.072 C 
ATOM     26  C   UNL     1       7.525  -1.851  -4.834  0.00  0.00    -0.072 C 
ATOM     27  C   UNL     1       7.145  -1.643  -3.370  0.00  0.00    +0.009 C 
ATOM     28  C   UNL     1       7.344  -0.536  -5.603  0.00  0.00    -0.010 C 
ATOM     29  C   UNL     1       9.029  -2.203  -4.879  0.00  0.00    -0.010 C 
ATOM     30  C   UNL     1       4.524  -2.186  -6.068  0.00  0.00    -0.010 C 
ATOM     31  C   UNL     1       4.997  -4.560  -5.540  0.00  0.00    -0.010 C 
ATOM     32  N   UNL     1       6.825  -2.977  -5.509  0.00  0.00    +0.386 N 
ATOM     33  H   UNL     1       6.914  -2.844  -6.523  0.00  0.00    -0.084 HD
ATOM     34  H   UNL     1       7.290  -3.850  -5.235  0.00  0.00    -0.084 HD
ENDBRANCH  21  23
ENDBRANCH  18  19
ENDBRANCH   7  18
TORSDOF 3
