REMARK  Name = ZINC45662574
REMARK  9 active torsions:
REMARK  status: ('A' for Active; 'I' for Inactive)
REMARK    1  A    between atoms: C_1  and  C_2
REMARK    2  A    between atoms: C_2  and  C_3
REMARK    3  A    between atoms: C_3  and  C_5
REMARK    4  A    between atoms: C_3  and  N_23
REMARK    5  A    between atoms: C_5  and  C_7
REMARK    6  A    between atoms: C_5  and  N_13
REMARK    7  A    between atoms: C_15  and  C_22
REMARK    8  A    between atoms: C_18  and  C_20
REMARK    9  A    between atoms: C_18  and  C_21
REMARK                            x       y       z     vdW  Elec       q    Type
REMARK                         _______ _______ _______ _____ _____    ______ ____
ROOT
ATOM      1  C   UNL     1      -1.351  -2.133  -0.086  0.00  0.00    +0.079 C 
ENDROOT
BRANCH   1   2
ATOM      2  N   UNL     1      -2.709  -2.679   0.037  0.00  0.00    -0.291 NA
ATOM      3  C   UNL     1      -3.389  -2.138   1.223  0.00  0.00    +0.116 C 
ATOM      4  C   UNL     1      -4.818  -2.685   1.279  0.00  0.00    +0.130 C 
ATOM      5  O   UNL     1      -4.776  -4.115   1.284  0.00  0.00    -0.368 OA
ATOM      6  C   UNL     1      -4.121  -4.675   0.143  0.00  0.00    +0.077 C 
ATOM      7  C   UNL     1      -2.685  -4.148   0.075  0.00  0.00    +0.119 C 
ATOM      8  C   UNL     1      -4.100  -6.200   0.264  0.00  0.00    +0.042 C 
ATOM      9  C   UNL     1      -4.873  -4.273  -1.127  0.00  0.00    +0.042 C 
ATOM     10  C   UNL     1      -5.505  -2.189   2.553  0.00  0.00    +0.039 C 
ENDBRANCH   1   2
BRANCH   1  11
ATOM     11  C   UNL     1      -0.700  -2.681  -1.329  0.00  0.00    +0.006 A 
ATOM     12  C   UNL     1       0.577  -3.097  -1.511  0.00  0.00    +0.014 A 
ATOM     13  C   UNL     1       0.959  -3.568  -2.754  0.00  0.00    +0.023 A 
ATOM     14  C   UNL     1       0.043  -3.601  -3.754  0.00  0.00    +0.055 A 
ATOM     15  S   UNL     1      -1.413  -2.959  -2.943  0.00  0.00    -0.085 S 
ATOM     16 BR   UNL     1       0.251  -4.182  -5.541  0.00  0.00    -0.043 Br
ENDBRANCH   1  11
BRANCH   1  17
ATOM     17  C   UNL     1      -1.421  -0.607  -0.177  0.00  0.00    -0.053 C 
BRANCH  17  18
ATOM     18  N   UNL     1      -0.076  -0.069  -0.419  0.00  0.00    +0.381 N 
ATOM     19  H   UNL     1      -0.102   0.938  -0.367  0.00  0.00    -0.090 HD
ATOM     20  H   UNL     1       0.560  -0.426   0.278  0.00  0.00    -0.090 HD
ATOM     21  H   UNL     1       0.239  -0.350  -1.336  0.00  0.00    -0.090 HD
ENDBRANCH  17  18
BRANCH  17  23
ATOM     22  C   UNL     1      -2.514   1.313  -1.343  0.00  0.00    +0.002 C 
ATOM     23  C   UNL     1      -2.345  -0.207  -1.329  0.00  0.00    -0.018 C 
ENDBRANCH  17  23
ENDBRANCH   1  17
TORSDOF 5
