REMARK  Name = ZINC38648766
REMARK  8 active torsions:
REMARK  status: ('A' for Active; 'I' for Inactive)
REMARK    1  A    between atoms: C_1  and  C_2
REMARK    2  A    between atoms: C_2  and  C_3
REMARK    3  A    between atoms: C_2  and  C_4
REMARK    4  A    between atoms: C_4  and  C_5
REMARK    5  A    between atoms: C_5  and  O_6
REMARK    6  A    between atoms: O_6  and  C_7
REMARK    7  A    between atoms: C_11  and  C_13
REMARK    8  A    between atoms: N_28  and  C_29
REMARK                            x       y       z     vdW  Elec       q    Type
REMARK                         _______ _______ _______ _____ _____    ______ ____
ROOT
ATOM      1  C   UNL     1       7.004  -0.796  -4.943  0.00  0.00    +0.145 C 
ATOM      2  C   UNL     1       7.834  -1.993  -4.614  0.00  0.00    +0.072 A 
ATOM      3  C   UNL     1       7.458  -3.329  -4.141  0.00  0.00    +0.199 A 
ATOM      4  O   UNL     1       6.306  -3.724  -4.103  0.00  0.00    -0.287 OA
ATOM      5  C   UNL     1       8.614  -4.155  -3.712  0.00  0.00    +0.066 A 
ATOM      6  C   UNL     1       8.410  -5.369  -3.055  0.00  0.00    +0.035 A 
ATOM      7  C   UNL     1       9.496  -6.120  -2.660  0.00  0.00    +0.042 A 
ATOM      8  C   UNL     1      10.785  -5.669  -2.916  0.00  0.00    +0.023 A 
ATOM      9  C   UNL     1      10.997  -4.474  -3.565  0.00  0.00    +0.048 A 
ATOM     10  C   UNL     1       9.915  -3.697  -3.978  0.00  0.00    +0.140 A 
ATOM     11  O   UNL     1      10.152  -2.532  -4.623  0.00  0.00    -0.450 OA
ATOM     12  C   UNL     1       9.142  -1.663  -4.824  0.00  0.00    +0.199 A 
ATOM     13  C   UNL     1       9.198  -0.263  -5.281  0.00  0.00    +0.283 C 
ATOM     14  O   UNL     1      10.217   0.340  -5.552  0.00  0.00    -0.267 OA
ATOM     15  N   UNL     1       7.952   0.252  -5.355  0.00  0.00    -0.279 N 
ATOM     16 CL   UNL     1       9.253  -7.631  -1.841  0.00  0.00    -0.084 Cl
ENDROOT
BRANCH  15  17
ATOM     17  C   UNL     1       7.604   1.612  -5.773  0.00  0.00    +0.100 C 
ATOM     18  C   UNL     1       8.285   2.624  -4.835  0.00  0.00    +0.047 C 
ATOM     19  C   UNL     1       8.162   4.036  -5.476  0.00  0.00    +0.168 C 
ATOM     20  S   UNL     1       8.487   3.633  -7.245  0.00  0.00    -0.029 S 
ATOM     21  O   UNL     1       9.874   3.789  -7.507  0.00  0.00    -0.174 OA
ATOM     22  O   UNL     1       7.540   4.316  -8.055  0.00  0.00    -0.174 OA
ATOM     23  C   UNL     1       8.080   1.840  -7.228  0.00  0.00    +0.188 C 
ENDBRANCH  15  17
BRANCH   1  28
ATOM     24  C   UNL     1       4.178  -0.238  -2.497  0.00  0.00    +0.121 A 
ATOM     25  C   UNL     1       4.819   0.475  -1.495  0.00  0.00    +0.045 A 
ATOM     26  C   UNL     1       6.163   0.774  -1.612  0.00  0.00    +0.004 A 
ATOM     27  C   UNL     1       6.868   0.362  -2.728  0.00  0.00    +0.006 A 
ATOM     28  C   UNL     1       6.232  -0.349  -3.728  0.00  0.00    -0.019 A 
ATOM     29  C   UNL     1       4.889  -0.655  -3.612  0.00  0.00    +0.051 A 
BRANCH  24  30
ATOM     30  O   UNL     1       2.856  -0.534  -2.383  0.00  0.00    -0.492 OA
BRANCH  30  31
ATOM     31  C   UNL     1       2.187  -0.073  -1.207  0.00  0.00    +0.229 C 
BRANCH  31  32
ATOM     32  C   UNL     1       0.718  -0.497  -1.257  0.00  0.00    +0.044 C 
BRANCH  32  34
ATOM     33  C   UNL     1      -0.019   1.526   0.010  0.00  0.00    +0.007 C 
ATOM     34  C   UNL     1       0.002  -0.004   0.002  0.00  0.00    -0.014 C 
ATOM     35  C   UNL     1      -1.433  -0.534   0.013  0.00  0.00    +0.007 C 
ENDBRANCH  32  34
ENDBRANCH  31  32
ENDBRANCH  30  31
ENDBRANCH  24  30
ENDBRANCH   1  28
TORSDOF 6
