REMARK  Name = ZINC67085738
REMARK  9 active torsions:
REMARK  status: ('A' for Active; 'I' for Inactive)
REMARK    1  A    between atoms: C_1  and  N_2
REMARK    2  A    between atoms: N_2  and  C_3
REMARK    3  A    between atoms: N_2  and  C_4
REMARK    4  A    between atoms: C_4  and  C_5
REMARK    5  A    between atoms: C_5  and  N_6
REMARK    6  A    between atoms: C_7  and  C_9
REMARK    7  A    between atoms: C_13  and  C_15
REMARK    8  A    between atoms: C_15  and  N_16
REMARK    9  A    between atoms: C_25  and  O_29
REMARK                            x       y       z     vdW  Elec       q    Type
REMARK                         _______ _______ _______ _____ _____    ______ ____
ROOT
ATOM      1  C   UNL     1       0.425  -0.838   9.821  0.00  0.00    +0.141 C 
ENDROOT
BRANCH   1   2
ATOM      2  N   UNL     1       0.934   0.434  10.339  0.00  0.00    -0.295 N 
ATOM      3  C   UNL     1       0.560   0.862  11.562  0.00  0.00    +0.303 C 
ATOM      4  O   UNL     1      -0.269   0.239  12.196  0.00  0.00    -0.253 OA
ATOM      5  N   UNL     1       1.107   1.979  12.081  0.00  0.00    -0.281 N 
ATOM      6  C   UNL     1       0.806   2.410  13.457  0.00  0.00    +0.114 C 
ATOM      7  C   UNL     1       2.103   2.347  14.262  0.00  0.00    +0.054 C 
ATOM      8  C   UNL     1       3.233   3.002  13.512  0.00  0.00    -0.041 A 
ATOM      9  C   UNL     1       4.341   3.410  14.246  0.00  0.00    +0.007 A 
ATOM     10  C   UNL     1       5.415   4.008  13.623  0.00  0.00    +0.045 A 
ATOM     11  C   UNL     1       5.393   4.205  12.249  0.00  0.00    +0.117 A 
ATOM     12  C   UNL     1       4.288   3.801  11.519  0.00  0.00    +0.050 A 
ATOM     13  C   UNL     1       3.206   3.205  12.150  0.00  0.00    -0.023 A 
ATOM     14  C   UNL     1       2.029   2.811  11.301  0.00  0.00    +0.144 C 
ATOM     15  H   UNL     1       1.540   0.969   9.803  0.00  0.00    +0.151 HD
BRANCH  11  16
ATOM     16  O   UNL     1       6.449   4.790  11.626  0.00  0.00    -0.507 OA
ATOM     17  H   UNL     1       7.124   4.165  11.326  0.00  0.00    +0.292 HD
ENDBRANCH  11  16
ENDBRANCH   1   2
BRANCH   1  22
ATOM     18  C   UNL     1       0.839  -0.851   6.060  0.00  0.00    +0.037 A 
ATOM     19  C   UNL     1       2.045  -1.541   5.921  0.00  0.00    +0.013 A 
ATOM     20  C   UNL     1       2.710  -1.994   7.041  0.00  0.00    +0.001 A 
ATOM     21  C   UNL     1       2.184  -1.765   8.301  0.00  0.00    +0.005 A 
ATOM     22  C   UNL     1       0.990  -1.082   8.445  0.00  0.00    -0.030 A 
ATOM     23  C   UNL     1       0.318  -0.619   7.333  0.00  0.00    +0.018 A 
BRANCH  18  25
ATOM     24  N   UNL     1       0.628  -0.588   3.635  0.00  0.00    -0.313 N 
ATOM     25  C   UNL     1       0.121  -0.362   4.863  0.00  0.00    +0.244 C 
ATOM     26  O   UNL     1      -0.925   0.243   4.987  0.00  0.00    -0.270 OA
ATOM     27  H   UNL     1       1.463  -1.071   3.535  0.00  0.00    +0.149 HD
BRANCH  24  28
ATOM     28  C   UNL     1      -0.084  -0.104   2.449  0.00  0.00    +0.086 C 
BRANCH  28  29
ATOM     29  C   UNL     1       0.699  -0.490   1.192  0.00  0.00    -0.061 C 
BRANCH  29  31
ATOM     30  C   UNL     1      -0.038   1.464   0.011  0.00  0.00    -0.097 C 
ATOM     31  N   UNL     1      -0.015  -0.004   0.003  0.00  0.00    +0.377 N 
ATOM     32  C   UNL     1       0.672  -0.477  -1.207  0.00  0.00    -0.097 C 
ATOM     33  H   UNL     1      -0.961  -0.355   0.011  0.00  0.00    -0.083 HD
ENDBRANCH  29  31
ENDBRANCH  28  29
ENDBRANCH  24  28
ENDBRANCH  18  25
ENDBRANCH   1  22
TORSDOF 7
