REMARK  Name = ZINC38705125
REMARK  10 active torsions:
REMARK  status: ('A' for Active; 'I' for Inactive)
REMARK    1  A    between atoms: C_1  and  C_2
REMARK    2  A    between atoms: C_5  and  C_8
REMARK    3  A    between atoms: C_8  and  N_9
REMARK    4  A    between atoms: C_10  and  C_29
REMARK    5  A    between atoms: C_13  and  C_20
REMARK    6  A    between atoms: C_21  and  C_28
REMARK    7  A    between atoms: C_23  and  C_27
REMARK    8  A    between atoms: C_25  and  O_26
REMARK    9  A    between atoms: C_33  and  O_35
REMARK   10  A    between atoms: O_35  and  C_36
REMARK                            x       y       z     vdW  Elec       q    Type
REMARK                         _______ _______ _______ _____ _____    ______ ____
ROOT
ATOM      1  N   UNL     1       1.471  -4.367  -0.349  0.00  0.00    -0.281 N 
ATOM      2  C   UNL     1       2.565  -4.708  -1.268  0.00  0.00    +0.142 C 
ATOM      3  C   UNL     1       3.689  -5.216  -0.406  0.00  0.00    +0.035 A 
ATOM      4  C   UNL     1       4.992  -5.723  -0.344  0.00  0.00    +0.102 A 
ATOM      5  N   UNL     1       5.270  -5.941   0.926  0.00  0.00    -0.173 NA
ATOM      6  N   UNL     1       4.273  -5.622   1.672  0.00  0.00    -0.272 N 
ATOM      7  H   UNL     1       4.254  -5.699   2.639  0.00  0.00    +0.189 HD
ATOM      8  C   UNL     1       3.245  -5.159   0.901  0.00  0.00    +0.126 A 
ATOM      9  C   UNL     1       1.877  -4.628   0.906  0.00  0.00    +0.266 C 
ATOM     10  O   UNL     1       1.206  -4.450   1.905  0.00  0.00    -0.268 OA
ENDROOT
BRANCH   4  11
ATOM     11  C   UNL     1       5.893  -5.970  -1.497  0.00  0.00    +0.047 A 
ATOM     12  C   UNL     1       7.203  -5.497  -1.474  0.00  0.00    -0.037 A 
ATOM     13  C   UNL     1       8.038  -5.730  -2.548  0.00  0.00    +0.007 A 
ATOM     14  C   UNL     1       7.579  -6.432  -3.649  0.00  0.00    -0.047 A 
ATOM     15  C   UNL     1       6.281  -6.905  -3.681  0.00  0.00    +0.049 A 
ATOM     16  C   UNL     1       5.434  -6.684  -2.607  0.00  0.00    +0.127 A 
ATOM     17  C   UNL     1       8.498  -6.681  -4.817  0.00  0.00    +0.044 C 
ATOM     18  C   UNL     1       7.708  -4.731  -0.278  0.00  0.00    +0.044 C 
BRANCH  16  19
ATOM     19  O   UNL     1       4.159  -7.153  -2.636  0.00  0.00    -0.506 OA
ATOM     20  H   UNL     1       3.535  -6.568  -3.087  0.00  0.00    +0.292 HD
ENDBRANCH  16  19
ENDBRANCH   4  11
BRANCH   2  21
ATOM     21  C   UNL     1       3.005  -3.483  -2.027  0.00  0.00    -0.019 A 
ATOM     22  C   UNL     1       3.303  -2.317  -1.346  0.00  0.00    +0.006 A 
ATOM     23  C   UNL     1       3.707  -1.192  -2.041  0.00  0.00    +0.004 A 
ATOM     24  C   UNL     1       3.813  -1.230  -3.417  0.00  0.00    +0.045 A 
ATOM     25  C   UNL     1       3.515  -2.398  -4.103  0.00  0.00    +0.120 A 
ATOM     26  C   UNL     1       3.116  -3.528  -3.404  0.00  0.00    +0.051 A 
BRANCH  25  27
ATOM     27  O   UNL     1       3.619  -2.438  -5.458  0.00  0.00    -0.495 OA
ATOM     28  C   UNL     1       4.041  -1.239  -6.111  0.00  0.00    +0.277 C 
ENDBRANCH  25  27
ENDBRANCH   2  21
BRANCH   1  29
ATOM     29  C   UNL     1       0.164  -3.829  -0.734  0.00  0.00    +0.144 C 
BRANCH  29  34
ATOM     30  C   UNL     1       0.402   1.944  -0.821  0.00  0.00    +0.044 C 
ATOM     31  C   UNL     1       0.340   0.438  -0.799  0.00  0.00    -0.050 A 
ATOM     32  C   UNL     1       0.638  -0.283  -1.939  0.00  0.00    +0.003 A 
ATOM     33  C   UNL     1       0.582  -1.664  -1.918  0.00  0.00    +0.005 A 
ATOM     34  C   UNL     1       0.227  -2.324  -0.756  0.00  0.00    -0.030 A 
ATOM     35  C   UNL     1      -0.071  -1.602   0.384  0.00  0.00    +0.005 A 
ATOM     36  C   UNL     1      -0.010  -0.222   0.365  0.00  0.00    +0.003 A 
ENDBRANCH  29  34
ENDBRANCH   1  29
TORSDOF 6
