REMARK  Name = ZINC22064408
REMARK  9 active torsions:
REMARK  status: ('A' for Active; 'I' for Inactive)
REMARK    1  A    between atoms: C_1  and  C_2
REMARK    2  A    between atoms: C_3  and  C_29
REMARK    3  A    between atoms: C_4  and  C_21
REMARK    4  A    between atoms: C_10  and  C_15
REMARK    5  A    between atoms: C_29  and  O_31
REMARK    6  A    between atoms: O_31  and  C_32
REMARK    7  A    between atoms: C_32  and  C_33
REMARK    8  A    between atoms: C_33  and  C_34
REMARK    9  A    between atoms: C_33  and  C_35
REMARK                            x       y       z     vdW  Elec       q    Type
REMARK                         _______ _______ _______ _____ _____    ______ ____
ROOT
ATOM      1  C   UNL     1       4.975   3.270  -2.520  0.00  0.00    +0.061 C 
ATOM      2  C   UNL     1       4.254   2.930  -1.242  0.00  0.00    +0.016 C 
ATOM      3  C   UNL     1       3.230   2.060  -1.264  0.00  0.00    +0.065 C 
ATOM      4  C   UNL     1       2.482   1.704  -0.013  0.00  0.00    +0.094 C 
ATOM      5  C   UNL     1       3.274   2.077   1.216  0.00  0.00    +0.024 C 
ATOM      6  C   UNL     1       4.303   2.947   1.135  0.00  0.00    +0.016 C 
ATOM      7  N   UNL     1       4.645   3.509  -0.066  0.00  0.00    -0.321 N 
ATOM      8  C   UNL     1       5.103   3.321   2.358  0.00  0.00    +0.059 C 
ATOM      9  C   UNL     1       4.208   3.255   3.597  0.00  0.00    +0.032 C 
ATOM     10  C   UNL     1       3.641   1.836   3.713  0.00  0.00    +0.088 C 
ATOM     11  C   UNL     1       2.909   1.497   2.443  0.00  0.00    +0.162 C 
ATOM     12  O   UNL     1       1.987   0.707   2.479  0.00  0.00    -0.292 OA
ATOM     13  H   UNL     1       5.241   4.433  -0.080  0.00  0.00    +0.152 HD
ENDROOT
BRANCH   4  14
ATOM     14  C   UNL     1       1.167   2.440   0.004  0.00  0.00    -0.017 A 
ATOM     15  C   UNL     1       1.148   3.822   0.012  0.00  0.00    +0.007 A 
ATOM     16  C   UNL     1      -0.057   4.497   0.028  0.00  0.00    +0.020 A 
ATOM     17  C   UNL     1      -1.247   3.790   0.035  0.00  0.00    +0.042 A 
ATOM     18  C   UNL     1      -1.229   2.407   0.021  0.00  0.00    +0.040 A 
ATOM     19  C   UNL     1      -0.021   1.732   0.012  0.00  0.00    +0.046 A 
ATOM     20 CL   UNL     1       0.002  -0.004   0.002  0.00  0.00    -0.083 Cl
ATOM     21 CL   UNL     1      -2.761   4.639   0.055  0.00  0.00    -0.083 Cl
ENDBRANCH   4  14
BRANCH   9  22
ATOM     22  C   UNL     1       5.019   3.578   4.825  0.00  0.00    -0.044 A 
ATOM     23  C   UNL     1       6.104   2.791   5.164  0.00  0.00    +0.004 A 
ATOM     24  C   UNL     1       6.851   3.089   6.288  0.00  0.00    +0.000 A 
ATOM     25  C   UNL     1       6.508   4.170   7.079  0.00  0.00    +0.000 A 
ATOM     26  C   UNL     1       5.420   4.954   6.744  0.00  0.00    +0.000 A 
ATOM     27  C   UNL     1       4.676   4.658   5.617  0.00  0.00    +0.004 A 
ENDBRANCH   9  22
BRANCH   3  28
ATOM     28  C   UNL     1       2.849   1.468  -2.491  0.00  0.00    +0.338 C 
ATOM     29  O   UNL     1       3.448   1.748  -3.513  0.00  0.00    -0.245 OA
BRANCH  28  30
ATOM     30  O   UNL     1       1.823   0.592  -2.528  0.00  0.00    -0.461 OA
BRANCH  30  31
ATOM     31  C   UNL     1       1.494   0.033  -3.801  0.00  0.00    +0.235 C 
BRANCH  31  32
ATOM     32  C   UNL     1       0.314  -0.929  -3.646  0.00  0.00    +0.020 C 
ATOM     33  C   UNL     1      -0.928  -0.148  -3.213  0.00  0.00    +0.010 C 
ATOM     34  C   UNL     1       0.041  -1.622  -4.982  0.00  0.00    +0.010 C 
ENDBRANCH  31  32
ENDBRANCH  30  31
ENDBRANCH  28  30
ENDBRANCH   3  28
TORSDOF 6
