REMARK  Name = ZINC65202193
REMARK  7 active torsions:
REMARK  status: ('A' for Active; 'I' for Inactive)
REMARK    1  A    between atoms: C_3  and  C_6
REMARK    2  A    between atoms: C_6  and  C_7
REMARK    3  A    between atoms: C_7  and  N_8
REMARK    4  A    between atoms: N_11  and  N_12
REMARK    5  A    between atoms: C_13  and  C_15
REMARK    6  A    between atoms: C_15  and  C_16
REMARK    7  A    between atoms: C_19  and  C_21
REMARK                            x       y       z     vdW  Elec       q    Type
REMARK                         _______ _______ _______ _____ _____    ______ ____
ROOT
ATOM      1  N   UNL     1       8.195   3.427   1.337  0.00  0.00    -0.233 N 
ATOM      2  C   UNL     1       9.463   3.883   1.327  0.00  0.00    +0.235 C 
ATOM      3  O   UNL     1      10.044   4.082   2.373  0.00  0.00    -0.274 OA
ATOM      4  H   UNL     1       7.730   3.267   0.501  0.00  0.00    +0.173 HD
ENDROOT
BRANCH   1   8
ATOM      5  N   UNL     1       5.633   2.506   1.403  0.00  0.00    -0.298 N 
ATOM      6  C   UNL     1       6.279   2.728   2.565  0.00  0.00    +0.316 C 
ATOM      7  O   UNL     1       5.717   2.517   3.623  0.00  0.00    -0.251 OA
ATOM      8  N   UNL     1       7.547   3.184   2.555  0.00  0.00    -0.218 N 
ATOM      9  H   UNL     1       6.082   2.674   0.560  0.00  0.00    +0.150 HD
ATOM     10  H   UNL     1       8.012   3.344   3.392  0.00  0.00    +0.174 HD
BRANCH   5  11
ATOM     11  C   UNL     1       4.255   2.011   1.414  0.00  0.00    +0.111 C 
BRANCH  11  12
ATOM     12  C   UNL     1       3.761   1.845  -0.024  0.00  0.00    +0.061 C 
BRANCH  12  15
ATOM     13  C   UNL     1      -0.016   1.351   0.009  0.00  0.00    +0.008 A 
ATOM     14  C   UNL     1       1.183   2.038   0.002  0.00  0.00    +0.011 A 
ATOM     15  C   UNL     1       2.343   1.336  -0.013  0.00  0.00    -0.009 A 
ATOM     16  S   UNL     1       1.754  -0.349  -0.017  0.00  0.00    -0.102 S 
ATOM     17  C   UNL     1       0.002  -0.004   0.002  0.00  0.00    +0.045 A 
ENDBRANCH  12  15
ENDBRANCH  11  12
ENDBRANCH   5  11
ENDBRANCH   1   8
BRANCH   2  18
ATOM     18  C   UNL     1      10.159   4.144   0.016  0.00  0.00    +0.153 C 
BRANCH  18  19
ATOM     19  C   UNL     1      11.556   4.644   0.281  0.00  0.00    +0.058 A 
ATOM     20  C   UNL     1      12.621   4.011  -0.276  0.00  0.00    +0.071 A 
ATOM     21  S   UNL     1      13.965   5.004   0.361  0.00  0.00    -0.075 S 
ATOM     22  C   UNL     1      12.964   6.152   1.297  0.00  0.00    +0.109 A 
ATOM     23  N   UNL     1      11.745   5.696   1.046  0.00  0.00    -0.243 NA
BRANCH  22  24
ATOM     24  C   UNL     1      13.383   7.303   2.125  0.00  0.00    +0.014 A 
ATOM     25  C   UNL     1      14.730   7.633   2.259  0.00  0.00    +0.018 A 
ATOM     26  C   UNL     1      15.072   8.693   3.025  0.00  0.00    +0.046 A 
ATOM     27  S   UNL     1      13.486   9.277   3.596  0.00  0.00    -0.104 S 
ATOM     28  C   UNL     1      12.456   8.074   2.774  0.00  0.00    +0.055 A 
ENDBRANCH  22  24
ENDBRANCH  18  19
ENDBRANCH   2  18
TORSDOF 7
