REMARK  Name = ZINC12218011
REMARK  9 active torsions:
REMARK  status: ('A' for Active; 'I' for Inactive)
REMARK    1  A    between atoms: C_1  and  C_2
REMARK    2  A    between atoms: C_3  and  C_7
REMARK    3  A    between atoms: C_7  and  N_56
REMARK    4  A    between atoms: C_8  and  C_9
REMARK    5  A    between atoms: C_8  and  N_56
REMARK    6  A    between atoms: C_18  and  O_19
REMARK    7  A    between atoms: O_19  and  C_20
REMARK    8  A    between atoms: C_20  and  C_21
REMARK    9  A    between atoms: C_25  and  C_27
REMARK                            x       y       z     vdW  Elec       q    Type
REMARK                         _______ _______ _______ _____ _____    ______ ____
ROOT
ATOM      1  C   UNL     1      -0.123   7.698  -2.785  0.00  0.00    -0.002 A 
ATOM      2  C   UNL     1      -0.149   9.048  -2.973  0.00  0.00    +0.017 A 
ATOM      3  C   UNL     1      -0.150   9.880  -1.836  0.00  0.00    +0.001 A 
ATOM      4  C   UNL     1      -0.171  11.277  -1.953  0.00  0.00    +0.014 A 
ATOM      5  C   UNL     1      -0.169  12.056  -0.832  0.00  0.00    -0.043 A 
ATOM      6  C   UNL     1      -0.147  11.476   0.436  0.00  0.00    -0.042 A 
ATOM      7  C   UNL     1      -0.128  10.119   0.582  0.00  0.00    +0.032 A 
ATOM      8  C   UNL     1      -0.129   9.288  -0.549  0.00  0.00    +0.075 A 
ATOM      9  N   UNL     1      -0.110   7.956  -0.428  0.00  0.00    -0.213 NA
ATOM     10  C   UNL     1      -0.110   7.175  -1.486  0.00  0.00    +0.217 A 
ATOM     11  C   UNL     1      -0.149  12.565   1.490  0.00  0.00    +0.036 C 
ATOM     12  C   UNL     1       0.269  13.850   0.747  0.00  0.00    +0.009 C 
ATOM     13  C   UNL     1      -0.187  13.565  -0.699  0.00  0.00    +0.036 C 
ENDROOT
BRANCH   1  14
ATOM     14  C   UNL     1      -0.115   6.770  -3.972  0.00  0.00    -0.041 C 
BRANCH  14  15
ATOM     15  N   UNL     1      -1.482   6.262  -4.198  0.00  0.00    +0.386 N 
ATOM     16  H   UNL     1      -1.797   5.755  -3.362  0.00  0.00    -0.085 HD
ATOM     17  H   UNL     1      -2.112   7.052  -4.377  0.00  0.00    -0.085 HD
BRANCH  15  18
ATOM     18  C   UNL     1      -1.504   5.349  -5.357  0.00  0.00    -0.020 C 
BRANCH  18  21
ATOM     19  C   UNL     1      -3.685   6.731  -7.162  0.00  0.00    +0.071 C 
ATOM     20  C   UNL     1      -3.885   5.464  -6.370  0.00  0.00    +0.103 A 
ATOM     21  C   UNL     1      -2.909   4.847  -5.563  0.00  0.00    +0.090 A 
ATOM     22  N   UNL     1      -3.409   3.773  -5.028  0.00  0.00    -0.056 NA
ATOM     23  O   UNL     1      -4.751   3.662  -5.473  0.00  0.00    -0.242 OA
ATOM     24  N   UNL     1      -4.983   4.772  -6.326  0.00  0.00    -0.054 NA
ENDBRANCH  18  21
ENDBRANCH  15  18
ENDBRANCH  14  15
ENDBRANCH   1  14
BRANCH  10  25
ATOM     25  O   UNL     1      -0.090   5.830  -1.315  0.00  0.00    -0.471 OA
BRANCH  25  26
ATOM     26  C   UNL     1      -0.070   5.347   0.030  0.00  0.00    +0.266 C 
BRANCH  26  27
ATOM     27  C   UNL     1      -0.050   3.840   0.022  0.00  0.00    -0.010 A 
ATOM     28  C   UNL     1       1.157   3.165   0.008  0.00  0.00    +0.007 A 
ATOM     29  C   UNL     1       1.175   1.783   0.000  0.00  0.00    +0.001 A 
ATOM     30  C   UNL     1      -0.013   1.076   0.008  0.00  0.00    +0.012 A 
ATOM     31  C   UNL     1      -1.219   1.750   0.017  0.00  0.00    +0.055 A 
ATOM     32  C   UNL     1      -1.238   3.133   0.030  0.00  0.00    +0.019 A 
BRANCH  31  33
ATOM     33  C   UNL     1      -2.514   0.979   0.019  0.00  0.00    +0.417 C 
ATOM     34  F   UNL     1      -2.239  -0.392   0.010  0.00  0.00    -0.166 F 
ATOM     35  F   UNL     1      -3.246   1.301   1.167  0.00  0.00    -0.166 F 
ATOM     36  F   UNL     1      -3.257   1.314  -1.118  0.00  0.00    -0.166 F 
ENDBRANCH  31  33
ENDBRANCH  26  27
ENDBRANCH  25  26
ENDBRANCH  10  25
TORSDOF 8
