REMARK  Name = ZINC66121339
REMARK  9 active torsions:
REMARK  status: ('A' for Active; 'I' for Inactive)
REMARK    1  A    between atoms: C_1  and  C_2
REMARK    2  A    between atoms: C_6  and  C_29
REMARK    3  A    between atoms: C_7  and  O_8
REMARK    4  A    between atoms: O_8  and  C_9
REMARK    5  A    between atoms: C_9  and  C_10
REMARK    6  A    between atoms: C_10  and  C_12
REMARK    7  A    between atoms: C_10  and  N_13
REMARK    8  A    between atoms: C_19  and  N_22
REMARK    9  A    between atoms: C_23  and  C_25
REMARK                            x       y       z     vdW  Elec       q    Type
REMARK                         _______ _______ _______ _____ _____    ______ ____
ROOT
ATOM      1  N   UNL     1      -0.383   0.141   5.240  0.00  0.00    -0.293 N 
ATOM      2  C   UNL     1      -0.534   0.357   6.562  0.00  0.00    +0.303 C 
ATOM      3  O   UNL     1      -1.145   1.333   6.953  0.00  0.00    -0.253 OA
ATOM      4  N   UNL     1      -0.007  -0.508   7.451  0.00  0.00    -0.286 N 
ATOM      5  C   UNL     1      -0.264  -0.353   8.889  0.00  0.00    +0.111 C 
ATOM      6  C   UNL     1       1.077  -0.323   9.629  0.00  0.00    +0.041 C 
ATOM      7  C   UNL     1       1.884  -1.571   9.266  0.00  0.00    +0.076 C 
ATOM      8  C   UNL     1       2.163  -1.580   7.761  0.00  0.00    +0.041 C 
ATOM      9  C   UNL     1       0.830  -1.628   6.999  0.00  0.00    +0.111 C 
ATOM     10  H   UNL     1       0.165  -0.596   4.929  0.00  0.00    +0.151 HD
ENDROOT
BRANCH   7  11
ATOM     11  N   UNL     1       3.154  -1.561   9.997  0.00  0.00    -0.312 N 
ATOM     12  C   UNL     1       3.793  -2.719  10.252  0.00  0.00    +0.216 C 
ATOM     13  O   UNL     1       3.318  -3.770   9.876  0.00  0.00    -0.276 OA
ATOM     14  H   UNL     1       3.534  -0.721  10.298  0.00  0.00    +0.149 HD
BRANCH  12  15
ATOM     15  C   UNL     1       5.099  -2.709  11.004  0.00  0.00    +0.075 C 
ATOM     16  C   UNL     1       4.930  -2.640  12.531  0.00  0.00    +0.013 C 
ATOM     17  C   UNL     1       4.888  -4.177  12.517  0.00  0.00    +0.001 C 
ATOM     18  C   UNL     1       5.700  -4.109  11.213  0.00  0.00    +0.013 C 
ENDBRANCH  12  15
ENDBRANCH   7  11
BRANCH   1  19
ATOM     19  C   UNL     1      -1.047   1.020   4.274  0.00  0.00    +0.109 C 
ATOM     20  C   UNL     1      -0.175   2.253   4.023  0.00  0.00    +0.031 C 
BRANCH  19  21
ATOM     21  C   UNL     1      -1.256   0.267   2.959  0.00  0.00    +0.251 C 
BRANCH  21  22
ATOM     22  O   UNL     1       0.014  -0.041   2.380  0.00  0.00    -0.490 OA
BRANCH  22  29
ATOM     23  C   UNL     1      -0.031   1.491   0.007  0.00  0.00    +0.047 C 
ATOM     24  C   UNL     1      -0.016  -0.016   0.001  0.00  0.00    -0.009 A 
ATOM     25  C   UNL     1      -0.017  -0.702  -1.198  0.00  0.00    +0.007 A 
ATOM     26  C   UNL     1      -0.003  -2.085  -1.204  0.00  0.00    +0.001 A 
ATOM     27  C   UNL     1       0.013  -2.784  -0.011  0.00  0.00    +0.007 A 
ATOM     28  C   UNL     1       0.015  -2.102   1.191  0.00  0.00    -0.009 A 
ATOM     29  C   UNL     1       0.006  -0.715   1.200  0.00  0.00    +0.126 A 
ATOM     30  C   UNL     1       0.032  -2.864   2.490  0.00  0.00    +0.047 C 
ENDBRANCH  22  29
ENDBRANCH  21  22
ENDBRANCH  19  21
ENDBRANCH   1  19
TORSDOF 6
