REMARK  Name = ZINC15002069
REMARK  9 active torsions:
REMARK  status: ('A' for Active; 'I' for Inactive)
REMARK    1  A    between atoms: C_1  and  O_2
REMARK    2  A    between atoms: O_2  and  C_3
REMARK    3  A    between atoms: C_3  and  C_5
REMARK    4  A    between atoms: C_6  and  O_25
REMARK    5  A    between atoms: C_17  and  C_19
REMARK    6  A    between atoms: O_25  and  C_26
REMARK    7  A    between atoms: C_26  and  C_27
REMARK    8  A    between atoms: C_27  and  C_28
REMARK    9  A    between atoms: C_28  and  C_29
REMARK                            x       y       z     vdW  Elec       q    Type
REMARK                         _______ _______ _______ _____ _____    ______ ____
ROOT
ATOM      1  C   UNL     1       1.304  -0.666  -0.045  0.00  0.00    +0.120 A 
ATOM      2  C   UNL     1       0.003  -0.005   0.027  0.00  0.00    +0.141 A 
ATOM      3  C   UNL     1      -0.017   1.375   0.034  0.00  0.00    +0.116 A 
ATOM      4  C   UNL     1       1.196   2.064   0.001  0.00  0.00    +0.255 A 
ATOM      5  O   UNL     1       1.177   3.284  -0.021  0.00  0.00    -0.268 OA
ATOM      6  N   UNL     1       2.393   1.429  -0.007  0.00  0.00    -0.310 N 
ATOM      7  C   UNL     1       2.469   0.096  -0.073  0.00  0.00    +0.041 A 
ATOM      8  C   UNL     1       3.752  -0.690  -0.193  0.00  0.00    +0.073 C 
ATOM      9  C   UNL     1       4.928   0.007   0.487  0.00  0.00    +0.114 C 
ATOM     10  N   UNL     1       5.490   0.971  -0.474  0.00  0.00    -0.297 N 
ATOM     11  C   UNL     1       4.587   1.993  -1.013  0.00  0.00    +0.129 C 
ATOM     12  C   UNL     1       3.568   2.297   0.085  0.00  0.00    +0.144 C 
ATOM     13  C   UNL     1       6.784   0.916  -0.845  0.00  0.00    +0.245 C 
ATOM     14  O   UNL     1       7.511   0.061  -0.385  0.00  0.00    -0.273 OA
ENDROOT
BRANCH  13  15
ATOM     15  C   UNL     1       7.329   1.917  -1.831  0.00  0.00    +0.204 C 
ATOM     16  C   UNL     1       6.655   1.719  -3.205  0.00  0.00    +0.043 C 
ATOM     17  C   UNL     1       7.837   1.944  -4.187  0.00  0.00    +0.031 C 
ATOM     18  C   UNL     1       9.016   1.359  -3.368  0.00  0.00    +0.161 C 
ATOM     19  O   UNL     1       8.736   1.712  -2.004  0.00  0.00    -0.367 OA
ENDBRANCH  13  15
BRANCH   1  20
ATOM     20  C   UNL     1       1.383  -2.135  -0.089  0.00  0.00    +0.344 C 
ATOM     21  O   UNL     1       1.256  -2.781   0.932  0.00  0.00    -0.245 OA
BRANCH  20  23
ATOM     22  C   UNL     1       1.662  -4.214  -1.231  0.00  0.00    +0.280 C 
ATOM     23  O   UNL     1       1.596  -2.764  -1.262  0.00  0.00    -0.464 OA
ENDBRANCH  20  23
ENDBRANCH   1  20
BRANCH   2  24
ATOM     24  O   UNL     1      -1.144  -0.721   0.086  0.00  0.00    -0.491 OA
BRANCH  24  25
ATOM     25  C   UNL     1      -2.366   0.016   0.154  0.00  0.00    +0.229 C 
BRANCH  25  26
ATOM     26  C   UNL     1      -3.546  -0.957   0.213  0.00  0.00    +0.046 C 
BRANCH  26  27
ATOM     27  C   UNL     1      -4.854  -0.168   0.286  0.00  0.00    +0.038 C 
BRANCH  27  28
ATOM     28  C   UNL     1      -6.016  -1.126   0.344  0.00  0.00    -0.044 A 
ATOM     29  C   UNL     1      -6.630  -1.568  -0.817  0.00  0.00    +0.023 A 
ATOM     30  C   UNL     1      -7.690  -2.450  -0.725  0.00  0.00    +0.111 A 
ATOM     31  N   UNL     1      -8.124  -2.863   0.450  0.00  0.00    -0.263 NA
ATOM     32  C   UNL     1      -7.567  -2.460   1.575  0.00  0.00    +0.111 A 
ATOM     33  C   UNL     1      -6.500  -1.582   1.561  0.00  0.00    +0.023 A 
ENDBRANCH  27  28
ENDBRANCH  26  27
ENDBRANCH  25  26
ENDBRANCH  24  25
ENDBRANCH   2  24
TORSDOF 8
