REMARK  Name = ZINC39765833
REMARK  8 active torsions:
REMARK  status: ('A' for Active; 'I' for Inactive)
REMARK    1  A    between atoms: C_1  and  C_2
REMARK    2  A    between atoms: C_2  and  C_3
REMARK    3  A    between atoms: C_3  and  C_5
REMARK    4  A    between atoms: C_3  and  S_13
REMARK    5  A    between atoms: S_13  and  C_14
REMARK    6  A    between atoms: C_17  and  C_25
REMARK    7  A    between atoms: N_18  and  C_19
REMARK    8  A    between atoms: C_26  and  C_34
REMARK                            x       y       z     vdW  Elec       q    Type
REMARK                         _______ _______ _______ _____ _____    ______ ____
ROOT
ATOM      1  C   UNL     1      -0.182   1.579  -3.045  0.00  0.00    +0.197 A 
ATOM      2  N   UNL     1       0.481   2.407  -2.268  0.00  0.00    -0.122 NA
ATOM      3  N   UNL     1       0.403   3.605  -2.727  0.00  0.00    -0.125 NA
ATOM      4  C   UNL     1      -0.317   3.618  -3.828  0.00  0.00    +0.205 A 
ATOM      5  N   UNL     1      -0.710   2.318  -4.069  0.00  0.00    -0.268 N 
ENDROOT
BRANCH   4   6
ATOM      6  C   UNL     1      -0.638   4.795  -4.649  0.00  0.00    +0.176 A 
ATOM      7  C   UNL     1      -0.226   6.064  -4.392  0.00  0.00    +0.006 A 
ATOM      8  C   UNL     1      -0.777   6.894  -5.464  0.00  0.00    +0.024 A 
ATOM      9  C   UNL     1      -0.719   8.256  -5.767  0.00  0.00    +0.012 A 
ATOM     10  C   UNL     1      -1.362   8.731  -6.876  0.00  0.00    +0.001 A 
ATOM     11  C   UNL     1      -2.072   7.869  -7.700  0.00  0.00    +0.004 A 
ATOM     12  C   UNL     1      -2.141   6.521  -7.416  0.00  0.00    +0.047 A 
ATOM     13  C   UNL     1      -1.495   6.016  -6.295  0.00  0.00    +0.136 A 
ATOM     14  O   UNL     1      -1.380   4.777  -5.775  0.00  0.00    -0.451 OA
ATOM     15  C   UNL     1       0.626   6.523  -3.237  0.00  0.00    +0.048 C 
ENDBRANCH   4   6
BRANCH   5  16
ATOM     16  C   UNL     1      -1.490   1.851  -5.136  0.00  0.00    +0.051 A 
ATOM     17  C   UNL     1      -1.003   1.920  -6.434  0.00  0.00    +0.026 A 
ATOM     18  C   UNL     1      -1.773   1.460  -7.484  0.00  0.00    +0.002 A 
ATOM     19  C   UNL     1      -3.028   0.931  -7.243  0.00  0.00    +0.000 A 
ATOM     20  C   UNL     1      -3.516   0.862  -5.951  0.00  0.00    +0.002 A 
ATOM     21  C   UNL     1      -2.747   1.315  -4.896  0.00  0.00    +0.026 A 
ENDBRANCH   5  16
BRANCH   1  22
ATOM     22  S   UNL     1      -0.353  -0.159  -2.814  0.00  0.00    -0.073 S 
BRANCH  22  23
ATOM     23  C   UNL     1       0.700  -0.518  -1.382  0.00  0.00    +0.140 C 
BRANCH  23  24
ATOM     24  C   UNL     1       2.144  -0.291  -1.750  0.00  0.00    +0.232 C 
ATOM     25  O   UNL     1       2.478  -0.283  -2.916  0.00  0.00    -0.274 OA
ATOM     26  N   UNL     1       3.063  -0.097  -0.784  0.00  0.00    -0.264 N 
ATOM     27  C   UNL     1       4.395   0.112  -1.125  0.00  0.00    +0.164 A 
ATOM     28  N   UNL     1       4.935   0.159  -2.323  0.00  0.00    -0.233 NA
ATOM     29  C   UNL     1       6.229   0.369  -2.481  0.00  0.00    +0.120 A 
ATOM     30  C   UNL     1       6.968   0.531  -1.356  0.00  0.00    +0.068 A 
ATOM     31  S   UNL     1       5.707   0.374  -0.103  0.00  0.00    -0.061 S 
ATOM     32  H   UNL     1       2.796  -0.104   0.148  0.00  0.00    +0.157 HD
ENDBRANCH  23  24
BRANCH  23  34
ATOM     33  C   UNL     1      -0.925  -2.171  -0.451  0.00  0.00    +0.005 C 
ATOM     34  C   UNL     1       0.505  -1.974  -0.957  0.00  0.00    +0.020 C 
ENDBRANCH  23  34
ENDBRANCH  22  23
ENDBRANCH   1  22
TORSDOF 6
