REMARK  Name = ZINC16887143
REMARK  9 active torsions:
REMARK  status: ('A' for Active; 'I' for Inactive)
REMARK    1  A    between atoms: C_1  and  C_2
REMARK    2  A    between atoms: C_2  and  C_3
REMARK    3  A    between atoms: C_3  and  C_25
REMARK    4  A    between atoms: N_4  and  N_5
REMARK    5  A    between atoms: C_6  and  C_8
REMARK    6  A    between atoms: C_9  and  C_24
REMARK    7  A    between atoms: N_13  and  S_14
REMARK    8  A    between atoms: S_14  and  C_17
REMARK    9  A    between atoms: C_20  and  C_23
REMARK                            x       y       z     vdW  Elec       q    Type
REMARK                         _______ _______ _______ _____ _____    ______ ____
ROOT
ATOM      1  C   UNL     1       2.426   4.089   0.001  0.00  0.00    +0.100 A 
ATOM      2  C   UNL     1       2.641   5.460   0.001  0.00  0.00    +0.060 A 
ATOM      3  N   UNL     1       3.879   5.882  -0.003  0.00  0.00    -0.228 NA
ATOM      4  C   UNL     1       4.900   5.038  -0.018  0.00  0.00    +0.178 A 
ATOM      5  S   UNL     1       4.110   3.491  -0.019  0.00  0.00    -0.046 S 
ATOM      6  N   UNL     1       6.250   5.317  -0.030  0.00  0.00    -0.194 N 
ATOM      7  C   UNL     1       1.487   6.429   0.009  0.00  0.00    +0.067 C 
ATOM      8  H   UNL     1       6.554   6.238  -0.028  0.00  0.00    +0.176 HD
ENDROOT
BRANCH   1  10
ATOM      9  N   UNL     1       1.188   1.993   0.001  0.00  0.00    -0.203 N 
ATOM     10  C   UNL     1       1.170   3.341   0.009  0.00  0.00    +0.272 C 
ATOM     11  O   UNL     1       0.107   3.935   0.022  0.00  0.00    -0.268 OA
ATOM     12  H   UNL     1       2.035   1.519  -0.009  0.00  0.00    +0.178 HD
BRANCH   9  14
ATOM     13  C   UNL     1       0.002  -0.004   0.002  0.00  0.00    +0.034 C 
ATOM     14  N   UNL     1      -0.015   1.276   0.009  0.00  0.00    -0.189 NA
ATOM     15  C   UNL     1       1.317  -0.740  -0.015  0.00  0.00    +0.062 C 
BRANCH  13  17
ATOM     16  C   UNL     1      -1.431  -1.553  -1.300  0.00  0.00    +0.010 C 
ATOM     17  C   UNL     1      -1.293  -0.775   0.010  0.00  0.00    +0.049 C 
ENDBRANCH  13  17
ENDBRANCH   9  14
ENDBRANCH   1  10
BRANCH   6  18
ATOM     18  S   UNL     1       7.351   4.081  -0.048  0.00  0.00    +0.074 S 
ATOM     19  O   UNL     1       8.637   4.683  -0.084  0.00  0.00    -0.150 OA
ATOM     20  O   UNL     1       6.962   3.176   0.977  0.00  0.00    -0.150 OA
BRANCH  18  21
ATOM     21  C   UNL     1       7.151   3.227  -1.576  0.00  0.00    +0.109 A 
ATOM     22  C   UNL     1       6.271   2.164  -1.664  0.00  0.00    +0.029 A 
ATOM     23  C   UNL     1       6.111   1.497  -2.864  0.00  0.00    +0.005 A 
ATOM     24  C   UNL     1       6.838   1.887  -3.974  0.00  0.00    -0.050 A 
ATOM     25  C   UNL     1       7.721   2.947  -3.885  0.00  0.00    +0.005 A 
ATOM     26  C   UNL     1       7.878   3.616  -2.686  0.00  0.00    +0.029 A 
ATOM     27  C   UNL     1       6.667   1.157  -5.281  0.00  0.00    +0.044 C 
ENDBRANCH  18  21
ENDBRANCH   6  18
TORSDOF 5
