REMARK  Name = ZINC11782699
REMARK  7 active torsions:
REMARK  status: ('A' for Active; 'I' for Inactive)
REMARK    1  A    between atoms: C_1  and  C_2
REMARK    2  A    between atoms: C_2  and  C_4
REMARK    3  A    between atoms: C_2  and  C_26
REMARK    4  A    between atoms: C_4  and  C_5
REMARK    5  A    between atoms: C_7  and  C_10
REMARK    6  A    between atoms: C_15  and  C_18
REMARK    7  A    between atoms: C_15  and  O_25
REMARK                            x       y       z     vdW  Elec       q    Type
REMARK                         _______ _______ _______ _____ _____    ______ ____
ROOT
ATOM      1  C   UNL     1       3.509   0.402  -0.029  0.00  0.00    +0.285 C 
ATOM      2  O   UNL     1       4.217   1.382  -0.160  0.00  0.00    -0.267 OA
ATOM      3  N   UNL     1       4.065  -0.823   0.061  0.00  0.00    -0.295 N 
ATOM      4  C   UNL     1       3.224  -2.028   0.071  0.00  0.00    +0.111 C 
ATOM      5  C   UNL     1       3.717  -2.977  -1.032  0.00  0.00    +0.058 C 
ATOM      6  C   UNL     1       5.209  -3.251  -0.831  0.00  0.00    +0.094 C 
ATOM      7  C   UNL     1       5.990  -1.940  -0.940  0.00  0.00    +0.058 C 
ATOM      8  C   UNL     1       5.522  -0.979   0.158  0.00  0.00    +0.111 C 
ENDROOT
BRANCH   6   9
ATOM      9  C   UNL     1       5.689  -4.212  -1.888  0.00  0.00    -0.016 A 
ATOM     10  C   UNL     1       6.172  -3.730  -3.091  0.00  0.00    +0.008 A 
ATOM     11  C   UNL     1       6.618  -4.610  -4.059  0.00  0.00    +0.020 A 
ATOM     12  C   UNL     1       6.571  -5.973  -3.828  0.00  0.00    +0.041 A 
ATOM     13  C   UNL     1       6.083  -6.455  -2.626  0.00  0.00    +0.020 A 
ATOM     14  C   UNL     1       5.643  -5.574  -1.657  0.00  0.00    +0.008 A 
ATOM     15 CL   UNL     1       7.125  -7.080  -5.046  0.00  0.00    -0.084 Cl
ENDBRANCH   6   9
BRANCH   1  18
ATOM     16  C   UNL     1      -0.017   1.293  -0.006  0.00  0.00    +0.085 A 
ATOM     17  C   UNL     1       1.325   1.698  -0.182  0.00  0.00    +0.081 A 
ATOM     18  C   UNL     1       2.043   0.553   0.030  0.00  0.00    +0.222 A 
ATOM     19  O   UNL     1       1.141  -0.409   0.303  0.00  0.00    -0.350 OA
ATOM     20  N   UNL     1       0.012   0.024   0.278  0.00  0.00    -0.082 NA
BRANCH  16  21
ATOM     21  C   UNL     1      -1.243   2.161  -0.130  0.00  0.00    +0.066 C 
BRANCH  21  23
ATOM     22  C   UNL     1      -2.711   0.200  -0.620  0.00  0.00    +0.013 C 
ATOM     23  C   UNL     1      -2.204   1.544  -1.147  0.00  0.00    +0.022 C 
BRANCH  23  24
ATOM     24  C   UNL     1      -3.372   2.472  -1.361  0.00  0.00    -0.044 A 
ATOM     25  C   UNL     1      -4.189   2.811  -0.300  0.00  0.00    +0.004 A 
ATOM     26  C   UNL     1      -5.258   3.666  -0.496  0.00  0.00    +0.000 A 
ATOM     27  C   UNL     1      -5.515   4.173  -1.755  0.00  0.00    +0.000 A 
ATOM     28  C   UNL     1      -4.700   3.830  -2.818  0.00  0.00    +0.000 A 
ATOM     29  C   UNL     1      -3.629   2.979  -2.621  0.00  0.00    +0.004 A 
ENDBRANCH  23  24
ENDBRANCH  21  23
ENDBRANCH  16  21
ENDBRANCH   1  18
BRANCH   6  30
ATOM     30  O   UNL     1       5.418  -3.823   0.462  0.00  0.00    -0.384 OA
ATOM     31  H   UNL     1       4.952  -4.659   0.603  0.00  0.00    +0.211 HD
ENDBRANCH   6  30
TORSDOF 6
