REMARK  Name = ZINC39887490
REMARK  7 active torsions:
REMARK  status: ('A' for Active; 'I' for Inactive)
REMARK    1  A    between atoms: C_1  and  C_2
REMARK    2  A    between atoms: C_5  and  N_9
REMARK    3  A    between atoms: C_6  and  C_8
REMARK    4  A    between atoms: C_10  and  C_20
REMARK    5  A    between atoms: C_15  and  C_18
REMARK    6  A    between atoms: C_23  and  O_26
REMARK    7  A    between atoms: O_26  and  C_27
REMARK                            x       y       z     vdW  Elec       q    Type
REMARK                         _______ _______ _______ _____ _____    ______ ____
ROOT
ATOM      1  N   UNL     1       0.028  -4.123  -0.033  0.00  0.00    -0.270 N 
ATOM      2  C   UNL     1      -1.189  -4.932   0.086  0.00  0.00    +0.197 C 
ATOM      3  N   UNL     1      -0.972  -6.015   1.047  0.00  0.00    -0.288 N 
ATOM      4  C   UNL     1       0.253  -6.552   1.211  0.00  0.00    +0.258 C 
ATOM      5  O   UNL     1       0.417  -7.481   1.981  0.00  0.00    -0.269 OA
ATOM      6  C   UNL     1       1.387  -6.012   0.456  0.00  0.00    +0.142 C 
ATOM      7  C   UNL     1       1.236  -4.761  -0.171  0.00  0.00    +0.103 C 
ATOM      8  S   UNL     1       2.549  -4.036  -1.096  0.00  0.00    -0.033 SA
ATOM      9  H   UNL     1      -1.717  -6.348   1.571  0.00  0.00    +0.151 HD
ENDROOT
BRANCH   1  14
ATOM     10  C   UNL     1      -0.253   1.541   0.053  0.00  0.00    +0.044 C 
ATOM     11  C   UNL     1      -0.178   0.036   0.030  0.00  0.00    -0.050 A 
ATOM     12  C   UNL     1      -0.112  -0.633  -1.178  0.00  0.00    +0.005 A 
ATOM     13  C   UNL     1      -0.044  -2.012  -1.203  0.00  0.00    +0.024 A 
ATOM     14  C   UNL     1      -0.040  -2.727  -0.012  0.00  0.00    +0.039 A 
ATOM     15  C   UNL     1      -0.106  -2.052   1.200  0.00  0.00    -0.029 A 
ATOM     16  C   UNL     1      -0.170  -0.672   1.218  0.00  0.00    +0.008 A 
ATOM     17  C   UNL     1      -0.103  -2.823   2.495  0.00  0.00    +0.045 C 
ENDBRANCH   1  14
BRANCH   2  18
ATOM     18  C   UNL     1      -1.534  -5.519  -1.259  0.00  0.00    -0.009 A 
ATOM     19  C   UNL     1      -1.060  -4.925  -2.414  0.00  0.00    +0.010 A 
ATOM     20  C   UNL     1      -1.374  -5.461  -3.647  0.00  0.00    +0.046 A 
ATOM     21  C   UNL     1      -2.167  -6.597  -3.727  0.00  0.00    +0.120 A 
ATOM     22  C   UNL     1      -2.641  -7.192  -2.567  0.00  0.00    +0.046 A 
ATOM     23  C   UNL     1      -2.319  -6.655  -1.335  0.00  0.00    +0.010 A 
BRANCH  21  24
ATOM     24  O   UNL     1      -2.478  -7.126  -4.940  0.00  0.00    -0.495 OA
ATOM     25  C   UNL     1      -3.298  -8.296  -4.946  0.00  0.00    +0.277 C 
ENDBRANCH  21  24
ENDBRANCH   2  18
BRANCH   6  26
ATOM     26  C   UNL     1       2.616  -6.740   0.355  0.00  0.00    +0.107 C 
ATOM     27  N   UNL     1       3.591  -7.318   0.275  0.00  0.00    -0.191 NA
ENDBRANCH   6  26
TORSDOF 4
