REMARK  Name = ZINC10059395
REMARK  7 active torsions:
REMARK  status: ('A' for Active; 'I' for Inactive)
REMARK    1  A    between atoms: C_1  and  C_2
REMARK    2  A    between atoms: C_2  and  C_3
REMARK    3  A    between atoms: C_2  and  C_4
REMARK    4  A    between atoms: C_2  and  C_5
REMARK    5  A    between atoms: C_14  and  O_28
REMARK    6  A    between atoms: C_16  and  C_19
REMARK    7  A    between atoms: C_24  and  O_25
REMARK                            x       y       z     vdW  Elec       q    Type
REMARK                         _______ _______ _______ _____ _____    ______ ____
ROOT
ATOM      1  C   UNL     1      -3.094   1.615   6.865  0.00  0.00    -0.000 C 
ATOM      2  C   UNL     1      -1.798   2.383   6.591  0.00  0.00    +0.009 C 
ATOM      3  C   UNL     1      -1.880   3.074   5.229  0.00  0.00    +0.037 C 
ATOM      4  C   UNL     1      -2.271   2.042   4.177  0.00  0.00    -0.023 A 
ATOM      5  C   UNL     1      -2.837   0.867   4.536  0.00  0.00    -0.004 A 
ATOM      6  S   UNL     1      -3.111   0.008   3.009  0.00  0.00    -0.078 S 
ATOM      7  C   UNL     1      -2.492   1.181   1.929  0.00  0.00    +0.080 A 
ATOM      8  C   UNL     1      -2.071   2.233   2.751  0.00  0.00    +0.068 A 
ATOM      9  C   UNL     1      -1.471   3.419   2.087  0.00  0.00    +0.220 C 
ATOM     10  N   UNL     1      -1.191   3.326   0.816  0.00  0.00    -0.223 NA
ATOM     11  C   UNL     1      -1.332   2.114   0.020  0.00  0.00    +0.227 C 
ATOM     12  N   UNL     1      -2.376   1.224   0.560  0.00  0.00    -0.313 N 
ATOM     13  C   UNL     1      -3.158   0.404   5.923  0.00  0.00    +0.046 C 
ATOM     14  H   UNL     1      -2.950   0.699  -0.019  0.00  0.00    +0.149 HD
ENDROOT
BRANCH  11  15
ATOM     15  C   UNL     1      -0.017   1.378   0.010  0.00  0.00    +0.038 A 
ATOM     16  C   UNL     1       0.002  -0.004   0.002  0.00  0.00    +0.031 A 
ATOM     17  C   UNL     1       1.209  -0.681  -0.013  0.00  0.00    +0.043 A 
ATOM     18  C   UNL     1       2.399   0.024  -0.020  0.00  0.00    +0.039 A 
ATOM     19  C   UNL     1       2.385   1.406  -0.013  0.00  0.00    +0.061 A 
ATOM     20  C   UNL     1       1.175   2.087   0.002  0.00  0.00    +0.138 A 
ATOM     21 BR   UNL     1       4.012   2.370  -0.022  0.00  0.00    -0.046 Br
ATOM     22 CL   UNL     1       1.229  -2.417  -0.022  0.00  0.00    -0.083 Cl
BRANCH  20  23
ATOM     23  O   UNL     1       1.159   3.446   0.009  0.00  0.00    -0.505 OA
ATOM     24  H   UNL     1       1.162   3.835   0.894  0.00  0.00    +0.292 HD
ENDBRANCH  20  23
ENDBRANCH  11  15
BRANCH   1  26
ATOM     25  C   UNL     1      -1.901   0.231   8.569  0.00  0.00    +0.011 C 
ATOM     26  C   UNL     1      -3.109   1.136   8.318  0.00  0.00    -0.035 C 
ATOM     27  C   UNL     1      -3.045   2.344   9.255  0.00  0.00    +0.011 C 
ATOM     28  C   UNL     1      -4.397   0.353   8.584  0.00  0.00    +0.011 C 
ENDBRANCH   1  26
BRANCH   9  29
ATOM     29  O   UNL     1      -1.223   4.556   2.777  0.00  0.00    -0.492 OA
ATOM     30  H   UNL     1      -0.832   5.262   2.244  0.00  0.00    +0.294 HD
ENDBRANCH   9  29
TORSDOF 4
