REMARK  Name = ZINC66976371
REMARK  6 active torsions:
REMARK  status: ('A' for Active; 'I' for Inactive)
REMARK    1  A    between atoms: C_1  and  N_2
REMARK    2  A    between atoms: C_10  and  C_11
REMARK    3  A    between atoms: C_11  and  N_12
REMARK    4  A    between atoms: N_15  and  C_16
REMARK    5  A    between atoms: C_16  and  C_17
REMARK    6  A    between atoms: C_17  and  O_27
REMARK                            x       y       z     vdW  Elec       q    Type
REMARK                         _______ _______ _______ _____ _____    ______ ____
ROOT
ATOM      1  N   UNL     1      -1.379  -0.710   3.192  0.00  0.00    -0.292 N 
ATOM      2  C   UNL     1      -1.609  -0.160   4.401  0.00  0.00    +0.300 C 
ATOM      3  O   UNL     1      -0.687   0.021   5.172  0.00  0.00    -0.253 OA
ATOM      4  N   UNL     1      -2.862   0.189   4.755  0.00  0.00    -0.296 N 
ATOM      5  H   UNL     1      -2.116  -0.855   2.577  0.00  0.00    +0.151 HD
ATOM      6  H   UNL     1      -3.598   0.044   4.141  0.00  0.00    +0.150 HD
ENDROOT
BRANCH   1   7
ATOM      7  C   UNL     1      -0.018  -1.089   2.807  0.00  0.00    +0.180 C 
BRANCH   7  17
ATOM      8  C   UNL     1       0.324   0.483   0.166  0.00  0.00    +0.150 C 
ATOM      9  N   UNL     1       0.119  -0.964   0.270  0.00  0.00    -0.329 N 
ATOM     10  C   UNL     1       0.052  -1.859  -0.779  0.00  0.00    +0.069 A 
ATOM     11  C   UNL     1       0.142  -1.738  -2.159  0.00  0.00    +0.028 A 
ATOM     12  C   UNL     1       0.030  -2.861  -2.951  0.00  0.00    +0.002 A 
ATOM     13  C   UNL     1      -0.173  -4.109  -2.378  0.00  0.00    +0.002 A 
ATOM     14  C   UNL     1      -0.264  -4.246  -1.022  0.00  0.00    +0.030 A 
ATOM     15  C   UNL     1      -0.152  -3.122  -0.199  0.00  0.00    +0.089 A 
ATOM     16  N   UNL     1      -0.198  -2.938   1.145  0.00  0.00    -0.231 NA
ATOM     17  C   UNL     1      -0.034  -1.676   1.419  0.00  0.00    +0.128 A 
ENDBRANCH   7  17
ENDBRANCH   1   7
BRANCH   4  18
ATOM     18  C   UNL     1      -3.112   0.786   6.070  0.00  0.00    +0.145 C 
BRANCH  18  19
ATOM     19  C   UNL     1      -4.619   0.961   6.272  0.00  0.00    +0.107 C 
ATOM     20  C   UNL     1      -5.307  -0.395   6.128  0.00  0.00    +0.041 C 
ATOM     21  C   UNL     1      -6.774  -0.239   6.546  0.00  0.00    +0.008 C 
ATOM     22  C   UNL     1      -6.822  -0.015   8.056  0.00  0.00    +0.035 C 
ATOM     23  C   UNL     1      -5.886   1.096   8.457  0.00  0.00    -0.041 A 
ATOM     24  C   UNL     1      -4.872   1.541   7.639  0.00  0.00    -0.011 A 
ATOM     25  C   UNL     1      -4.039   2.565   8.071  0.00  0.00    +0.007 A 
ATOM     26  C   UNL     1      -4.223   3.141   9.312  0.00  0.00    +0.000 A 
ATOM     27  C   UNL     1      -5.243   2.697  10.131  0.00  0.00    +0.000 A 
ATOM     28  C   UNL     1      -6.070   1.678   9.704  0.00  0.00    +0.004 A 
BRANCH  19  29
ATOM     29  O   UNL     1      -5.127   1.855   5.279  0.00  0.00    -0.382 OA
ATOM     30  H   UNL     1      -4.729   2.736   5.303  0.00  0.00    +0.211 HD
ENDBRANCH  19  29
ENDBRANCH  18  19
ENDBRANCH   4  18
TORSDOF 5
