REMARK  Name = ZINC41649520
REMARK  5 active torsions:
REMARK  status: ('A' for Active; 'I' for Inactive)
REMARK    1  A    between atoms: C_1  and  C_2
REMARK    2  A    between atoms: C_2  and  C_4
REMARK    3  A    between atoms: C_2  and  N_12
REMARK    4  A    between atoms: N_12  and  C_13
REMARK    5  A    between atoms: C_16  and  C_20
REMARK                            x       y       z     vdW  Elec       q    Type
REMARK                         _______ _______ _______ _____ _____    ______ ____
ROOT
ATOM      1  N   UNL     1      -1.372  -0.511   0.012  0.00  0.00    -0.336 N 
ATOM      2  H   UNL     1      -1.810  -0.743  -0.822  0.00  0.00    +0.147 HD
ENDROOT
BRANCH   1   3
ATOM      3  C   UNL     1      -2.050  -0.660   1.219  0.00  0.00    +0.042 A 
ATOM      4  C   UNL     1      -1.423  -0.321   2.414  0.00  0.00    +0.025 A 
ATOM      5  C   UNL     1      -2.090  -0.467   3.610  0.00  0.00    +0.021 A 
ATOM      6  C   UNL     1      -3.400  -0.956   3.622  0.00  0.00    +0.053 A 
ATOM      7  C   UNL     1      -4.028  -1.295   2.420  0.00  0.00    +0.036 A 
ATOM      8  C   UNL     1      -3.357  -1.142   1.228  0.00  0.00    +0.040 A 
ATOM      9 BR   UNL     1      -4.207  -1.593  -0.400  0.00  0.00    -0.048 Br
BRANCH   6  10
ATOM     10  C   UNL     1      -4.097  -1.109   4.864  0.00  0.00    +0.099 C 
ATOM     11  N   UNL     1      -4.649  -1.231   5.849  0.00  0.00    -0.191 NA
ENDBRANCH   6  10
ENDBRANCH   1   3
BRANCH   1  13
ATOM     12  C   UNL     1      -0.019   1.526   0.010  0.00  0.00    +0.033 C 
ATOM     13  C   UNL     1       0.002  -0.004   0.002  0.00  0.00    +0.099 C 
BRANCH  13  14
ATOM     14  C   UNL     1       0.707  -0.490  -1.238  0.00  0.00    -0.014 A 
ATOM     15  C   UNL     1      -0.023  -0.817  -2.365  0.00  0.00    +0.007 A 
ATOM     16  C   UNL     1       0.624  -1.262  -3.503  0.00  0.00    +0.015 A 
ATOM     17  C   UNL     1       2.002  -1.381  -3.514  0.00  0.00    +0.019 A 
ATOM     18  C   UNL     1       2.733  -1.054  -2.386  0.00  0.00    +0.031 A 
ATOM     19  C   UNL     1       2.086  -0.603  -1.250  0.00  0.00    +0.024 A 
ATOM     20 BR   UNL     1       3.085  -0.149   0.290  0.00  0.00    -0.050 Br
ATOM     21 BR   UNL     1       2.886  -1.991  -5.070  0.00  0.00    -0.050 Br
ENDBRANCH  13  14
ENDBRANCH   1  13
TORSDOF 4
