REMARK  Name = ZINC05126576
REMARK  3 active torsions:
REMARK  status: ('A' for Active; 'I' for Inactive)
REMARK    1  A    between atoms: C_17  and  C_28
REMARK    2  A    between atoms: C_19  and  O_27
REMARK    3  A    between atoms: N_30  and  N_31
REMARK                            x       y       z     vdW  Elec       q    Type
REMARK                         _______ _______ _______ _____ _____    ______ ____
ROOT
ATOM      1  C   UNL     1       2.543  -8.433  -0.487  0.00  0.00    +0.001 A 
ATOM      2  C   UNL     1       1.209  -8.520  -0.126  0.00  0.00    +0.002 A 
ATOM      3  C   UNL     1       0.436  -7.398   0.121  0.00  0.00    +0.026 A 
ATOM      4  C   UNL     1       1.061  -6.160  -0.011  0.00  0.00    +0.047 A 
ATOM      5  C   UNL     1       2.429  -6.076  -0.381  0.00  0.00    +0.003 A 
ATOM      6  C   UNL     1       3.185  -7.227  -0.624  0.00  0.00    +0.010 A 
ATOM      7  C   UNL     1       2.744  -4.666  -0.423  0.00  0.00    -0.022 A 
ATOM      8  C   UNL     1       1.615  -3.994  -0.098  0.00  0.00    +0.006 A 
ATOM      9  N   UNL     1       0.605  -4.883   0.152  0.00  0.00    -0.359 N 
ATOM     10  H   UNL     1      -0.300  -4.642   0.406  0.00  0.00    +0.166 HD
ATOM     11  C   UNL     1       1.547  -2.489  -0.040  0.00  0.00    -0.020 C 
ATOM     12  C   UNL     1       0.776  -2.047   1.205  0.00  0.00    -0.006 C 
ATOM     13  C   UNL     1       0.736  -0.515   1.244  0.00  0.00    -0.010 C 
ATOM     14  C   UNL     1       0.002  -0.004   0.002  0.00  0.00    +0.019 C 
ATOM     15  C   UNL     1      -0.019   1.525   0.010  0.00  0.00    +0.105 C 
ATOM     16  C   UNL     1       1.418   2.053  -0.001  0.00  0.00    +0.127 C 
ATOM     17  C   UNL     1       2.152   1.550   1.244  0.00  0.00    +0.034 C 
ATOM     18  C   UNL     1       2.170   0.022   1.248  0.00  0.00    -0.022 C 
ATOM     19  C   UNL     1       2.912  -0.490   0.012  0.00  0.00    -0.074 C 
ATOM     20  C   UNL     1       3.761  -2.508  -1.043  0.00  0.00    -0.073 C 
ATOM     21  C   UNL     1       4.049  -3.988  -0.757  0.00  0.00    +0.019 C 
ATOM     22  N   UNL     1       2.928  -1.968   0.058  0.00  0.00    +0.386 N 
ATOM     23  H   UNL     1       3.332  -2.266   0.954  0.00  0.00    -0.081 HD
ENDROOT
BRANCH  15  24
ATOM     24  C   UNL     1      -0.747   2.025  -1.211  0.00  0.00    +0.232 C 
ATOM     25  O   UNL     1      -1.204   1.235  -2.009  0.00  0.00    -0.274 OA
ATOM     26  N   UNL     1      -0.890   3.349  -1.415  0.00  0.00    -0.253 N 
ATOM     27  H   UNL     1      -0.524   3.981  -0.776  0.00  0.00    +0.169 HD
BRANCH  26  28
ATOM     28  N   UNL     1      -1.550   3.802  -2.522  0.00  0.00    -0.254 NA
ATOM     29  H   UNL     1      -2.480   3.414  -2.572  0.00  0.00    +0.140 HD
ATOM     30  H   UNL     1      -1.577   4.811  -2.540  0.00  0.00    +0.140 HD
ENDBRANCH  26  28
ENDBRANCH  15  24
BRANCH  16  31
ATOM     31  O   UNL     1       2.089   1.585  -1.172  0.00  0.00    -0.391 OA
ATOM     32  H   UNL     1       3.006   1.881  -1.245  0.00  0.00    +0.210 HD
ENDBRANCH  16  31
TORSDOF 3
