REMARK  Name = ZINC37008918
REMARK  3 active torsions:
REMARK  status: ('A' for Active; 'I' for Inactive)
REMARK    1  A    between atoms: C_4  and  N_5
REMARK    2  A    between atoms: N_5  and  N_6
REMARK    3  A    between atoms: C_7  and  C_9
REMARK                            x       y       z     vdW  Elec       q    Type
REMARK                         _______ _______ _______ _____ _____    ______ ____
ROOT
ATOM      1  N   UNL     1       2.981   2.337   3.953  0.00  0.00    -0.230 N 
ATOM      2  C   UNL     1       3.500   2.392   5.195  0.00  0.00    +0.280 C 
ATOM      3  O   UNL     1       3.746   1.365   5.797  0.00  0.00    -0.267 OA
ATOM      4  H   UNL     1       2.784   3.157   3.473  0.00  0.00    +0.173 HD
ENDROOT
BRANCH   2   5
ATOM      5  C   UNL     1       3.770   3.700   5.826  0.00  0.00    +0.152 A 
ATOM      6  C   UNL     1       4.311   3.920   7.104  0.00  0.00    +0.005 A 
ATOM      7  C   UNL     1       4.377   5.266   7.254  0.00  0.00    +0.040 A 
ATOM      8  N   UNL     1       3.902   5.816   6.124  0.00  0.00    -0.281 N 
ATOM      9  H   UNL     1       3.835   6.768   5.955  0.00  0.00    +0.189 HD
ATOM     10  N   UNL     1       3.555   4.892   5.296  0.00  0.00    -0.169 NA
ATOM     11  C   UNL     1       4.897   5.948   8.493  0.00  0.00    +0.055 C 
ATOM     12  C   UNL     1       4.923   4.923   9.634  0.00  0.00    +0.006 C 
ATOM     13  C   UNL     1       5.630   3.649   9.166  0.00  0.00    +0.005 C 
ATOM     14  C   UNL     1       4.750   2.922   8.140  0.00  0.00    +0.039 C 
ENDBRANCH   2   5
BRANCH   1  15
ATOM     15  N   UNL     1       2.724   1.097   3.354  0.00  0.00    -0.252 N 
ATOM     16  H   UNL     1       2.921   0.277   3.834  0.00  0.00    +0.171 HD
BRANCH  15  20
ATOM     17  C   UNL     1      -0.019   1.520   0.010  0.00  0.00    +0.006 C 
ATOM     18  C   UNL     1       1.396   2.088  -0.000  0.00  0.00    +0.030 C 
ATOM     19  C   UNL     1       1.923   2.163   1.423  0.00  0.00    +0.013 C 
ATOM     20  C   UNL     1       2.189   1.041   2.073  0.00  0.00    +0.096 C 
ATOM     21  N   UNL     1       1.937  -0.192   1.486  0.00  0.00    -0.332 N 
ATOM     22  C   UNL     1       0.535  -0.593   1.289  0.00  0.00    +0.103 C 
ATOM     23  C   UNL     1       0.002  -0.004   0.002  0.00  0.00    +0.019 C 
ATOM     24  H   UNL     1       2.665  -0.772   1.214  0.00  0.00    +0.147 HD
ENDBRANCH  15  20
ENDBRANCH   1  15
TORSDOF 3
