REMARK  Name = ZINC43227044
REMARK  14 active torsions:
REMARK  status: ('A' for Active; 'I' for Inactive)
REMARK    1  A    between atoms: C_1  and  C_2
REMARK    2  A    between atoms: C_2  and  C_3
REMARK    3  A    between atoms: C_3  and  C_4
REMARK    4  A    between atoms: C_4  and  C_5
REMARK    5  A    between atoms: C_5  and  C_7
REMARK    6  A    between atoms: C_5  and  N_36
REMARK    7  A    between atoms: C_9  and  C_12
REMARK    8  A    between atoms: N_14  and  C_15
REMARK    9  A    between atoms: C_15  and  C_16
REMARK   10  A    between atoms: C_16  and  C_35
REMARK   11  A    between atoms: C_20  and  C_34
REMARK   12  A    between atoms: C_29  and  C_31
REMARK   13  A    between atoms: C_31  and  C_32
REMARK   14  A    between atoms: C_31  and  C_33
REMARK                            x       y       z     vdW  Elec       q    Type
REMARK                         _______ _______ _______ _____ _____    ______ ____
ROOT
ATOM      1  C   UNL     1       6.045  -7.282  -1.352  0.00  0.00    +0.111 C 
ENDROOT
BRANCH   1   2
ATOM      2  C   UNL     1       7.282  -6.425  -1.077  0.00  0.00    -0.013 C 
ATOM      3  C   UNL     1       7.635  -5.627  -2.334  0.00  0.00    +0.008 C 
ATOM      4  C   UNL     1       7.941  -6.601  -3.474  0.00  0.00    +0.001 C 
ATOM      5  C   UNL     1       9.140  -7.467  -3.088  0.00  0.00    +0.011 C 
ATOM      6  C   UNL     1       8.816  -8.272  -1.826  0.00  0.00    -0.003 C 
ATOM      7  C   UNL     1       8.446  -7.327  -0.687  0.00  0.00    +0.007 C 
ATOM      8  C   UNL     1       9.677  -6.495  -0.324  0.00  0.00    +0.009 C 
ATOM      9  C   UNL     1      10.690  -7.413   0.358  0.00  0.00    +0.036 C 
ATOM     10  C   UNL     1      10.898  -8.671  -0.445  0.00  0.00    -0.043 A 
ATOM     11  C   UNL     1      10.039  -9.071  -1.443  0.00  0.00    -0.038 A 
ATOM     12  C   UNL     1      10.286 -10.247  -2.138  0.00  0.00    +0.005 A 
ATOM     13  C   UNL     1      11.390 -11.018  -1.838  0.00  0.00    +0.004 A 
ATOM     14  C   UNL     1      12.257 -10.615  -0.839  0.00  0.00    -0.045 A 
ATOM     15  C   UNL     1      12.011  -9.447  -0.147  0.00  0.00    +0.007 A 
ATOM     16  C   UNL     1       7.651  -9.223  -2.110  0.00  0.00    +0.016 C 
ATOM     17  C   UNL     1       6.984  -5.456   0.069  0.00  0.00    +0.013 C 
BRANCH  14  18
ATOM     18  C   UNL     1      13.467 -11.449  -0.507  0.00  0.00    +0.013 C 
ATOM     19  C   UNL     1      13.019 -12.844  -0.066  0.00  0.00    +0.012 C 
ATOM     20  C   UNL     1      14.360 -11.568  -1.744  0.00  0.00    +0.012 C 
ENDBRANCH  14  18
ENDBRANCH   1   2
BRANCH   1  23
ATOM     21  C   UNL     1       3.678  -6.950  -1.823  0.00  0.00    +0.263 C 
ATOM     22  O   UNL     1       3.550  -8.159  -1.882  0.00  0.00    -0.269 OA
ATOM     23  N   UNL     1       4.885  -6.412  -1.563  0.00  0.00    -0.310 N 
ATOM     24  H   UNL     1       4.987  -5.449  -1.516  0.00  0.00    +0.149 HD
BRANCH  21  27
ATOM     25  C   UNL     1       1.528  -4.036  -2.178  0.00  0.00    +0.065 A 
ATOM     26  N   UNL     1       2.607  -4.744  -1.979  0.00  0.00    -0.241 NA
ATOM     27  C   UNL     1       2.512  -6.076  -2.035  0.00  0.00    +0.133 A 
ATOM     28  C   UNL     1       1.267  -6.580  -2.301  0.00  0.00    +0.079 A 
ATOM     29  S   UNL     1       0.337  -5.188  -2.445  0.00  0.00    -0.081 S 
BRANCH  25  30
ATOM     30  C   UNL     1       1.385  -2.536  -2.165  0.00  0.00    -0.018 C 
BRANCH  30  31
ATOM     31  N   UNL     1       0.572  -2.112  -3.313  0.00  0.00    +0.384 N 
ATOM     32  H   UNL     1       0.476  -1.108  -3.305  0.00  0.00    -0.089 HD
ATOM     33  H   UNL     1       1.023  -2.400  -4.169  0.00  0.00    -0.089 HD
ATOM     34  H   UNL     1      -0.341  -2.538  -3.255  0.00  0.00    -0.089 HD
ENDBRANCH  30  31
BRANCH  30  35
ATOM     35  C   UNL     1       0.702  -2.100  -0.868  0.00  0.00    -0.010 C 
BRANCH  35  36
ATOM     36  C   UNL     1       0.668  -0.572  -0.798  0.00  0.00    -0.001 C 
BRANCH  36  38
ATOM     37  C   UNL     1      -0.049   1.392   0.570  0.00  0.00    +0.004 C 
ATOM     38  C   UNL     1      -0.015  -0.136   0.500  0.00  0.00    -0.003 C 
ENDBRANCH  36  38
ENDBRANCH  35  36
ENDBRANCH  30  35
ENDBRANCH  25  30
ENDBRANCH  21  27
ENDBRANCH   1  23
TORSDOF 9
