REMARK  Name = ZINC05205509
REMARK  8 active torsions:
REMARK  status: ('A' for Active; 'I' for Inactive)
REMARK    1  A    between atoms: C_1  and  C_2
REMARK    2  A    between atoms: C_6  and  C_8
REMARK    3  A    between atoms: C_8  and  C_25
REMARK    4  A    between atoms: C_10  and  C_12
REMARK    5  A    between atoms: N_14  and  N_15
REMARK    6  A    between atoms: C_16  and  C_17
REMARK    7  A    between atoms: C_18  and  C_19
REMARK    8  A    between atoms: C_29  and  C_31
REMARK                            x       y       z     vdW  Elec       q    Type
REMARK                         _______ _______ _______ _____ _____    ______ ____
ROOT
ATOM      1  C   UNL     1      -4.716  -7.101   0.127  0.00  0.00    +0.033 C 
ATOM      2  C   UNL     1      -4.051  -7.112  -1.251  0.00  0.00    +0.031 C 
ATOM      3  C   UNL     1      -3.372  -6.400  -0.079  0.00  0.00    +0.093 C 
ENDROOT
BRANCH   1   9
ATOM      4  C   UNL     1      -7.125 -11.154   1.806  0.00  0.00    +0.044 C 
ATOM      5  C   UNL     1      -5.868 -10.328   1.713  0.00  0.00    -0.050 A 
ATOM      6  C   UNL     1      -4.715 -10.752   2.346  0.00  0.00    +0.003 A 
ATOM      7  C   UNL     1      -3.561  -9.995   2.260  0.00  0.00    +0.001 A 
ATOM      8  C   UNL     1      -3.561  -8.816   1.539  0.00  0.00    +0.004 A 
ATOM      9  C   UNL     1      -4.715  -8.389   0.910  0.00  0.00    -0.036 A 
ATOM     10  C   UNL     1      -5.869  -9.147   0.995  0.00  0.00    +0.008 A 
ENDBRANCH   1   9
BRANCH   1  11
ATOM     11  C   UNL     1      -5.934  -6.233   0.305  0.00  0.00    -0.036 A 
ATOM     12  C   UNL     1      -5.967  -5.286   1.312  0.00  0.00    +0.004 A 
ATOM     13  C   UNL     1      -7.083  -4.486   1.473  0.00  0.00    +0.001 A 
ATOM     14  C   UNL     1      -8.170  -4.639   0.633  0.00  0.00    +0.003 A 
ATOM     15  C   UNL     1      -8.139  -5.590  -0.370  0.00  0.00    -0.050 A 
ATOM     16  C   UNL     1      -7.021  -6.386  -0.534  0.00  0.00    +0.008 A 
ATOM     17  C   UNL     1      -9.324  -5.756  -1.286  0.00  0.00    +0.044 C 
ENDBRANCH   1  11
BRANCH   3  18
ATOM     18  C   UNL     1      -3.368  -4.893  -0.089  0.00  0.00    +0.236 C 
ATOM     19  O   UNL     1      -3.593  -4.292  -1.119  0.00  0.00    -0.274 OA
ATOM     20  N   UNL     1      -3.115  -4.212   1.047  0.00  0.00    -0.207 N 
ATOM     21  H   UNL     1      -2.935  -4.692   1.870  0.00  0.00    +0.177 HD
BRANCH  20  22
ATOM     22  N   UNL     1      -3.111  -2.811   1.038  0.00  0.00    -0.188 NA
ATOM     23  C   UNL     1      -2.867  -2.153   2.135  0.00  0.00    +0.130 C 
BRANCH  23  24
ATOM     24  C   UNL     1      -2.863  -0.735   2.125  0.00  0.00    +0.022 C 
ATOM     25  C   UNL     1      -2.610  -0.054   3.261  0.00  0.00    +0.009 C 
BRANCH  25  26
ATOM     26  C   UNL     1      -2.606   1.418   3.252  0.00  0.00    -0.025 A 
ATOM     27  C   UNL     1      -2.859   2.113   2.066  0.00  0.00    +0.008 A 
ATOM     28  C   UNL     1      -2.860   3.492   2.066  0.00  0.00    +0.001 A 
ATOM     29  C   UNL     1      -2.600   4.188   3.234  0.00  0.00    +0.000 A 
ATOM     30  C   UNL     1      -2.342   3.506   4.411  0.00  0.00    +0.001 A 
ATOM     31  C   UNL     1      -2.344   2.127   4.428  0.00  0.00    +0.008 A 
ENDBRANCH  25  26
ENDBRANCH  23  24
ENDBRANCH  20  22
ENDBRANCH   3  18
TORSDOF 6
