REMARK  Name = ZINC08397907
REMARK  6 active torsions:
REMARK  status: ('A' for Active; 'I' for Inactive)
REMARK    1  A    between atoms: C_4  and  C_7
REMARK    2  A    between atoms: N_9  and  C_10
REMARK    3  A    between atoms: C_10  and  C_21
REMARK    4  A    between atoms: C_11  and  C_12
REMARK    5  A    between atoms: C_15  and  N_18
REMARK    6  A    between atoms: N_23  and  C_24
REMARK                            x       y       z     vdW  Elec       q    Type
REMARK                         _______ _______ _______ _____ _____    ______ ____
ROOT
ATOM      1  C   UNL     1       4.781  -2.600   0.043  0.00  0.00    +0.097 C 
ATOM      2  C   UNL     1       4.722  -3.868   0.513  0.00  0.00    +0.036 C 
ENDROOT
BRANCH   2   3
ATOM      3  C   UNL     1       3.471  -4.634   0.410  0.00  0.00    -0.023 A 
ATOM      4  C   UNL     1       2.555  -4.351  -0.609  0.00  0.00    +0.010 A 
ATOM      5  C   UNL     1       1.385  -5.074  -0.700  0.00  0.00    +0.033 A 
ATOM      6  C   UNL     1       1.114  -6.076   0.215  0.00  0.00    +0.126 A 
ATOM      7  C   UNL     1       2.014  -6.362   1.226  0.00  0.00    +0.033 A 
ATOM      8  C   UNL     1       3.192  -5.652   1.327  0.00  0.00    +0.010 A 
BRANCH   6   9
ATOM      9  N   UNL     1      -0.146  -6.846   0.111  0.00  0.00    +0.056 N 
ATOM     10  O   UNL     1      -0.935  -6.599  -0.771  0.00  0.00    -0.126 OA
ATOM     11  O   UNL     1      -0.386  -7.723   0.909  0.00  0.00    -0.126 OA
ENDBRANCH   6   9
ENDBRANCH   2   3
BRANCH   1  14
ATOM     12  C   UNL     1       3.554  -1.531  -1.691  0.00  0.00    +0.248 C 
ATOM     13  O   UNL     1       4.535  -1.591  -2.407  0.00  0.00    -0.270 OA
ATOM     14  N   UNL     1       3.621  -1.972  -0.419  0.00  0.00    -0.277 N 
ATOM     15  H   UNL     1       2.864  -1.854   0.175  0.00  0.00    +0.155 HD
BRANCH  12  19
ATOM     16  C   UNL     1      -0.080   0.070  -3.196  0.00  0.00    +0.000 A 
ATOM     17  C   UNL     1       1.034   0.004  -4.014  0.00  0.00    +0.001 A 
ATOM     18  C   UNL     1       2.217  -0.515  -3.531  0.00  0.00    +0.013 A 
ATOM     19  C   UNL     1       2.290  -0.973  -2.215  0.00  0.00    +0.037 A 
ATOM     20  C   UNL     1       1.162  -0.903  -1.395  0.00  0.00    +0.013 A 
ATOM     21  C   UNL     1      -0.016  -0.382  -1.890  0.00  0.00    +0.001 A 
ENDBRANCH  12  19
ENDBRANCH   1  14
BRANCH   1  22
ATOM     22  C   UNL     1       6.064  -1.884   0.018  0.00  0.00    +0.262 C 
ATOM     23  O   UNL     1       7.068  -2.420   0.447  0.00  0.00    -0.268 OA
ATOM     24  N   UNL     1       6.128  -0.634  -0.481  0.00  0.00    -0.280 N 
ATOM     25  H   UNL     1       5.317  -0.181  -0.760  0.00  0.00    +0.155 HD
BRANCH  24  26
ATOM     26  C   UNL     1       7.361   0.009  -0.595  0.00  0.00    +0.041 A 
ATOM     27  C   UNL     1       8.527  -0.725  -0.633  0.00  0.00    +0.024 A 
ATOM     28  C   UNL     1       9.762  -0.093  -0.747  0.00  0.00    +0.002 A 
ATOM     29  C   UNL     1       9.853   1.263  -0.823  0.00  0.00    +0.008 A 
ATOM     30  C   UNL     1       8.688   2.048  -0.787  0.00  0.00    -0.016 A 
ATOM     31  C   UNL     1       7.425   1.417  -0.677  0.00  0.00    +0.003 A 
ATOM     32  C   UNL     1       6.262   2.202  -0.646  0.00  0.00    +0.010 A 
ATOM     33  C   UNL     1       6.361   3.557  -0.728  0.00  0.00    +0.001 A 
ATOM     34  C   UNL     1       7.603   4.179  -0.842  0.00  0.00    +0.001 A 
ATOM     35  C   UNL     1       8.752   3.450  -0.864  0.00  0.00    +0.008 A 
ENDBRANCH  24  26
ENDBRANCH   1  22
TORSDOF 6
