REMARK  Name = ZINC22416221
REMARK  6 active torsions:
REMARK  status: ('A' for Active; 'I' for Inactive)
REMARK    1  A    between atoms: C_1  and  C_2
REMARK    2  A    between atoms: C_5  and  N_8
REMARK    3  A    between atoms: N_8  and  C_9
REMARK    4  A    between atoms: C_9  and  C_10
REMARK    5  A    between atoms: C_15  and  C_17
REMARK    6  A    between atoms: C_17  and  N_18
REMARK                            x       y       z     vdW  Elec       q    Type
REMARK                         _______ _______ _______ _____ _____    ______ ____
ROOT
ATOM      1  N   UNL     1       2.677   6.690   2.380  0.00  0.00    -0.263 N 
ATOM      2  C   UNL     1       2.861   5.481   1.812  0.00  0.00    +0.238 C 
ATOM      3  O   UNL     1       3.197   4.536   2.494  0.00  0.00    -0.273 OA
ENDROOT
BRANCH   1   8
ATOM      4  C   UNL     1       3.056   7.268   8.011  0.00  0.00    +0.044 C 
ATOM      5  C   UNL     1       2.955   7.114   6.515  0.00  0.00    -0.050 A 
ATOM      6  C   UNL     1       3.901   7.703   5.696  0.00  0.00    +0.005 A 
ATOM      7  C   UNL     1       3.811   7.564   4.324  0.00  0.00    +0.024 A 
ATOM      8  C   UNL     1       2.771   6.832   3.769  0.00  0.00    +0.037 A 
ATOM      9  C   UNL     1       1.820   6.245   4.594  0.00  0.00    +0.024 A 
ATOM     10  C   UNL     1       1.918   6.384   5.965  0.00  0.00    +0.005 A 
ENDBRANCH   1   8
BRANCH   1  11
ATOM     11  C   UNL     1       2.378   7.854   1.543  0.00  0.00    +0.188 C 
BRANCH  11  12
ATOM     12  C   UNL     1       0.886   7.985   1.377  0.00  0.00    +0.122 A 
ATOM     13  C   UNL     1       0.063   8.681   2.181  0.00  0.00    +0.046 A 
ATOM     14  C   UNL     1      -1.242   8.532   1.659  0.00  0.00    +0.041 A 
ATOM     15  C   UNL     1      -1.139   7.753   0.568  0.00  0.00    +0.195 A 
ATOM     16  O   UNL     1       0.153   7.429   0.398  0.00  0.00    -0.466 OA
ENDBRANCH  11  12
ENDBRANCH   1  11
BRANCH   2  17
ATOM     17  C   UNL     1       2.651   5.305   0.330  0.00  0.00    +0.210 C 
BRANCH  17  18
ATOM     18  N   UNL     1       2.912   3.911  -0.037  0.00  0.00    -0.256 N 
ATOM     19  C   UNL     1       1.878   2.964  -0.019  0.00  0.00    +0.080 A 
ATOM     20  C   UNL     1       0.553   3.364   0.030  0.00  0.00    +0.047 A 
ATOM     21  C   UNL     1      -0.452   2.413   0.049  0.00  0.00    +0.043 A 
ATOM     22  C   UNL     1      -0.136   1.067   0.012  0.00  0.00    +0.024 A 
ATOM     23  C   UNL     1       1.186   0.662  -0.032  0.00  0.00    +0.049 A 
ATOM     24  C   UNL     1       2.196   1.607  -0.051  0.00  0.00    +0.143 A 
ATOM     25  O   UNL     1       3.501   1.227  -0.102  0.00  0.00    -0.481 OA
ATOM     26  C   UNL     1       4.394   2.089  -0.812  0.00  0.00    +0.325 C 
ATOM     27  C   UNL     1       4.153   3.519  -0.400  0.00  0.00    +0.258 C 
ATOM     28  O   UNL     1       5.069   4.314  -0.395  0.00  0.00    -0.271 OA
ATOM     29 CL   UNL     1      -2.114   2.912   0.111  0.00  0.00    -0.083 Cl
ENDBRANCH  17  18
ENDBRANCH   2  17
TORSDOF 5
