REMARK  Name = ZINC06883619
REMARK  4 active torsions:
REMARK  status: ('A' for Active; 'I' for Inactive)
REMARK    1  A    between atoms: C_6  and  C_7
REMARK    2  A    between atoms: C_10  and  C_12
REMARK    3  A    between atoms: C_25  and  N_29
REMARK    4  A    between atoms: C_26  and  C_27
REMARK                            x       y       z     vdW  Elec       q    Type
REMARK                         _______ _______ _______ _____ _____    ______ ____
ROOT
ATOM      1  C   UNL     1       2.471   1.390  -0.014  0.00  0.00    +0.141 C 
ATOM      2  C   UNL     1       2.320  -0.049  -0.427  0.00  0.00    +0.092 A 
ATOM      3  C   UNL     1       3.448  -0.776  -0.852  0.00  0.00    +0.262 A 
ATOM      4  O   UNL     1       4.544  -0.243  -0.886  0.00  0.00    -0.267 OA
ATOM      5  N   UNL     1       3.308  -2.064  -1.220  0.00  0.00    -0.275 N 
ATOM      6  H   UNL     1       4.107  -2.585  -1.522  0.00  0.00    +0.173 HD
ATOM      7  C   UNL     1       2.100  -2.655  -1.183  0.00  0.00    +0.329 A 
ATOM      8  O   UNL     1       1.992  -3.819  -1.520  0.00  0.00    -0.247 OA
ATOM      9  N   UNL     1       1.009  -1.978  -0.781  0.00  0.00    -0.278 N 
ATOM     10  H   UNL     1       0.120  -2.436  -0.761  0.00  0.00    +0.173 HD
ATOM     11  C   UNL     1       1.107  -0.662  -0.397  0.00  0.00    +0.214 A 
ATOM     12  O   UNL     1       0.002  -0.004   0.002  0.00  0.00    -0.425 OA
ATOM     13  C   UNL     1      -0.016   1.341   0.009  0.00  0.00    +0.200 C 
ATOM     14  C   UNL     1       1.127   2.067   0.002  0.00  0.00    +0.101 C 
ENDROOT
BRANCH   1  18
ATOM     15  C   UNL     1       3.358   1.171   3.523  0.00  0.00    +0.135 A 
ATOM     16  C   UNL     1       4.429   1.875   3.069  0.00  0.00    +0.050 A 
ATOM     17  C   UNL     1       4.243   2.047   1.683  0.00  0.00    +0.046 A 
ATOM     18  C   UNL     1       3.076   1.454   1.364  0.00  0.00    +0.119 A 
ATOM     19  O   UNL     1       2.546   0.923   2.478  0.00  0.00    -0.459 OA
BRANCH  15  25
ATOM     20  C   UNL     1       4.055   1.071   5.913  0.00  0.00    +0.013 A 
ATOM     21  C   UNL     1       3.829   0.681   7.216  0.00  0.00    +0.021 A 
ATOM     22  C   UNL     1       2.690  -0.036   7.541  0.00  0.00    +0.041 A 
ATOM     23  C   UNL     1       1.767  -0.361   6.561  0.00  0.00    +0.021 A 
ATOM     24  C   UNL     1       1.978   0.029   5.254  0.00  0.00    +0.013 A 
ATOM     25  C   UNL     1       3.125   0.751   4.921  0.00  0.00    +0.017 A 
ATOM     26 CL   UNL     1       2.417  -0.530   9.182  0.00  0.00    -0.084 Cl
ENDBRANCH  15  25
ENDBRANCH   1  18
BRANCH  13  27
ATOM     27  N   UNL     1      -1.223   1.994   0.019  0.00  0.00    -0.328 N 
ATOM     28  H   UNL     1      -2.050   1.485   0.020  0.00  0.00    +0.145 HD
ATOM     29  H   UNL     1      -1.250   2.963   0.024  0.00  0.00    +0.145 HD
ENDBRANCH  13  27
BRANCH  14  30
ATOM     30  C   UNL     1       1.057   3.497   0.011  0.00  0.00    +0.101 C 
ATOM     31  N   UNL     1       1.000   4.631   0.018  0.00  0.00    -0.191 NA
ENDBRANCH  14  30
TORSDOF 4
