REMARK  Name = ZINC05722361
REMARK  10 active torsions:
REMARK  status: ('A' for Active; 'I' for Inactive)
REMARK    1  A    between atoms: C_1  and  O_2
REMARK    2  A    between atoms: O_2  and  C_3
REMARK    3  A    between atoms: C_6  and  C_9
REMARK    4  A    between atoms: C_9  and  C_11
REMARK    5  A    between atoms: C_9  and  C_21
REMARK    6  A    between atoms: C_11  and  C_13
REMARK    7  A    between atoms: C_16  and  O_19
REMARK    8  A    between atoms: O_19  and  C_20
REMARK    9  A    between atoms: C_21  and  O_34
REMARK   10  A    between atoms: C_24  and  N_31
REMARK                            x       y       z     vdW  Elec       q    Type
REMARK                         _______ _______ _______ _____ _____    ______ ____
ROOT
ATOM      1  C   UNL     1      -0.002   1.513   0.024  0.00  0.00    +0.135 C 
ENDROOT
BRANCH   1   2
ATOM      2  C   UNL     1       0.122  -0.006   0.155  0.00  0.00    +0.182 C 
ATOM      3  C   UNL     1      -1.224  -0.622   0.465  0.00  0.00    +0.017 A 
ATOM      4  C   UNL     1      -2.419  -0.652  -0.217  0.00  0.00    +0.041 A 
ATOM      5  C   UNL     1      -3.508  -1.310   0.327  0.00  0.00    +0.127 A 
ATOM      6  C   UNL     1      -3.391  -1.934   1.555  0.00  0.00    +0.034 A 
ATOM      7  C   UNL     1      -2.195  -1.905   2.241  0.00  0.00    +0.026 A 
ATOM      8  C   UNL     1      -1.093  -1.245   1.700  0.00  0.00    +0.040 A 
ATOM      9  N   UNL     1       0.202  -1.078   2.190  0.00  0.00    -0.282 N 
ATOM     10  C   UNL     1       0.976  -0.367   1.352  0.00  0.00    +0.255 C 
ATOM     11  O   UNL     1       2.140  -0.072   1.522  0.00  0.00    -0.272 OA
ATOM     12  H   UNL     1       0.509  -1.433   3.039  0.00  0.00    +0.155 HD
BRANCH   5  13
ATOM     13  N   UNL     1      -4.795  -1.346  -0.404  0.00  0.00    +0.056 N 
ATOM     14  O   UNL     1      -5.752  -1.925   0.076  0.00  0.00    -0.126 OA
ATOM     15  O   UNL     1      -4.896  -0.796  -1.486  0.00  0.00    -0.126 OA
ENDBRANCH   5  13
BRANCH   2  16
ATOM     16  O   UNL     1       0.666  -0.568  -1.040  0.00  0.00    -0.374 OA
ATOM     17  H   UNL     1       0.767  -1.530  -1.012  0.00  0.00    +0.211 HD
ENDBRANCH   2  16
ENDBRANCH   1   2
BRANCH   1  21
ATOM     18  C   UNL     1      -1.193   3.176   3.776  0.00  0.00    +0.120 A 
ATOM     19  C   UNL     1       0.057   3.470   3.251  0.00  0.00    +0.046 A 
ATOM     20  C   UNL     1       0.440   2.932   2.038  0.00  0.00    +0.008 A 
ATOM     21  C   UNL     1      -0.422   2.099   1.347  0.00  0.00    -0.033 A 
ATOM     22  C   UNL     1      -1.670   1.809   1.865  0.00  0.00    +0.008 A 
ATOM     23  C   UNL     1      -2.056   2.341   3.081  0.00  0.00    +0.046 A 
BRANCH  18  25
ATOM     24  C   UNL     1      -2.873   3.358   5.449  0.00  0.00    +0.277 C 
ATOM     25  O   UNL     1      -1.572   3.704   4.970  0.00  0.00    -0.495 OA
ENDBRANCH  18  25
ENDBRANCH   1  21
BRANCH   1  26
ATOM     26  C   UNL     1      -1.034   1.845  -1.023  0.00  0.00    +0.174 C 
ATOM     27  O   UNL     1      -2.175   2.091  -0.693  0.00  0.00    -0.291 OA
BRANCH  26  28
ATOM     28  C   UNL     1      -0.659   1.870  -2.442  0.00  0.00    +0.018 A 
ATOM     29  C   UNL     1       0.681   1.709  -2.818  0.00  0.00    +0.015 A 
ATOM     30  C   UNL     1       1.026   1.729  -4.145  0.00  0.00    +0.046 A 
ATOM     31  C   UNL     1       0.049   1.918  -5.117  0.00  0.00    +0.120 A 
ATOM     32  C   UNL     1      -1.282   2.083  -4.749  0.00  0.00    +0.046 A 
ATOM     33  C   UNL     1      -1.638   2.060  -3.425  0.00  0.00    +0.015 A 
BRANCH  31  34
ATOM     34  O   UNL     1       0.396   1.941  -6.428  0.00  0.00    -0.495 OA
ATOM     35  C   UNL     1       1.780   1.765  -6.736  0.00  0.00    +0.277 C 
ENDBRANCH  31  34
ENDBRANCH  26  28
ENDBRANCH   1  26
TORSDOF 8
