REMARK  Name = ZINC18230845
REMARK  6 active torsions:
REMARK  status: ('A' for Active; 'I' for Inactive)
REMARK    1  A    between atoms: C_1  and  C_2
REMARK    2  A    between atoms: C_2  and  C_25
REMARK    3  A    between atoms: N_5  and  N_9
REMARK    4  A    between atoms: C_10  and  C_12
REMARK    5  A    between atoms: C_12  and  C_13
REMARK    6  A    between atoms: C_13  and  N_14
REMARK                            x       y       z     vdW  Elec       q    Type
REMARK                         _______ _______ _______ _____ _____    ______ ____
ROOT
ATOM      1  N   UNL     1      -2.537   8.997  -2.536  0.00  0.00    -0.224 N 
ATOM      2  C   UNL     1      -2.081   8.484  -1.376  0.00  0.00    +0.231 C 
ATOM      3  O   UNL     1      -2.473   8.933  -0.319  0.00  0.00    -0.274 OA
ATOM      4  H   UNL     1      -2.224   8.638  -3.381  0.00  0.00    +0.174 HD
ENDROOT
BRANCH   1   9
ATOM      5  C   UNL     1      -4.332  13.165  -1.571  0.00  0.00    +0.047 C 
ATOM      6  C   UNL     1      -4.453  12.103  -2.665  0.00  0.00    +0.137 C 
ATOM      7  C   UNL     1      -3.156  11.331  -2.805  0.00  0.00    +0.267 C 
ATOM      8  O   UNL     1      -2.069  11.774  -3.108  0.00  0.00    -0.271 OA
ATOM      9  N   UNL     1      -3.462  10.049  -2.522  0.00  0.00    -0.137 N 
ATOM     10  C   UNL     1      -4.760   9.905  -2.230  0.00  0.00    +0.327 C 
ATOM     11  O   UNL     1      -5.274   8.841  -1.945  0.00  0.00    -0.251 OA
ATOM     12  N   UNL     1      -5.431  11.070  -2.283  0.00  0.00    -0.280 N 
ATOM     13  H   UNL     1      -6.375  11.203  -2.108  0.00  0.00    +0.152 HD
BRANCH   6  14
ATOM     14  C   UNL     1      -4.836  12.737  -3.978  0.00  0.00    -0.015 A 
ATOM     15  C   UNL     1      -3.855  13.124  -4.871  0.00  0.00    +0.006 A 
ATOM     16  C   UNL     1      -4.207  13.701  -6.077  0.00  0.00    +0.000 A 
ATOM     17  C   UNL     1      -5.540  13.900  -6.385  0.00  0.00    +0.000 A 
ATOM     18  C   UNL     1      -6.521  13.518  -5.489  0.00  0.00    +0.000 A 
ATOM     19  C   UNL     1      -6.169  12.936  -4.285  0.00  0.00    +0.006 A 
ENDBRANCH   6  14
ENDBRANCH   1   9
BRANCH   2  20
ATOM     20  C   UNL     1      -1.086   7.353  -1.391  0.00  0.00    +0.119 C 
BRANCH  20  21
ATOM     21  C   UNL     1      -0.737   6.961   0.046  0.00  0.00    +0.138 C 
BRANCH  21  22
ATOM     22  N   UNL     1       0.231   5.861   0.030  0.00  0.00    -0.274 N 
ATOM     23  C   UNL     1      -0.069   4.498   0.026  0.00  0.00    +0.090 A 
ATOM     24  C   UNL     1      -1.258   3.786   0.034  0.00  0.00    +0.031 A 
ATOM     25  C   UNL     1      -1.232   2.405   0.021  0.00  0.00    +0.022 A 
ATOM     26  C   UNL     1      -0.021   1.732   0.012  0.00  0.00    +0.045 A 
ATOM     27  C   UNL     1       1.168   2.436   0.004  0.00  0.00    +0.068 A 
ATOM     28  C   UNL     1       1.150   3.822   0.011  0.00  0.00    +0.158 A 
ATOM     29  O   UNL     1       2.130   4.759   0.007  0.00  0.00    -0.407 OA
ATOM     30  C   UNL     1       1.573   5.980   0.019  0.00  0.00    +0.421 A 
ATOM     31  O   UNL     1       2.185   7.031   0.019  0.00  0.00    -0.223 OA
ATOM     32 CL   UNL     1       0.002  -0.004   0.002  0.00  0.00    -0.083 Cl
ENDBRANCH  21  22
ENDBRANCH  20  21
ENDBRANCH   2  20
TORSDOF 5
