REMARK  Name = ZINC27322669
REMARK  10 active torsions:
REMARK  status: ('A' for Active; 'I' for Inactive)
REMARK    1  A    between atoms: C_1  and  C_2
REMARK    2  A    between atoms: C_2  and  C_3
REMARK    3  A    between atoms: C_3  and  C_5
REMARK    4  A    between atoms: C_3  and  C_11
REMARK    5  A    between atoms: N_13  and  C_14
REMARK    6  A    between atoms: C_21  and  C_25
REMARK    7  A    between atoms: C_22  and  C_23
REMARK    8  A    between atoms: C_22  and  C_24
REMARK    9  A    between atoms: C_25  and  S_26
REMARK   10  A    between atoms: S_26  and  N_29
REMARK                            x       y       z     vdW  Elec       q    Type
REMARK                         _______ _______ _______ _____ _____    ______ ____
ROOT
ATOM      1  C   UNL     1      -9.104   3.366   3.052  0.00  0.00    +0.081 C 
ATOM      2  C   UNL     1     -10.411   2.658   3.514  0.00  0.00    +0.027 C 
ATOM      3  C   UNL     1     -10.540   1.414   2.583  0.00  0.00    -0.003 C 
ATOM      4  C   UNL     1     -10.905   2.007   1.188  0.00  0.00    +0.005 C 
ATOM      5  C   UNL     1      -9.615   2.717   0.716  0.00  0.00    +0.011 C 
ATOM      6  C   UNL     1      -8.593   2.486   1.870  0.00  0.00    +0.015 C 
ATOM      7  C   UNL     1      -9.027   1.060   2.361  0.00  0.00    -0.023 C 
ATOM      8  C   UNL     1      -8.840  -0.002   1.276  0.00  0.00    +0.012 C 
ATOM      9  C   UNL     1      -8.331   0.666   3.665  0.00  0.00    +0.012 C 
ENDROOT
BRANCH   1  12
ATOM     10  C   UNL     1      -9.519   5.730   3.472  0.00  0.00    +0.222 C 
ATOM     11  O   UNL     1      -9.283   5.535   4.645  0.00  0.00    -0.275 OA
ATOM     12  N   UNL     1      -9.410   4.720   2.585  0.00  0.00    -0.311 N 
ATOM     13  H   UNL     1      -9.550   4.914   1.512  0.00  0.00    +0.149 HD
BRANCH  10  14
ATOM     14  C   UNL     1      -9.934   7.101   3.005  0.00  0.00    +0.125 C 
BRANCH  14  15
ATOM     15  C   UNL     1     -11.427   7.252   3.153  0.00  0.00    +0.071 A 
ATOM     16  C   UNL     1     -12.181   6.723   4.135  0.00  0.00    +0.108 A 
ATOM     17  N   UNL     1     -13.473   7.103   3.890  0.00  0.00    -0.351 N 
ATOM     18  H   UNL     1     -14.278   6.785   4.569  0.00  0.00    +0.166 HD
ATOM     19  C   UNL     1     -13.463   7.853   2.767  0.00  0.00    +0.196 A 
ATOM     20  N   UNL     1     -12.235   7.941   2.334  0.00  0.00    -0.240 NA
ENDBRANCH  14  15
BRANCH  14  22
ATOM     21  C   UNL     1      -7.722   8.105   3.586  0.00  0.00    +0.005 C 
ATOM     22  C   UNL     1      -9.228   8.163   3.849  0.00  0.00    +0.015 C 
ENDBRANCH  14  22
ENDBRANCH  10  14
ENDBRANCH   1  12
BRANCH   6  23
ATOM     23  C   UNL     1      -7.118   2.654   1.500  0.00  0.00    +0.194 C 
BRANCH  23  24
ATOM     24  S   UNL     1      -6.820   4.360   0.961  0.00  0.00    +0.032 S 
ATOM     25  O   UNL     1      -6.972   5.253   2.056  0.00  0.00    -0.158 OA
ATOM     26  O   UNL     1      -7.482   4.607  -0.272  0.00  0.00    -0.158 OA
BRANCH  24  27
ATOM     27  N   UNL     1      -5.206   4.414   0.593  0.00  0.00    -0.181 NA
ATOM     28  C   UNL     1      -4.739   4.108  -0.766  0.00  0.00    +0.110 C 
ATOM     29  C   UNL     1      -3.673   3.009  -0.684  0.00  0.00    +0.028 C 
ATOM     30  C   UNL     1      -2.578   3.436   0.288  0.00  0.00    -0.001 C 
ATOM     31  C   UNL     1      -1.900   4.723  -0.216  0.00  0.00    +0.016 C 
ATOM     32  C   UNL     1      -0.435   4.518   0.227  0.00  0.00    +0.036 C 
ATOM     33  C   UNL     1      -0.250   3.018   0.304  0.00  0.00    -0.044 A 
ATOM     34  C   UNL     1      -1.485   2.395   0.339  0.00  0.00    -0.038 A 
ATOM     35  C   UNL     1      -1.558   1.014   0.404  0.00  0.00    +0.004 A 
ATOM     36  C   UNL     1      -0.403   0.258   0.445  0.00  0.00    +0.000 A 
ATOM     37  C   UNL     1       0.831   0.880   0.411  0.00  0.00    +0.000 A 
ATOM     38  C   UNL     1       0.906   2.257   0.341  0.00  0.00    +0.004 A 
ATOM     39  C   UNL     1      -3.156   3.665   1.682  0.00  0.00    +0.028 C 
ATOM     40  C   UNL     1      -4.216   4.769   1.619  0.00  0.00    +0.110 C 
ENDBRANCH  24  27
ENDBRANCH  23  24
ENDBRANCH   6  23
TORSDOF 7
