REMARK  Name = ZINC35745800
REMARK  12 active torsions:
REMARK  status: ('A' for Active; 'I' for Inactive)
REMARK    1  A    between atoms: C_1  and  C_2
REMARK    2  A    between atoms: C_7  and  C_8
REMARK    3  A    between atoms: C_17  and  C_19
REMARK    4  A    between atoms: C_19  and  N_20
REMARK    5  A    between atoms: N_20  and  C_21
REMARK    6  A    between atoms: N_20  and  C_26
REMARK    7  A    between atoms: C_21  and  C_22
REMARK    8  A    between atoms: C_22  and  C_23
REMARK    9  A    between atoms: C_22  and  C_24
REMARK   10  A    between atoms: C_22  and  O_25
REMARK   11  A    between atoms: C_26  and  C_27
REMARK   12  A    between atoms: C_26  and  C_28
REMARK                            x       y       z     vdW  Elec       q    Type
REMARK                         _______ _______ _______ _____ _____    ______ ____
ROOT
ATOM      1  C   UNL     1       0.587  -0.315   4.058  0.00  0.00    +0.004 A 
ATOM      2  C   UNL     1       1.359  -0.391   5.169  0.00  0.00    +0.056 A 
ATOM      3  S   UNL     1       0.558   0.724   6.306  0.00  0.00    -0.076 S 
ATOM      4  C   UNL     1      -0.782   1.261   5.274  0.00  0.00    +0.116 A 
ATOM      5  C   UNL     1      -0.574   0.568   4.070  0.00  0.00    +0.080 A 
ATOM      6  C   UNL     1      -1.529   0.822   3.035  0.00  0.00    +0.260 A 
ATOM      7  O   UNL     1      -1.435   0.264   1.956  0.00  0.00    -0.267 OA
ATOM      8  N   UNL     1      -2.533   1.687   3.272  0.00  0.00    -0.312 N 
ATOM      9  H   UNL     1      -3.183   1.863   2.574  0.00  0.00    +0.170 HD
ATOM     10  C   UNL     1      -2.653   2.317   4.468  0.00  0.00    +0.094 A 
ATOM     11  N   UNL     1      -1.802   2.099   5.435  0.00  0.00    -0.229 NA
ENDROOT
BRANCH   1  18
ATOM     12  C   UNL     1       1.359   1.037   1.620  0.00  0.00    +0.044 C 
ATOM     13  C   UNL     1       1.292  -0.468   1.672  0.00  0.00    -0.043 A 
ATOM     14  C   UNL     1       1.605  -1.213   0.553  0.00  0.00    +0.004 A 
ATOM     15  C   UNL     1       1.544  -2.594   0.600  0.00  0.00    +0.000 A 
ATOM     16  C   UNL     1       1.169  -3.236   1.766  0.00  0.00    +0.001 A 
ATOM     17  C   UNL     1       0.853  -2.502   2.891  0.00  0.00    +0.009 A 
ATOM     18  C   UNL     1       0.919  -1.110   2.852  0.00  0.00    -0.014 A 
ENDBRANCH   1  18
BRANCH  10  19
ATOM     19  C   UNL     1      -3.793   3.278   4.688  0.00  0.00    -0.003 C 
BRANCH  19  20
ATOM     20  N   UNL     1      -3.617   3.961   5.976  0.00  0.00    +0.388 N 
ATOM     21  H   UNL     1      -3.222   3.318   6.646  0.00  0.00    -0.081 HD
BRANCH  20  22
ATOM     22  C   UNL     1      -2.713   5.106   5.804  0.00  0.00    -0.074 C 
ATOM     23  C   UNL     1      -1.398   4.628   5.184  0.00  0.00    -0.014 C 
ATOM     24  C   UNL     1      -3.366   6.137   4.882  0.00  0.00    -0.014 C 
ENDBRANCH  20  22
BRANCH  20  25
ATOM     25  C   UNL     1      -4.920   4.435   6.462  0.00  0.00    -0.043 C 
BRANCH  25  26
ATOM     26  C   UNL     1      -4.765   4.988   7.880  0.00  0.00    +0.046 C 
ATOM     27  C   UNL     1      -6.143   5.344   8.441  0.00  0.00    +0.039 C 
ATOM     28  C   UNL     1      -4.109   3.931   8.771  0.00  0.00    +0.039 C 
BRANCH  26  29
ATOM     29  O   UNL     1      -3.947   6.159   7.848  0.00  0.00    -0.391 OA
ATOM     30  H   UNL     1      -3.744   6.520   8.722  0.00  0.00    +0.210 HD
ENDBRANCH  26  29
ENDBRANCH  25  26
ENDBRANCH  20  25
ENDBRANCH  19  20
ENDBRANCH  10  19
TORSDOF 7
