REMARK  Name = ZINC05523775
REMARK  5 active torsions:
REMARK  status: ('A' for Active; 'I' for Inactive)
REMARK    1  A    between atoms: C_1  and  C_2
REMARK    2  A    between atoms: C_8  and  C_28
REMARK    3  A    between atoms: C_10  and  C_22
REMARK    4  A    between atoms: C_12  and  C_14
REMARK    5  A    between atoms: C_14  and  C_16
REMARK                            x       y       z     vdW  Elec       q    Type
REMARK                         _______ _______ _______ _____ _____    ______ ____
ROOT
ATOM      1  C   UNL     1       4.097   1.881   1.069  0.00  0.00    +0.059 C 
ATOM      2  C   UNL     1       2.831   2.214   1.816  0.00  0.00    -0.012 C 
ATOM      3  C   UNL     1       2.834   2.918   2.971  0.00  0.00    +0.016 C 
ATOM      4  C   UNL     1       1.561   3.230   3.631  0.00  0.00    -0.001 C 
ATOM      5  C   UNL     1       0.441   2.562   3.344  0.00  0.00    -0.006 C 
ATOM      6  C   UNL     1       0.495   1.467   2.309  0.00  0.00    +0.091 C 
ATOM      7  C   UNL     1       1.076   1.756  -0.003  0.00  0.00    +0.151 C 
ATOM      8  C   UNL     1      -0.271   0.995   0.078  0.00  0.00    +0.059 C 
ATOM      9  C   UNL     1      -0.798   1.423   1.477  0.00  0.00    +0.092 C 
ATOM     10  N   UNL     1       1.587   1.465   1.370  0.00  0.00    -0.381 NA
ATOM     11  H   UNL     1       1.893   0.486   1.331  0.00  0.00    +0.127 HD
ENDROOT
BRANCH   8  12
ATOM     12  C   UNL     1      -1.209   1.443  -1.013  0.00  0.00    -0.041 A 
ATOM     13  C   UNL     1      -1.559   2.776  -1.119  0.00  0.00    +0.004 A 
ATOM     14  C   UNL     1      -2.416   3.187  -2.123  0.00  0.00    +0.000 A 
ATOM     15  C   UNL     1      -2.931   2.264  -3.014  0.00  0.00    +0.000 A 
ATOM     16  C   UNL     1      -2.585   0.930  -2.904  0.00  0.00    +0.000 A 
ATOM     17  C   UNL     1      -1.724   0.519  -1.903  0.00  0.00    +0.004 A 
ENDBRANCH   8  12
BRANCH   7  18
ATOM     18  C   UNL     1       0.857   3.146  -0.543  0.00  0.00    +0.230 C 
ATOM     19  O   UNL     1       0.866   4.098   0.208  0.00  0.00    -0.274 OA
ATOM     20  N   UNL     1       0.650   3.331  -1.862  0.00  0.00    -0.328 N 
ATOM     21  H   UNL     1       0.642   2.569  -2.463  0.00  0.00    +0.145 HD
ATOM     22  H   UNL     1       0.508   4.225  -2.210  0.00  0.00    +0.145 HD
ENDBRANCH   7  18
BRANCH   9  23
ATOM     23  C   UNL     1      -1.443   2.784   1.414  0.00  0.00    +0.169 C 
ATOM     24  O   UNL     1      -0.777   3.780   1.598  0.00  0.00    -0.292 OA
BRANCH  23  25
ATOM     25  C   UNL     1      -2.882   2.903   1.130  0.00  0.00    +0.018 A 
ATOM     26  C   UNL     1      -3.653   1.757   0.911  0.00  0.00    +0.011 A 
ATOM     27  C   UNL     1      -5.002   1.877   0.652  0.00  0.00    +0.001 A 
ATOM     28  C   UNL     1      -5.591   3.128   0.595  0.00  0.00    +0.000 A 
ATOM     29  C   UNL     1      -4.834   4.268   0.804  0.00  0.00    +0.001 A 
ATOM     30  C   UNL     1      -3.485   4.164   1.071  0.00  0.00    +0.011 A 
ENDBRANCH  23  25
ENDBRANCH   9  23
TORSDOF 4
