REMARK  Name = ZINC57799187
REMARK  7 active torsions:
REMARK  status: ('A' for Active; 'I' for Inactive)
REMARK    1  A    between atoms: C_1  and  C_2
REMARK    2  A    between atoms: N_5  and  C_8
REMARK    3  A    between atoms: C_8  and  C_9
REMARK    4  A    between atoms: C_8  and  C_23
REMARK    5  A    between atoms: C_9  and  N_10
REMARK    6  A    between atoms: N_13  and  C_14
REMARK    7  A    between atoms: C_14  and  C_15
REMARK                            x       y       z     vdW  Elec       q    Type
REMARK                         _______ _______ _______ _____ _____    ______ ____
ROOT
ATOM      1  C   UNL     1      -2.199  -4.408   1.601  0.00  0.00    +0.095 C 
ENDROOT
BRANCH   1   2
ATOM      2  N   UNL     1      -2.242  -5.869   1.705  0.00  0.00    -0.301 N 
ATOM      3  C   UNL     1      -3.428  -6.505   1.770  0.00  0.00    +0.300 C 
ATOM      4  O   UNL     1      -4.463  -5.867   1.742  0.00  0.00    -0.253 OA
ATOM      5  N   UNL     1      -3.467  -7.849   1.865  0.00  0.00    -0.294 N 
ATOM      6  H   UNL     1      -1.417  -6.378   1.727  0.00  0.00    +0.150 HD
ATOM      7  H   UNL     1      -2.642  -8.358   1.887  0.00  0.00    +0.151 HD
BRANCH   5   8
ATOM      8  C   UNL     1      -4.757  -8.541   1.936  0.00  0.00    +0.162 C 
BRANCH   8   9
ATOM      9  C   UNL     1      -4.525 -10.027   2.037  0.00  0.00    +0.078 A 
ATOM     10  C   UNL     1      -4.485 -10.740   3.174  0.00  0.00    +0.118 A 
ATOM     11  N   UNL     1      -4.250 -12.069   2.832  0.00  0.00    -0.300 N 
ATOM     12  C   UNL     1      -4.096 -13.283   3.466  0.00  0.00    +0.100 A 
ATOM     13  C   UNL     1      -3.872 -14.394   2.768  0.00  0.00    +0.067 A 
ATOM     14  S   UNL     1      -3.861 -13.780   1.091  0.00  0.00    -0.058 S 
ATOM     15  C   UNL     1      -4.160 -12.068   1.465  0.00  0.00    +0.178 A 
ATOM     16  N   UNL     1      -4.329 -10.862   1.005  0.00  0.00    -0.225 NA
ENDBRANCH   8   9
ENDBRANCH   5   8
ENDBRANCH   1   2
BRANCH   1  17
ATOM     17  C   UNL     1      -0.749  -3.951   1.434  0.00  0.00    -0.020 C 
BRANCH  17  22
ATOM     18  C   UNL     1      -0.069   1.426  -0.340  0.00  0.00    +0.007 C 
ATOM     19  C   UNL     1      -0.042  -0.101  -0.250  0.00  0.00    -0.018 C 
ATOM     20  C   UNL     1      -1.475  -0.634  -0.164  0.00  0.00    -0.015 C 
ATOM     21  C   UNL     1      -1.439  -2.154   0.005  0.00  0.00    -0.078 C 
ATOM     22  N   UNL     1      -0.714  -2.496   1.235  0.00  0.00    +0.385 N 
ATOM     23  C   UNL     1       0.681  -2.051   1.131  0.00  0.00    -0.078 C 
ATOM     24  C   UNL     1       0.727  -0.527   1.004  0.00  0.00    -0.015 C 
ATOM     25  H   UNL     1      -1.153  -2.040   2.021  0.00  0.00    -0.081 HD
ENDBRANCH  17  22
BRANCH  17  26
ATOM     26  C   UNL     1       0.036  -4.308   2.670  0.00  0.00    -0.059 A 
ATOM     27  C   UNL     1      -0.053  -3.514   3.799  0.00  0.00    +0.002 A 
ATOM     28  C   UNL     1       0.666  -3.841   4.933  0.00  0.00    +0.000 A 
ATOM     29  C   UNL     1       1.475  -4.962   4.938  0.00  0.00    +0.000 A 
ATOM     30  C   UNL     1       1.564  -5.756   3.810  0.00  0.00    +0.000 A 
ATOM     31  C   UNL     1       0.841  -5.431   2.678  0.00  0.00    +0.002 A 
ENDBRANCH  17  26
ENDBRANCH   1  17
TORSDOF 6
