REMARK  Name = ZINC42809646
REMARK  5 active torsions:
REMARK  status: ('A' for Active; 'I' for Inactive)
REMARK    1  A    between atoms: C_1  and  C_2
REMARK    2  A    between atoms: C_2  and  C_4
REMARK    3  A    between atoms: C_2  and  N_12
REMARK    4  A    between atoms: N_15  and  N_16
REMARK    5  A    between atoms: C_17  and  C_19
REMARK                            x       y       z     vdW  Elec       q    Type
REMARK                         _______ _______ _______ _____ _____    ______ ____
ROOT
ATOM      1  N   UNL     1       0.711  -0.489   1.189  0.00  0.00    -0.292 N 
ATOM      2  C   UNL     1       2.054  -0.600   1.174  0.00  0.00    +0.316 C 
ATOM      3  O   UNL     1       2.677  -0.297   0.175  0.00  0.00    -0.251 OA
ATOM      4  N   UNL     1       2.706  -1.046   2.266  0.00  0.00    -0.218 N 
ATOM      5  H   UNL     1       0.213  -0.731   1.986  0.00  0.00    +0.151 HD
ATOM      6  H   UNL     1       3.672  -1.126   2.255  0.00  0.00    +0.174 HD
ENDROOT
BRANCH   4   7
ATOM      7  N   UNL     1       1.987  -1.396   3.416  0.00  0.00    -0.228 N 
ATOM      8  C   UNL     1       2.639  -1.842   4.508  0.00  0.00    +0.279 C 
ATOM      9  O   UNL     1       3.850  -1.942   4.495  0.00  0.00    -0.267 OA
ATOM     10  H   UNL     1       1.020  -1.316   3.427  0.00  0.00    +0.173 HD
BRANCH   8  11
ATOM     11  C   UNL     1       1.878  -2.212   5.726  0.00  0.00    +0.127 A 
ATOM     12  C   UNL     1       2.573  -2.669   6.856  0.00  0.00    +0.034 A 
ATOM     13  C   UNL     1       1.885  -3.013   7.983  0.00  0.00    +0.012 A 
ATOM     14  C   UNL     1       0.483  -2.893   7.970  0.00  0.00    +0.000 A 
ATOM     15  C   UNL     1      -0.288  -3.228   9.095  0.00  0.00    +0.010 A 
ATOM     16  C   UNL     1      -1.643  -3.099   9.045  0.00  0.00    +0.001 A 
ATOM     17  C   UNL     1      -2.277  -2.639   7.892  0.00  0.00    +0.002 A 
ATOM     18  C   UNL     1      -1.563  -2.305   6.784  0.00  0.00    +0.028 A 
ATOM     19  C   UNL     1      -0.160  -2.424   6.795  0.00  0.00    +0.072 A 
ATOM     20  N   UNL     1       0.565  -2.098   5.725  0.00  0.00    -0.242 NA
ENDBRANCH   8  11
ENDBRANCH   4   7
BRANCH   1  22
ATOM     21  C   UNL     1      -0.019   1.526   0.010  0.00  0.00    +0.033 C 
ATOM     22  C   UNL     1       0.002  -0.004   0.002  0.00  0.00    +0.104 C 
BRANCH  22  23
ATOM     23  C   UNL     1      -1.412  -0.526   0.013  0.00  0.00    +0.008 A 
ATOM     24  C   UNL     1      -2.014  -0.864   1.210  0.00  0.00    +0.011 A 
ATOM     25  C   UNL     1      -3.311  -1.342   1.221  0.00  0.00    +0.039 A 
ATOM     26  C   UNL     1      -4.008  -1.483   0.033  0.00  0.00    +0.126 A 
ATOM     27  C   UNL     1      -3.405  -1.145  -1.166  0.00  0.00    +0.077 A 
ATOM     28  C   UNL     1      -2.108  -0.661  -1.176  0.00  0.00    +0.131 A 
ATOM     29  F   UNL     1      -1.521  -0.325  -2.345  0.00  0.00    -0.205 F 
ATOM     30  F   UNL     1      -5.275  -1.951   0.044  0.00  0.00    -0.205 F 
ENDBRANCH  22  23
ENDBRANCH   1  22
TORSDOF 4
