REMARK  Name = ZINC12881513
REMARK  7 active torsions:
REMARK  status: ('A' for Active; 'I' for Inactive)
REMARK    1  A    between atoms: C_1  and  C_2
REMARK    2  A    between atoms: C_13  and  C_15
REMARK    3  A    between atoms: C_15  and  C_16
REMARK    4  A    between atoms: C_19  and  O_22
REMARK    5  A    between atoms: N_25  and  C_28
REMARK    6  A    between atoms: C_28  and  C_29
REMARK    7  A    between atoms: C_29  and  C_30
REMARK                            x       y       z     vdW  Elec       q    Type
REMARK                         _______ _______ _______ _____ _____    ______ ____
ROOT
ATOM      1  C   UNL     1       0.714   0.267  -4.473  0.00  0.00    +0.044 C 
ATOM      2  C   UNL     1       1.445   1.431  -3.856  0.00  0.00    -0.050 A 
ATOM      3  C   UNL     1       2.744   1.713  -4.238  0.00  0.00    +0.005 A 
ATOM      4  C   UNL     1       3.419   2.777  -3.677  0.00  0.00    +0.024 A 
ATOM      5  C   UNL     1       2.797   3.576  -2.720  0.00  0.00    +0.036 A 
ATOM      6  C   UNL     1       1.489   3.283  -2.344  0.00  0.00    -0.027 A 
ATOM      7  C   UNL     1       0.820   2.219  -2.907  0.00  0.00    +0.008 A 
ATOM      8  C   UNL     1       1.117   4.313  -1.316  0.00  0.00    +0.050 C 
ATOM      9  C   UNL     1       0.730   3.666   0.018  0.00  0.00    +0.088 C 
ATOM     10  C   UNL     1      -0.824   3.645   0.026  0.00  0.00    +0.073 C 
ATOM     11  C   UNL     1      -1.219   4.261  -1.350  0.00  0.00    -0.053 C 
ATOM     12  C   UNL     1      -1.153   2.169   0.019  0.00  0.00    +0.224 C 
ATOM     13  O   UNL     1      -2.271   1.700   0.023  0.00  0.00    -0.275 OA
ATOM     14  N   UNL     1      -0.018   1.461   0.010  0.00  0.00    -0.241 N 
ATOM     15  C   UNL     1       1.098   2.200   0.003  0.00  0.00    +0.225 C 
ATOM     16  O   UNL     1       2.228   1.761  -0.013  0.00  0.00    -0.275 OA
ATOM     17  C   UNL     1       2.337   5.181  -1.173  0.00  0.00    +0.211 C 
ATOM     18  O   UNL     1       2.462   6.138  -0.439  0.00  0.00    -0.277 OA
ATOM     19  N   UNL     1       3.263   4.690  -2.018  0.00  0.00    -0.286 N 
ATOM     20  H   UNL     1       4.151   5.065  -2.126  0.00  0.00    +0.155 HD
ATOM     21  N   UNL     1      -0.056   5.068  -1.724  0.00  0.00    +0.394 N 
ATOM     22  H   UNL     1      -0.043   5.223  -2.739  0.00  0.00    -0.083 HD
ATOM     23  H   UNL     1      -0.081   5.973  -1.240  0.00  0.00    -0.083 HD
ENDROOT
BRANCH  11  24
ATOM     24  C   UNL     1      -2.473   5.125  -1.200  0.00  0.00    +0.020 C 
BRANCH  24  25
ATOM     25  C   UNL     1      -2.867   5.678  -2.545  0.00  0.00    -0.049 A 
ATOM     26  C   UNL     1      -2.365   6.896  -2.964  0.00  0.00    +0.007 A 
ATOM     27  C   UNL     1      -2.720   7.403  -4.199  0.00  0.00    +0.045 A 
ATOM     28  C   UNL     1      -3.590   6.693  -5.015  0.00  0.00    +0.117 A 
ATOM     29  C   UNL     1      -4.096   5.474  -4.589  0.00  0.00    +0.045 A 
ATOM     30  C   UNL     1      -3.734   4.969  -3.356  0.00  0.00    +0.007 A 
BRANCH  28  31
ATOM     31  O   UNL     1      -3.944   7.192  -6.228  0.00  0.00    -0.507 OA
ATOM     32  H   UNL     1      -4.733   7.751  -6.208  0.00  0.00    +0.292 HD
ENDBRANCH  28  31
ENDBRANCH  24  25
ENDBRANCH  11  24
BRANCH  14  33
ATOM     33  C   UNL     1       0.002  -0.004   0.002  0.00  0.00    +0.121 C 
BRANCH  33  34
ATOM     34  C   UNL     1       0.023  -0.522   1.442  0.00  0.00    +0.054 C 
BRANCH  34  35
ATOM     35  C   UNL     1       0.043  -2.029   1.433  0.00  0.00    -0.046 A 
ATOM     36  C   UNL     1      -1.144  -2.736   1.447  0.00  0.00    +0.004 A 
ATOM     37  C   UNL     1      -1.126  -4.118   1.435  0.00  0.00    +0.000 A 
ATOM     38  C   UNL     1       0.081  -4.793   1.419  0.00  0.00    +0.000 A 
ATOM     39  C   UNL     1       1.268  -4.086   1.411  0.00  0.00    +0.000 A 
ATOM     40  C   UNL     1       1.250  -2.703   1.418  0.00  0.00    +0.004 A 
ENDBRANCH  34  35
ENDBRANCH  33  34
ENDBRANCH  14  33
TORSDOF 6
