REMARK  Name = ZINC39470393
REMARK  9 active torsions:
REMARK  status: ('A' for Active; 'I' for Inactive)
REMARK    1  A    between atoms: C_1  and  C_2
REMARK    2  A    between atoms: C_8  and  C_33
REMARK    3  A    between atoms: C_11  and  C_15
REMARK    4  A    between atoms: C_12  and  C_14
REMARK    5  A    between atoms: C_15  and  C_17
REMARK    6  A    between atoms: C_17  and  S_18
REMARK    7  A    between atoms: S_18  and  C_19
REMARK    8  A    between atoms: N_25  and  C_26
REMARK    9  A    between atoms: C_26  and  C_27
REMARK                            x       y       z     vdW  Elec       q    Type
REMARK                         _______ _______ _______ _____ _____    ______ ____
ROOT
ATOM      1  C   UNL     1      -4.753  -5.483  -0.116  0.00  0.00    +0.171 C 
ATOM      2  O   UNL     1      -4.920  -6.677  -0.249  0.00  0.00    -0.291 OA
ENDROOT
BRANCH   1  12
ATOM      3  C   UNL     1      -0.410   1.488   0.198  0.00  0.00    +0.089 C 
ATOM      4  C   UNL     1      -0.322  -0.011   0.072  0.00  0.00    +0.136 A 
ATOM      5  C   UNL     1      -1.358  -0.866   0.094  0.00  0.00    +0.091 A 
ATOM      6  C   UNL     1      -0.850  -2.177  -0.055  0.00  0.00    +0.165 A 
ATOM      7  N   UNL     1       0.453  -2.092  -0.161  0.00  0.00    -0.063 NA
ATOM      8  O   UNL     1       0.805  -0.723  -0.088  0.00  0.00    -0.358 OA
ATOM      9  N   UNL     1      -1.599  -3.348  -0.082  0.00  0.00    -0.299 N 
ATOM     10  C   UNL     1      -1.088  -4.724  -0.127  0.00  0.00    +0.096 C 
ATOM     11  C   UNL     1      -2.280  -5.645  -0.143  0.00  0.00    +0.004 C 
ATOM     12  C   UNL     1      -3.400  -4.929  -0.112  0.00  0.00    +0.014 C 
ATOM     13  C   UNL     1      -3.063  -3.462  -0.066  0.00  0.00    +0.106 C 
ATOM     14  C   UNL     1      -3.653  -2.757  -1.290  0.00  0.00    +0.033 C 
ATOM     15  C   UNL     1      -0.252  -4.928  -1.393  0.00  0.00    +0.032 C 
ENDBRANCH   1  12
BRANCH   1  16
ATOM     16  C   UNL     1      -5.941  -4.570   0.044  0.00  0.00    +0.156 C 
BRANCH  16  17
ATOM     17  S   UNL     1      -7.454  -5.563   0.173  0.00  0.00    -0.078 S 
BRANCH  17  18
ATOM     18  C   UNL     1      -8.735  -4.367   0.353  0.00  0.00    +0.193 A 
ATOM     19  H   UNL     1     -10.013  -1.530   0.585  0.00  0.00    +0.194 HD
ATOM     20  N   UNL     1      -8.571  -3.076   0.375  0.00  0.00    -0.145 NA
ATOM     21  N   UNL     1      -9.830  -2.481   0.534  0.00  0.00    -0.226 N 
ATOM     22  C   UNL     1     -10.740  -3.474   0.605  0.00  0.00    +0.345 A 
ATOM     23  O   UNL     1     -11.943  -3.340   0.744  0.00  0.00    -0.245 OA
ATOM     24  N   UNL     1     -10.077  -4.642   0.489  0.00  0.00    -0.268 N 
BRANCH  24  25
ATOM     25  C   UNL     1     -10.681  -5.977   0.508  0.00  0.00    +0.160 C 
BRANCH  25  26
ATOM     26  C   UNL     1     -10.736  -6.491   1.948  0.00  0.00    +0.138 C 
ATOM     27  C   UNL     1     -11.260  -7.944   1.965  0.00  0.00    +0.035 C 
ATOM     28  C   UNL     1     -12.170  -7.951   3.223  0.00  0.00    +0.031 C 
ATOM     29  C   UNL     1     -12.732  -6.507   3.188  0.00  0.00    +0.160 C 
ATOM     30  O   UNL     1     -11.645  -5.693   2.714  0.00  0.00    -0.375 OA
ENDBRANCH  25  26
ENDBRANCH  24  25
ENDBRANCH  17  18
ENDBRANCH  16  17
ENDBRANCH   1  16
TORSDOF 6
