REMARK  Name = ZINC12412675
REMARK  9 active torsions:
REMARK  status: ('A' for Active; 'I' for Inactive)
REMARK    1  A    between atoms: C_1  and  C_2
REMARK    2  A    between atoms: C_5  and  C_20
REMARK    3  A    between atoms: N_9  and  N_10
REMARK    4  A    between atoms: C_11  and  C_13
REMARK    5  A    between atoms: C_18  and  O_19
REMARK    6  A    between atoms: C_20  and  C_33
REMARK    7  A    between atoms: C_22  and  C_25
REMARK    8  A    between atoms: C_28  and  O_31
REMARK    9  A    between atoms: O_31  and  C_32
REMARK                            x       y       z     vdW  Elec       q    Type
REMARK                         _______ _______ _______ _____ _____    ______ ____
ROOT
ATOM      1  C   UNL     1       7.505  -0.462  10.918  0.00  0.00    +0.045 C 
ATOM      2  C   UNL     1       6.207  -0.611  10.168  0.00  0.00    -0.032 C 
ATOM      3  C   UNL     1       5.918   0.226   9.183  0.00  0.00    -0.021 C 
ATOM      4  C   UNL     1       4.647   0.157   8.391  0.00  0.00    +0.035 C 
ATOM      5  C   UNL     1       4.025  -1.237   8.466  0.00  0.00    +0.045 C 
ATOM      6  C   UNL     1       3.879  -1.643   9.940  0.00  0.00    +0.065 C 
ATOM      7  C   UNL     1       5.271  -1.686  10.534  0.00  0.00    +0.062 C 
ATOM      8  N   UNL     1       5.628  -2.641  11.341  0.00  0.00    -0.184 NA
ENDROOT
BRANCH   5   9
ATOM      9  C   UNL     1       2.647  -1.219   7.802  0.00  0.00    +0.145 C 
ATOM     10  C   UNL     1       2.755  -0.808   6.314  0.00  0.00    +0.110 C 
ATOM     11  C   UNL     1       1.515   0.043   6.115  0.00  0.00    +0.091 C 
ATOM     12  N   UNL     1       1.056   0.366   7.278  0.00  0.00    -0.088 NA
ATOM     13  O   UNL     1       1.828  -0.161   8.339  0.00  0.00    -0.387 OA
ATOM     14  C   UNL     1       1.954  -2.575   7.947  0.00  0.00    +0.059 C 
BRANCH  11  15
ATOM     15  C   UNL     1       0.937   0.439   4.817  0.00  0.00    -0.000 A 
ATOM     16  C   UNL     1      -0.214   1.230   4.775  0.00  0.00    +0.013 A 
ATOM     17  C   UNL     1      -0.751   1.597   3.560  0.00  0.00    +0.046 A 
ATOM     18  C   UNL     1      -0.149   1.182   2.379  0.00  0.00    +0.120 A 
ATOM     19  C   UNL     1       0.992   0.391   2.416  0.00  0.00    +0.046 A 
ATOM     20  C   UNL     1       1.539   0.024   3.627  0.00  0.00    +0.013 A 
BRANCH  18  21
ATOM     21  O   UNL     1      -0.682   1.547   1.184  0.00  0.00    -0.495 OA
ATOM     22  C   UNL     1      -0.013   1.086   0.008  0.00  0.00    +0.277 C 
ENDBRANCH  18  21
ENDBRANCH  11  15
ENDBRANCH   5   9
BRANCH   8  23
ATOM     23  N   UNL     1       4.718  -3.653  11.674  0.00  0.00    -0.203 N 
ATOM     24  C   UNL     1       5.087  -4.643  12.510  0.00  0.00    +0.267 C 
ATOM     25  O   UNL     1       6.211  -4.659  12.975  0.00  0.00    -0.268 OA
ATOM     26  H   UNL     1       3.822  -3.640  11.303  0.00  0.00    +0.178 HD
BRANCH  24  27
ATOM     27  C   UNL     1       4.129  -5.708  12.861  0.00  0.00    +0.080 A 
ATOM     28  C   UNL     1       2.837  -5.694  12.329  0.00  0.00    +0.017 A 
ATOM     29  C   UNL     1       1.947  -6.692  12.660  0.00  0.00    +0.001 A 
ATOM     30  C   UNL     1       2.327  -7.710  13.520  0.00  0.00    +0.004 A 
ATOM     31  C   UNL     1       3.600  -7.737  14.052  0.00  0.00    +0.046 A 
ATOM     32  C   UNL     1       4.511  -6.743  13.725  0.00  0.00    +0.129 A 
BRANCH  32  33
ATOM     33  O   UNL     1       5.764  -6.771  14.244  0.00  0.00    -0.506 OA
ATOM     34  H   UNL     1       5.852  -6.303  15.085  0.00  0.00    +0.292 HD
ENDBRANCH  32  33
ENDBRANCH  24  27
ENDBRANCH   8  23
TORSDOF 6
