REMARK  Name = ZINC21238021
REMARK  8 active torsions:
REMARK  status: ('A' for Active; 'I' for Inactive)
REMARK    1  A    between atoms: C_1  and  C_2
REMARK    2  A    between atoms: C_5  and  C_11
REMARK    3  A    between atoms: C_7  and  N_8
REMARK    4  A    between atoms: C_16  and  C_21
REMARK    5  A    between atoms: C_23  and  O_29
REMARK    6  A    between atoms: C_26  and  O_27
REMARK    7  A    between atoms: O_27  and  C_28
REMARK    8  A    between atoms: O_29  and  C_30
REMARK                            x       y       z     vdW  Elec       q    Type
REMARK                         _______ _______ _______ _____ _____    ______ ____
ROOT
ATOM      1  C   UNL     1      -3.112   1.469   1.313  0.00  0.00    +0.136 C 
ATOM      2  C   UNL     1      -3.500   2.905   1.567  0.00  0.00    +0.036 C 
ATOM      3  C   UNL     1      -2.979   3.983   0.956  0.00  0.00    +0.017 C 
ATOM      4  C   UNL     1      -3.472   5.378   1.300  0.00  0.00    +0.060 C 
ATOM      5  C   UNL     1      -3.884   5.438   2.770  0.00  0.00    +0.036 C 
ATOM      6  C   UNL     1      -5.001   4.409   2.983  0.00  0.00    +0.088 C 
ATOM      7  C   UNL     1      -4.500   3.063   2.556  0.00  0.00    +0.163 C 
ATOM      8  O   UNL     1      -4.971   2.070   3.077  0.00  0.00    -0.292 OA
ATOM      9  N   UNL     1      -2.015   3.937   0.002  0.00  0.00    -0.316 N 
ATOM     10  C   UNL     1      -0.855   3.176   0.078  0.00  0.00    +0.052 A 
ATOM     11  C   UNL     1       0.404   3.748   0.125  0.00  0.00    +0.025 A 
ATOM     12  C   UNL     1       1.522   2.931   0.138  0.00  0.00    +0.002 A 
ATOM     13  C   UNL     1       1.381   1.556   0.095  0.00  0.00    +0.002 A 
ATOM     14  C   UNL     1       0.122   0.982   0.059  0.00  0.00    +0.025 A 
ATOM     15  C   UNL     1      -0.998   1.797   0.066  0.00  0.00    +0.049 A 
ATOM     16  N   UNL     1      -2.285   1.266   0.143  0.00  0.00    -0.331 N 
ATOM     17  H   UNL     1      -2.122   4.531  -0.918  0.00  0.00    +0.152 HD
ATOM     18  H   UNL     1      -2.669   0.683  -0.708  0.00  0.00    +0.147 HD
ENDROOT
BRANCH   1  23
ATOM     19  C   UNL     1      -0.241  -0.492   5.930  0.00  0.00    +0.046 C 
ATOM     20  C   UNL     1      -0.990   0.019   4.726  0.00  0.00    -0.020 A 
ATOM     21  C   UNL     1      -0.469   1.058   3.977  0.00  0.00    +0.006 A 
ATOM     22  C   UNL     1      -1.155   1.527   2.873  0.00  0.00    +0.006 A 
ATOM     23  C   UNL     1      -2.363   0.957   2.517  0.00  0.00    -0.021 A 
ATOM     24  C   UNL     1      -2.887  -0.078   3.268  0.00  0.00    +0.038 A 
ATOM     25  C   UNL     1      -2.197  -0.551   4.369  0.00  0.00    +0.129 A 
BRANCH  25  26
ATOM     26  N   UNL     1      -2.756  -1.663   5.171  0.00  0.00    +0.057 N 
ATOM     27  O   UNL     1      -3.761  -2.239   4.796  0.00  0.00    -0.126 OA
ATOM     28  O   UNL     1      -2.209  -2.003   6.205  0.00  0.00    -0.126 OA
ENDBRANCH  25  26
ENDBRANCH   1  23
BRANCH   5  29
ATOM     29  C   UNL     1      -4.388   6.818   3.103  0.00  0.00    +0.002 A 
ATOM     30  C   UNL     1      -5.477   7.337   2.431  0.00  0.00    +0.053 A 
ATOM     31  C   UNL     1      -5.944   8.606   2.741  0.00  0.00    +0.121 A 
ATOM     32  C   UNL     1      -5.310   9.357   3.720  0.00  0.00    +0.049 A 
ATOM     33  C   UNL     1      -4.218   8.840   4.389  0.00  0.00    +0.049 A 
ATOM     34  C   UNL     1      -3.755   7.569   4.082  0.00  0.00    +0.124 A 
BRANCH  34  35
ATOM     35  O   UNL     1      -2.679   7.061   4.740  0.00  0.00    -0.495 OA
ATOM     36  C   UNL     1      -2.076   7.889   5.736  0.00  0.00    +0.277 C 
ENDBRANCH  34  35
BRANCH  31  37
ATOM     37  O   UNL     1      -7.019   9.115   2.082  0.00  0.00    -0.495 OA
ATOM     38  C   UNL     1      -7.442  10.430   2.450  0.00  0.00    +0.277 C 
ENDBRANCH  31  37
ENDBRANCH   5  29
TORSDOF 5
