REMARK  Name = ZINC20510064
REMARK  8 active torsions:
REMARK  status: ('A' for Active; 'I' for Inactive)
REMARK    1  A    between atoms: C_4  and  C_7
REMARK    2  A    between atoms: C_14  and  C_34
REMARK    3  A    between atoms: C_15  and  S_17
REMARK    4  A    between atoms: S_17  and  C_18
REMARK    5  A    between atoms: C_18  and  C_19
REMARK    6  A    between atoms: N_21  and  N_22
REMARK    7  A    between atoms: C_23  and  C_25
REMARK    8  A    between atoms: C_29  and  N_31
REMARK                            x       y       z     vdW  Elec       q    Type
REMARK                         _______ _______ _______ _____ _____    ______ ____
ROOT
ATOM      1  S   UNL     1      -1.513  -0.904   0.018  0.00  0.00    -0.095 S 
ENDROOT
BRANCH   1   9
ATOM      2  C   UNL     1       4.831   1.214  -0.463  0.00  0.00    +0.024 C 
ATOM      3  C   UNL     1       4.788  -0.079   0.361  0.00  0.00    +0.014 C 
ATOM      4  C   UNL     1       3.564  -0.884  -0.068  0.00  0.00    +0.056 C 
ATOM      5  C   UNL     1       2.324  -0.028  -0.029  0.00  0.00    +0.046 A 
ATOM      6  C   UNL     1       2.382   1.350  -0.015  0.00  0.00    -0.024 A 
ATOM      7  C   UNL     1       1.202   2.084   0.002  0.00  0.00    +0.027 A 
ATOM      8  C   UNL     1      -0.017   1.402   0.010  0.00  0.00    +0.084 A 
ATOM      9  C   UNL     1       0.002  -0.004   0.002  0.00  0.00    +0.115 A 
ATOM     10  N   UNL     1       1.153  -0.652  -0.017  0.00  0.00    -0.244 NA
ATOM     11  C   UNL     1       3.681   2.111  -0.009  0.00  0.00    +0.045 C 
BRANCH   2  15
ATOM     12  C   UNL     1       8.552   3.211   0.180  0.00  0.00    +0.000 A 
ATOM     13  C   UNL     1       8.187   2.823  -1.095  0.00  0.00    +0.000 A 
ATOM     14  C   UNL     1       6.983   2.177  -1.303  0.00  0.00    +0.004 A 
ATOM     15  C   UNL     1       6.144   1.918  -0.236  0.00  0.00    -0.044 A 
ATOM     16  C   UNL     1       6.507   2.310   1.039  0.00  0.00    +0.004 A 
ATOM     17  C   UNL     1       7.713   2.952   1.248  0.00  0.00    +0.000 A 
ENDBRANCH   2  15
BRANCH   8  18
ATOM     18  C   UNL     1      -1.257   2.118   0.020  0.00  0.00    +0.102 C 
ATOM     19  N   UNL     1      -2.241   2.687   0.027  0.00  0.00    -0.191 NA
ENDBRANCH   8  18
ENDBRANCH   1   9
BRANCH   1  20
ATOM     20  C   UNL     1      -0.873  -2.597   0.000  0.00  0.00    +0.173 C 
BRANCH  20  21
ATOM     21  C   UNL     1      -2.025  -3.569   0.010  0.00  0.00    +0.239 C 
ATOM     22  O   UNL     1      -3.165  -3.158   0.028  0.00  0.00    -0.273 OA
ATOM     23  N   UNL     1      -1.787  -4.896   0.000  0.00  0.00    -0.233 N 
ATOM     24  H   UNL     1      -0.752  -5.269  -0.016  0.00  0.00    +0.173 HD
BRANCH  23  25
ATOM     25  N   UNL     1      -2.857  -5.799   0.009  0.00  0.00    -0.230 N 
ATOM     26  C   UNL     1      -2.619  -7.126  -0.001  0.00  0.00    +0.260 C 
ATOM     27  O   UNL     1      -1.476  -7.538  -0.018  0.00  0.00    -0.269 OA
ATOM     28  H   UNL     1      -3.892  -5.426   0.025  0.00  0.00    +0.173 HD
BRANCH  26  29
ATOM     29  C   UNL     1      -3.749  -8.080   0.009  0.00  0.00    +0.040 A 
ATOM     30  C   UNL     1      -5.063  -7.610   0.035  0.00  0.00    +0.013 A 
ATOM     31  C   UNL     1      -6.112  -8.505   0.040  0.00  0.00    +0.003 A 
ATOM     32  C   UNL     1      -5.864  -9.866   0.029  0.00  0.00    +0.033 A 
ATOM     33  C   UNL     1      -4.564 -10.339   0.009  0.00  0.00    +0.127 A 
ATOM     34  C   UNL     1      -3.506  -9.454  -0.001  0.00  0.00    +0.045 A 
BRANCH  33  35
ATOM     35  N   UNL     1      -4.309 -11.796  -0.002  0.00  0.00    +0.056 N 
ATOM     36  O   UNL     1      -3.164 -12.214  -0.019  0.00  0.00    -0.126 OA
ATOM     37  O   UNL     1      -5.242 -12.579   0.007  0.00  0.00    -0.126 OA
ENDBRANCH  33  35
ENDBRANCH  26  29
ENDBRANCH  23  25
ENDBRANCH  20  21
ENDBRANCH   1  20
TORSDOF 8
