REMARK  Name = ZINC03999457
REMARK  6 active torsions:
REMARK  status: ('A' for Active; 'I' for Inactive)
REMARK    1  A    between atoms: C_1  and  C_2
REMARK    2  A    between atoms: C_8  and  C_35
REMARK    3  A    between atoms: C_9  and  O_34
REMARK    4  A    between atoms: C_19  and  C_21
REMARK    5  A    between atoms: C_21  and  N_64
REMARK    6  A    between atoms: N_24  and  C_27
REMARK                            x       y       z     vdW  Elec       q    Type
REMARK                         _______ _______ _______ _____ _____    ______ ____
ROOT
ATOM      1  C   UNL     1       1.291   0.089  -2.262  0.00  0.00    +0.008 C 
ATOM      2  C   UNL     1       0.725   1.502  -2.256  0.00  0.00    -0.001 C 
ATOM      3  C   UNL     1       1.846   2.527  -2.396  0.00  0.00    +0.008 C 
ATOM      4  C   UNL     1       1.199   3.905  -2.593  0.00  0.00    +0.027 C 
ATOM      5  C   UNL     1       0.300   4.173  -1.418  0.00  0.00    -0.027 C 
ATOM      6  C   UNL     1      -0.276   3.228  -0.739  0.00  0.00    -0.061 C 
ATOM      7  C   UNL     1      -0.130   1.757  -1.026  0.00  0.00    +0.018 C 
ATOM      8  C   UNL     1       0.405   1.075   0.221  0.00  0.00    +0.132 C 
ATOM      9  C   UNL     1      -0.217   1.497   1.522  0.00  0.00    +0.071 C 
ATOM     10  C   UNL     1      -0.553   2.977   1.706  0.00  0.00    +0.187 C 
ATOM     11  C   UNL     1      -1.153   3.599   0.439  0.00  0.00    +0.076 C 
ATOM     12  O   UNL     1      -1.625   2.978   2.709  0.00  0.00    -0.460 OA
ATOM     13  C   UNL     1      -2.253   1.795   2.755  0.00  0.00    +0.309 C 
ATOM     14  O   UNL     1      -3.255   1.556   3.396  0.00  0.00    -0.251 OA
ATOM     15  C   UNL     1      -1.515   0.777   1.900  0.00  0.00    +0.090 C 
ATOM     16  C   UNL     1      -1.523   1.198  -1.354  0.00  0.00    +0.018 C 
ENDROOT
BRANCH   8  17
ATOM     17  O   UNL     1       1.817   1.312   0.331  0.00  0.00    -0.391 OA
ATOM     18  H   UNL     1       2.229   0.885   1.094  0.00  0.00    +0.210 HD
ENDBRANCH   8  17
BRANCH  15  19
ATOM     19  C   UNL     1      -1.209  -0.478   2.729  0.00  0.00    -0.064 C 
BRANCH  19  25
ATOM     20  C   UNL     1      -1.372  -2.058   0.900  0.00  0.00    -0.060 C 
ATOM     21  C   UNL     1      -0.562  -3.000   0.006  0.00  0.00    +0.086 C 
ATOM     22  N   UNL     1       0.077  -4.030   0.837  0.00  0.00    -0.333 N 
ATOM     23  C   UNL     1       0.967  -3.421   1.835  0.00  0.00    +0.086 C 
ATOM     24  C   UNL     1       0.157  -2.479   2.729  0.00  0.00    -0.060 C 
ATOM     25  N   UNL     1      -0.462  -1.435   1.884  0.00  0.00    +0.382 N 
ATOM     26  H   UNL     1       0.278  -0.930   1.382  0.00  0.00    -0.082 HD
BRANCH  22  27
ATOM     27  C   UNL     1       0.769  -4.953   0.046  0.00  0.00    +0.030 A 
ATOM     28  C   UNL     1       2.122  -5.179   0.264  0.00  0.00    +0.026 A 
ATOM     29  C   UNL     1       2.802  -6.095  -0.515  0.00  0.00    +0.040 A 
ATOM     30  C   UNL     1       2.138  -6.780  -1.518  0.00  0.00    +0.124 A 
ATOM     31  C   UNL     1       0.790  -6.553  -1.740  0.00  0.00    +0.040 A 
ATOM     32  C   UNL     1       0.105  -5.641  -0.961  0.00  0.00    +0.026 A 
ATOM     33  F   UNL     1       2.806  -7.672  -2.282  0.00  0.00    -0.205 F 
ENDBRANCH  22  27
ENDBRANCH  19  25
ENDBRANCH  15  19
TORSDOF 4
