REMARK  Name = ZINC57531389
REMARK  8 active torsions:
REMARK  status: ('A' for Active; 'I' for Inactive)
REMARK    1  A    between atoms: C_1  and  O_2
REMARK    2  A    between atoms: O_2  and  C_3
REMARK    3  A    between atoms: C_5  and  C_10
REMARK    4  A    between atoms: C_8  and  O_9
REMARK    5  A    between atoms: C_12  and  C_24
REMARK    6  A    between atoms: C_14  and  C_19
REMARK    7  A    between atoms: C_14  and  O_23
REMARK    8  A    between atoms: C_24  and  C_26
REMARK                            x       y       z     vdW  Elec       q    Type
REMARK                         _______ _______ _______ _____ _____    ______ ____
ROOT
ATOM      1  C   UNL     1      -4.342   0.295   0.431  0.00  0.00    +0.118 C 
ATOM      2  C   UNL     1      -5.496   0.209   1.436  0.00  0.00    +0.144 C 
ATOM      3  C   UNL     1      -6.767   0.742   0.766  0.00  0.00    +0.241 C 
ATOM      4  N   UNL     1      -7.006  -0.003  -0.471  0.00  0.00    -0.291 N 
ATOM      5  C   UNL     1      -5.994  -0.532  -1.173  0.00  0.00    +0.133 C 
ATOM      6  S   UNL     1      -6.349  -1.377  -2.619  0.00  0.00    -0.019 S 
ATOM      7  N   UNL     1      -4.712  -0.424  -0.789  0.00  0.00    -0.319 N 
ATOM      8  H   UNL     1      -7.915  -0.116  -0.789  0.00  0.00    +0.151 HD
ATOM      9  H   UNL     1      -4.017  -0.832  -1.330  0.00  0.00    +0.148 HD
ENDROOT
BRANCH   1  12
ATOM     10  C   UNL     1      -1.055  -0.109   2.248  0.00  0.00    +0.162 A 
ATOM     11  C   UNL     1      -2.192   0.462   1.699  0.00  0.00    +0.055 A 
ATOM     12  C   UNL     1      -3.107  -0.327   1.028  0.00  0.00    -0.023 A 
ATOM     13  C   UNL     1      -2.891  -1.687   0.903  0.00  0.00    +0.009 A 
ATOM     14  C   UNL     1      -1.759  -2.263   1.449  0.00  0.00    +0.049 A 
ATOM     15  C   UNL     1      -0.835  -1.476   2.118  0.00  0.00    +0.158 A 
BRANCH  10  17
ATOM     16  C   UNL     1      -0.445   2.063   3.003  0.00  0.00    +0.277 C 
ATOM     17  O   UNL     1      -0.154   0.667   2.908  0.00  0.00    -0.491 OA
ENDBRANCH  10  17
BRANCH  15  18
ATOM     18  O   UNL     1       0.282  -2.041   2.651  0.00  0.00    -0.503 OA
ATOM     19  H   UNL     1       0.173  -2.345   3.562  0.00  0.00    +0.292 HD
ENDBRANCH  15  18
ENDBRANCH   1  12
BRANCH   3  20
ATOM     20  C   UNL     1      -7.957   0.560   1.711  0.00  0.00    +0.436 C 
ATOM     21  F   UNL     1      -7.724   1.266   2.896  0.00  0.00    -0.166 F 
ATOM     22  F   UNL     1      -9.117   1.046   1.099  0.00  0.00    -0.166 F 
ATOM     23  F   UNL     1      -8.118  -0.799   2.002  0.00  0.00    -0.166 F 
ENDBRANCH   3  20
BRANCH   3  24
ATOM     24  O   UNL     1      -6.603   2.129   0.465  0.00  0.00    -0.364 OA
ATOM     25  H   UNL     1      -7.372   2.532   0.039  0.00  0.00    +0.212 HD
ENDBRANCH   3  24
BRANCH   2  26
ATOM     26  C   UNL     1      -5.700  -1.225   1.850  0.00  0.00    +0.179 C 
ATOM     27  O   UNL     1      -5.731  -2.101   1.010  0.00  0.00    -0.291 OA
BRANCH  26  28
ATOM     28  C   UNL     1      -5.856  -1.551   3.216  0.00  0.00    +0.055 A 
ATOM     29  C   UNL     1      -6.047  -2.797   3.804  0.00  0.00    +0.019 A 
ATOM     30  C   UNL     1      -6.166  -2.797   5.171  0.00  0.00    +0.008 A 
ATOM     31  C   UNL     1      -6.091  -1.619   5.841  0.00  0.00    +0.046 A 
ATOM     32  S   UNL     1      -5.850  -0.473   4.636  0.00  0.00    -0.094 S 
ENDBRANCH  26  28
ENDBRANCH   2  26
TORSDOF 7
