REMARK  Name = ZINC40721918
REMARK  11 active torsions:
REMARK  status: ('A' for Active; 'I' for Inactive)
REMARK    1  A    between atoms: C_1  and  C_2
REMARK    2  A    between atoms: C_2  and  C_3
REMARK    3  A    between atoms: C_2  and  O_4
REMARK    4  A    between atoms: O_4  and  C_5
REMARK    5  A    between atoms: C_14  and  C_15
REMARK    6  A    between atoms: C_15  and  N_16
REMARK    7  A    between atoms: N_16  and  C_17
REMARK    8  A    between atoms: C_17  and  C_18
REMARK    9  A    between atoms: C_18  and  S_19
REMARK   10  A    between atoms: S_19  and  C_20
REMARK   11  A    between atoms: N_24  and  C_25
REMARK                            x       y       z     vdW  Elec       q    Type
REMARK                         _______ _______ _______ _____ _____    ______ ____
ROOT
ATOM      1  N   UNL     1      -4.534  -0.367  -1.096  0.00  0.00    +0.382 N 
ATOM      2  H   UNL     1      -3.807   0.283  -1.354  0.00  0.00    -0.085 HD
ATOM      3  H   UNL     1      -4.870  -0.840  -1.921  0.00  0.00    -0.085 HD
ENDROOT
BRANCH   1   4
ATOM      4  C   UNL     1      -3.996  -1.354  -0.150  0.00  0.00    -0.042 C 
BRANCH   4  14
ATOM      5  C   UNL     1      -1.580  -1.639  -0.686  0.00  0.00    +0.123 A 
ATOM      6  C   UNL     1      -0.514  -2.326  -1.276  0.00  0.00    +0.046 A 
ATOM      7  C   UNL     1      -0.725  -3.469  -1.982  0.00  0.00    +0.012 A 
ATOM      8  C   UNL     1      -2.030  -3.973  -2.121  0.00  0.00    -0.017 A 
ATOM      9  C   UNL     1      -2.283  -5.152  -2.842  0.00  0.00    +0.008 A 
ATOM     10  C   UNL     1      -3.559  -5.611  -2.957  0.00  0.00    +0.001 A 
ATOM     11  C   UNL     1      -4.623  -4.928  -2.370  0.00  0.00    +0.001 A 
ATOM     12  C   UNL     1      -4.416  -3.783  -1.664  0.00  0.00    +0.009 A 
ATOM     13  C   UNL     1      -3.112  -3.278  -1.524  0.00  0.00    -0.013 A 
ATOM     14  C   UNL     1      -2.860  -2.103  -0.798  0.00  0.00    -0.015 A 
BRANCH   5  15
ATOM     15  O   UNL     1      -1.339  -0.499   0.012  0.00  0.00    -0.489 OA
BRANCH  15  17
ATOM     16  C   UNL     1      -0.011   1.504   0.269  0.00  0.00    +0.051 C 
ATOM     17  C   UNL     1       0.001  -0.002   0.000  0.00  0.00    +0.167 C 
ATOM     18  C   UNL     1       0.817  -0.708   1.086  0.00  0.00    +0.051 C 
ENDBRANCH  15  17
ENDBRANCH   5  15
ENDBRANCH   4  14
ENDBRANCH   1   4
BRANCH   1  19
ATOM     19  C   UNL     1      -5.642   0.363  -0.465  0.00  0.00    -0.071 C 
BRANCH  19  20
ATOM     20  C   UNL     1      -6.202   1.391  -1.450  0.00  0.00    +0.058 C 
BRANCH  20  21
ATOM     21  S   UNL     1      -7.570   2.293  -0.671  0.00  0.00    -0.086 S 
BRANCH  21  22
ATOM     22  C   UNL     1      -8.099   3.423  -1.915  0.00  0.00    +0.214 A 
ATOM     23  N   UNL     1      -7.595   3.548  -3.123  0.00  0.00    -0.101 NA
ATOM     24  N   UNL     1      -8.213   4.465  -3.776  0.00  0.00    -0.022 NA
ATOM     25  N   UNL     1      -9.142   4.986  -3.049  0.00  0.00    -0.038 NA
ATOM     26  N   UNL     1      -9.108   4.324  -1.809  0.00  0.00    -0.187 N 
BRANCH  26  27
ATOM     27  C   UNL     1      -9.937   4.549  -0.701  0.00  0.00    +0.070 A 
ATOM     28  C   UNL     1     -10.312   3.489   0.113  0.00  0.00    +0.028 A 
ATOM     29  C   UNL     1     -11.128   3.714   1.205  0.00  0.00    +0.002 A 
ATOM     30  C   UNL     1     -11.572   4.993   1.486  0.00  0.00    +0.000 A 
ATOM     31  C   UNL     1     -11.200   6.051   0.677  0.00  0.00    +0.002 A 
ATOM     32  C   UNL     1     -10.379   5.833  -0.412  0.00  0.00    +0.028 A 
ENDBRANCH  26  27
ENDBRANCH  21  22
ENDBRANCH  20  21
ENDBRANCH  19  20
ENDBRANCH   1  19
TORSDOF 9
