REMARK  Name = ZINC08636093
REMARK  12 active torsions:
REMARK  status: ('A' for Active; 'I' for Inactive)
REMARK    1  A    between atoms: C_1  and  C_2
REMARK    2  A    between atoms: C_3  and  C_16
REMARK    3  A    between atoms: C_4  and  C_15
REMARK    4  A    between atoms: N_5  and  C_7
REMARK    5  A    between atoms: C_10  and  O_13
REMARK    6  A    between atoms: O_13  and  C_14
REMARK    7  A    between atoms: C_19  and  N_63
REMARK    8  A    between atoms: C_23  and  C_24
REMARK    9  A    between atoms: C_23  and  N_63
REMARK   10  A    between atoms: C_27  and  C_30
REMARK   11  A    between atoms: C_30  and  C_31
REMARK   12  A    between atoms: C_30  and  C_32
REMARK                            x       y       z     vdW  Elec       q    Type
REMARK                         _______ _______ _______ _____ _____    ______ ____
ROOT
ATOM      1  C   UNL     1      -1.294   1.951   0.016  0.00  0.00    +0.044 C 
ATOM      2  C   UNL     1      -0.706   3.284   0.540  0.00  0.00    +0.000 C 
ATOM      3  C   UNL     1       0.749   3.199   0.023  0.00  0.00    -0.047 C 
ATOM      4  C   UNL     1       1.015   1.720  -0.132  0.00  0.00    -0.046 C 
ATOM      5  C   UNL     1      -0.098   1.039  -0.133  0.00  0.00    -0.025 C 
ENDROOT
BRANCH   1   8
ATOM      6  C   UNL     1      -0.672   1.271   3.048  0.00  0.00    +0.068 C 
ATOM      7  C   UNL     1      -1.996   1.080   2.352  0.00  0.00    +0.064 A 
ATOM      8  C   UNL     1      -2.269   1.381   1.013  0.00  0.00    +0.003 A 
ATOM      9  C   UNL     1      -3.565   1.074   0.773  0.00  0.00    +0.046 A 
ATOM     10  N   UNL     1      -4.091   0.587   1.920  0.00  0.00    -0.236 N 
ATOM     11  N   UNL     1      -3.087   0.605   2.896  0.00  0.00    -0.171 NA
ATOM     12  C   UNL     1      -4.291   1.242  -0.537  0.00  0.00    +0.066 C 
BRANCH  10  13
ATOM     13  C   UNL     1      -5.412   0.148   2.101  0.00  0.00    +0.066 A 
ATOM     14  C   UNL     1      -6.100   0.477   3.261  0.00  0.00    +0.031 A 
ATOM     15  C   UNL     1      -7.401   0.049   3.437  0.00  0.00    +0.048 A 
ATOM     16  C   UNL     1      -8.016  -0.719   2.459  0.00  0.00    +0.120 A 
ATOM     17  C   UNL     1      -7.327  -1.052   1.302  0.00  0.00    +0.048 A 
ATOM     18  C   UNL     1      -6.028  -0.620   1.123  0.00  0.00    +0.031 A 
BRANCH  16  19
ATOM     19  O   UNL     1      -9.295  -1.145   2.635  0.00  0.00    -0.495 OA
ATOM     20  C   UNL     1      -9.944  -0.764   3.850  0.00  0.00    +0.277 C 
ENDBRANCH  16  19
ENDBRANCH  10  13
ENDBRANCH   1   8
BRANCH   3  21
ATOM     21  N   UNL     1       0.864   3.882  -1.279  0.00  0.00    +0.386 N 
ATOM     22  H   UNL     1       0.278   4.725  -1.273  0.00  0.00    -0.085 HD
ATOM     23  H   UNL     1       0.545   3.249  -2.022  0.00  0.00    -0.085 HD
BRANCH  21  24
ATOM     24  C   UNL     1       2.265   4.265  -1.534  0.00  0.00    -0.046 C 
BRANCH  24  25
ATOM     25  C   UNL     1       2.352   4.959  -2.869  0.00  0.00    -0.064 A 
ATOM     26  C   UNL     1       2.588   4.224  -4.016  0.00  0.00    +0.002 A 
ATOM     27  C   UNL     1       2.663   4.860  -5.241  0.00  0.00    +0.004 A 
ATOM     28  C   UNL     1       2.513   6.232  -5.318  0.00  0.00    -0.045 A 
ATOM     29  C   UNL     1       2.282   6.967  -4.170  0.00  0.00    +0.004 A 
ATOM     30  C   UNL     1       2.202   6.331  -2.946  0.00  0.00    +0.002 A 
BRANCH  28  31
ATOM     31  C   UNL     1       2.601   6.926  -6.653  0.00  0.00    +0.013 C 
ATOM     32  C   UNL     1       3.976   6.669  -7.271  0.00  0.00    +0.012 C 
ATOM     33  C   UNL     1       1.514   6.383  -7.583  0.00  0.00    +0.012 C 
ENDBRANCH  28  31
ENDBRANCH  24  25
ENDBRANCH  21  24
ENDBRANCH   3  21
TORSDOF 7
