REMARK  Name = ZINC31055931
REMARK  8 active torsions:
REMARK  status: ('A' for Active; 'I' for Inactive)
REMARK    1  A    between atoms: C_1  and  C_2
REMARK    2  A    between atoms: C_8  and  N_15
REMARK    3  A    between atoms: C_11  and  C_13
REMARK    4  A    between atoms: C_11  and  C_14
REMARK    5  A    between atoms: C_16  and  C_18
REMARK    6  A    between atoms: N_23  and  C_25
REMARK    7  A    between atoms: C_25  and  C_26
REMARK    8  A    between atoms: C_28  and  C_31
REMARK                            x       y       z     vdW  Elec       q    Type
REMARK                         _______ _______ _______ _____ _____    ______ ____
ROOT
ATOM      1  C   UNL     1       5.936   8.821   2.882  0.00  0.00    +0.058 C 
ATOM      2  C   UNL     1       4.638   9.073   3.655  0.00  0.00    +0.009 C 
ATOM      3  C   UNL     1       3.744   7.834   3.553  0.00  0.00    -0.018 C 
ATOM      4  C   UNL     1       3.472   7.528   2.078  0.00  0.00    -0.078 C 
ATOM      5  N   UNL     1       4.744   7.294   1.383  0.00  0.00    +0.386 N 
ATOM      6  C   UNL     1       5.601   8.486   1.427  0.00  0.00    -0.065 C 
ATOM      7  H   UNL     1       5.269   6.484   1.909  0.00  0.00    -0.081 HD
ENDROOT
BRANCH   1   9
ATOM      8  N   UNL     1       7.219  10.540   4.114  0.00  0.00    -0.308 N 
ATOM      9  C   UNL     1       6.798  10.056   2.929  0.00  0.00    +0.215 C 
ATOM     10  O   UNL     1       7.114  10.614   1.899  0.00  0.00    -0.276 OA
ATOM     11  H   UNL     1       6.933  10.034   5.048  0.00  0.00    +0.149 HD
BRANCH   8  19
ATOM     12  C   UNL     1       4.091  14.117   2.283  0.00  0.00    +0.044 C 
ATOM     13  C   UNL     1       5.270  14.099   3.221  0.00  0.00    -0.050 A 
ATOM     14  C   UNL     1       5.528  15.190   4.030  0.00  0.00    +0.007 A 
ATOM     15  C   UNL     1       6.607  15.171   4.889  0.00  0.00    +0.046 A 
ATOM     16  C   UNL     1       7.438  14.056   4.946  0.00  0.00    +0.126 A 
ATOM     17  C   UNL     1       7.179  12.966   4.133  0.00  0.00    +0.015 A 
ATOM     18  C   UNL     1       6.094  12.991   3.272  0.00  0.00    +0.012 A 
ATOM     19  C   UNL     1       8.057  11.741   4.159  0.00  0.00    +0.110 C 
ATOM     20  C   UNL     1       8.891  11.732   5.442  0.00  0.00    +0.074 C 
ATOM     21  C   UNL     1       9.529  13.117   5.612  0.00  0.00    +0.107 C 
ATOM     22  O   UNL     1       8.485  14.071   5.811  0.00  0.00    -0.486 OA
ATOM     23  C   UNL     1      10.323  13.476   4.355  0.00  0.00    +0.055 C 
ATOM     24  C   UNL     1      10.459  13.110   6.827  0.00  0.00    +0.055 C 
ENDBRANCH   8  19
ENDBRANCH   1   9
BRANCH   5  25
ATOM     25  C   UNL     1       4.515   6.862  -0.003  0.00  0.00    +0.022 C 
BRANCH  25  26
ATOM     26  C   UNL     1       3.846   5.512  -0.003  0.00  0.00    +0.211 A 
ATOM     27  N   UNL     1       2.556   5.282   0.007  0.00  0.00    -0.193 NA
ATOM     28  C   UNL     1       2.427   3.936   0.001  0.00  0.00    +0.203 A 
ATOM     29  N   UNL     1       3.634   3.432  -0.007  0.00  0.00    -0.056 NA
ATOM     30  O   UNL     1       4.457   4.323  -0.015  0.00  0.00    -0.340 OA
BRANCH  28  31
ATOM     31  C   UNL     1       1.154   3.174   0.008  0.00  0.00    +0.041 A 
ATOM     32  C   UNL     1       1.173   1.780   0.000  0.00  0.00    +0.014 A 
ATOM     33  C   UNL     1      -0.013   1.076   0.008  0.00  0.00    +0.021 A 
ATOM     34  C   UNL     1      -1.222   1.750   0.017  0.00  0.00    +0.042 A 
ATOM     35  C   UNL     1      -1.248   3.134   0.031  0.00  0.00    +0.040 A 
ATOM     36  C   UNL     1      -0.066   3.849   0.023  0.00  0.00    +0.053 A 
ATOM     37 CL   UNL     1      -0.099   5.585   0.032  0.00  0.00    -0.083 Cl
ATOM     38 CL   UNL     1      -2.711   0.857   0.019  0.00  0.00    -0.083 Cl
ENDBRANCH  28  31
ENDBRANCH  25  26
ENDBRANCH   5  25
TORSDOF 5
