REMARK  Name = ZINC65455858
REMARK  5 active torsions:
REMARK  status: ('A' for Active; 'I' for Inactive)
REMARK    1  A    between atoms: C_1  and  N_2
REMARK    2  A    between atoms: N_2  and  C_3
REMARK    3  A    between atoms: C_3  and  C_4
REMARK    4  A    between atoms: C_11  and  N_16
REMARK    5  A    between atoms: N_16  and  C_17
REMARK                            x       y       z     vdW  Elec       q    Type
REMARK                         _______ _______ _______ _____ _____    ______ ____
ROOT
ATOM      1  C   UNL     1      -0.018   1.461   0.010  0.00  0.00    +0.131 C 
ATOM      2  N   UNL     1       0.002  -0.004   0.002  0.00  0.00    -0.314 N 
ATOM      3  C   UNL     1       0.000  -0.691  -1.202  0.00  0.00    +0.128 A 
ATOM      4  C   UNL     1       0.090  -0.000  -2.408  0.00  0.00    +0.085 A 
ATOM      5  C   UNL     1       0.084  -0.732  -3.591  0.00  0.00    +0.102 A 
ATOM      6  N   UNL     1      -0.006  -2.059  -3.533  0.00  0.00    -0.316 N 
ATOM      7  C   UNL     1      -0.090  -2.682  -2.368  0.00  0.00    +0.193 A 
ATOM      8  N   UNL     1      -0.082  -2.019  -1.221  0.00  0.00    -0.201 NA
ATOM      9  N   UNL     1      -0.182  -4.062  -2.347  0.00  0.00    -0.329 N 
ATOM     10  H   UNL     1      -0.185  -4.561  -3.179  0.00  0.00    +0.145 HD
ATOM     11  H   UNL     1      -0.245  -4.532  -1.500  0.00  0.00    +0.145 HD
ATOM     12  H   UNL     1      -0.010  -2.575  -4.354  0.00  0.00    +0.170 HD
ENDROOT
BRANCH   5  13
ATOM     13  N   UNL     1       0.171  -0.087  -4.816  0.00  0.00    -0.328 N 
ATOM     14  H   UNL     1       0.167  -0.603  -5.637  0.00  0.00    +0.148 HD
BRANCH  13  15
ATOM     15  C   UNL     1       0.269   1.374  -4.869  0.00  0.00    +0.072 C 
ATOM     16  C   UNL     1       1.283   1.979  -5.842  0.00  0.00    +0.024 C 
ATOM     17  C   UNL     1      -0.214   2.068  -6.143  0.00  0.00    +0.024 C 
ENDBRANCH  13  15
ENDBRANCH   5  13
BRANCH   2  18
ATOM     18  C   UNL     1       0.024  -0.743   1.267  0.00  0.00    +0.144 C 
BRANCH  18  19
ATOM     19  C   UNL     1      -1.389  -1.016   1.714  0.00  0.00    +0.007 A 
ATOM     20  C   UNL     1      -2.189  -0.186   2.532  0.00  0.00    +0.046 A 
ATOM     21  C   UNL     1      -3.372  -0.808   2.680  0.00  0.00    +0.195 A 
ATOM     22  O   UNL     1      -3.332  -1.964   1.998  0.00  0.00    -0.471 OA
ATOM     23  C   UNL     1      -2.133  -2.094   1.406  0.00  0.00    +0.200 A 
ENDBRANCH  18  19
ENDBRANCH   2  18
TORSDOF 4
