REMARK  Name = ZINC63655203
REMARK  18 active torsions:
REMARK  status: ('A' for Active; 'I' for Inactive)
REMARK    1  A    between atoms: C_1  and  C_2
REMARK    2  A    between atoms: C_4  and  C_13
REMARK    3  A    between atoms: C_13  and  C_14
REMARK    4  A    between atoms: C_14  and  N_15
REMARK    5  A    between atoms: N_15  and  C_16
REMARK    6  A    between atoms: N_15  and  C_29
REMARK    7  A    between atoms: C_16  and  C_17
REMARK    8  A    between atoms: C_19  and  O_27
REMARK    9  A    between atoms: C_20  and  O_25
REMARK   10  A    between atoms: C_21  and  O_23
REMARK   11  A    between atoms: O_23  and  C_24
REMARK   12  A    between atoms: O_25  and  C_26
REMARK   13  A    between atoms: O_27  and  C_28
REMARK   14  A    between atoms: C_29  and  N_31
REMARK   15  A    between atoms: N_31  and  C_32
REMARK   16  A    between atoms: C_32  and  C_33
REMARK   17  A    between atoms: C_32  and  C_34
REMARK   18  A    between atoms: C_32  and  C_35
REMARK                            x       y       z     vdW  Elec       q    Type
REMARK                         _______ _______ _______ _____ _____    ______ ____
ROOT
ATOM      1  N   UNL     1       1.024  -0.751  -4.981  0.00  0.00    -0.308 N 
ENDROOT
BRANCH   1   2
ATOM      2  C   UNL     1       0.206  -1.613  -5.617  0.00  0.00    +0.134 C 
ATOM      3  S   UNL     1      -0.174  -1.372  -7.269  0.00  0.00    -0.019 S 
BRANCH   2   4
ATOM      4  N   UNL     1      -0.313  -2.664  -4.952  0.00  0.00    -0.322 N 
ATOM      5  H   UNL     1      -0.040  -2.843  -4.039  0.00  0.00    +0.148 HD
BRANCH   4   6
ATOM      6  C   UNL     1      -1.290  -3.536  -5.609  0.00  0.00    +0.025 C 
ATOM      7  C   UNL     1      -0.637  -4.218  -6.813  0.00  0.00    +0.031 C 
ATOM      8  C   UNL     1      -1.770  -4.600  -4.620  0.00  0.00    +0.031 C 
ATOM      9  C   UNL     1      -2.483  -2.702  -6.080  0.00  0.00    +0.031 C 
ENDBRANCH   4   6
ENDBRANCH   2   4
ENDBRANCH   1   2
BRANCH   1  10
ATOM     10  C   UNL     1       1.349  -0.957  -3.568  0.00  0.00    +0.111 C 
BRANCH  10  11
ATOM     11  C   UNL     1       0.324  -0.227  -2.697  0.00  0.00    +0.052 C 
BRANCH  11  14
ATOM     12  C   UNL     1      -0.091   1.634  -0.075  0.00  0.00    +0.035 C 
ATOM     13  C   UNL     1      -0.093   0.104  -0.048  0.00  0.00    +0.103 C 
ATOM     14  C   UNL     1       0.659  -0.439  -1.243  0.00  0.00    -0.037 C 
ATOM     15  C   UNL     1       1.692  -1.154  -0.742  0.00  0.00    +0.002 A 
ATOM     16  C   UNL     1       2.772  -1.919  -1.377  0.00  0.00    +0.048 A 
ATOM     17  C   UNL     1       3.682  -2.544  -0.594  0.00  0.00    +0.124 A 
ATOM     18  C   UNL     1       3.618  -2.479   0.807  0.00  0.00    +0.040 A 
ATOM     19  C   UNL     1       2.655  -1.796   1.461  0.00  0.00    +0.029 A 
ATOM     20  C   UNL     1       1.647  -1.101   0.737  0.00  0.00    +0.043 A 
ATOM     21  N   UNL     1       0.625  -0.382   1.136  0.00  0.00    -0.378 N 
ATOM     22  F   UNL     1       4.677  -3.249  -1.175  0.00  0.00    -0.205 F 
ATOM     23  H   UNL     1       0.384  -0.200   2.058  0.00  0.00    +0.160 HD
ENDBRANCH  11  14
ENDBRANCH  10  11
ENDBRANCH   1  10
BRANCH   1  24
ATOM     24  C   UNL     1       1.588   0.392  -5.704  0.00  0.00    +0.142 C 
BRANCH  24  25
ATOM     25  C   UNL     1       2.902  -0.005  -6.324  0.00  0.00    -0.023 A 
ATOM     26  C   UNL     1       4.076   0.154  -5.612  0.00  0.00    +0.054 A 
ATOM     27  C   UNL     1       5.288  -0.210  -6.180  0.00  0.00    +0.165 A 
ATOM     28  C   UNL     1       5.321  -0.735  -7.467  0.00  0.00    +0.204 A 
ATOM     29  C   UNL     1       4.138  -0.893  -8.179  0.00  0.00    +0.165 A 
ATOM     30  C   UNL     1       2.930  -0.531  -7.602  0.00  0.00    +0.054 A 
BRANCH  29  31
ATOM     31  O   UNL     1       4.165  -1.406  -9.438  0.00  0.00    -0.491 OA
ATOM     32  C   UNL     1       2.911  -1.540 -10.111  0.00  0.00    +0.277 C 
ENDBRANCH  29  31
BRANCH  28  33
ATOM     33  O   UNL     1       6.508  -1.093  -8.027  0.00  0.00    -0.488 OA
ATOM     34  C   UNL     1       6.945  -2.437  -7.819  0.00  0.00    +0.277 C 
ENDBRANCH  28  33
BRANCH  27  35
ATOM     35  O   UNL     1       6.443  -0.053  -5.479  0.00  0.00    -0.491 OA
ATOM     36  C   UNL     1       6.334   0.493  -4.163  0.00  0.00    +0.277 C 
ENDBRANCH  27  35
ENDBRANCH  24  25
ENDBRANCH   1  24
TORSDOF 11
