REMARK  Name = ZINC36026357
REMARK  6 active torsions:
REMARK  status: ('A' for Active; 'I' for Inactive)
REMARK    1  A    between atoms: C_4  and  C_7
REMARK    2  A    between atoms: C_7  and  C_8
REMARK    3  A    between atoms: N_12  and  C_29
REMARK    4  A    between atoms: C_20  and  C_22
REMARK    5  A    between atoms: C_29  and  C_30
REMARK    6  A    between atoms: C_30  and  C_31
REMARK                            x       y       z     vdW  Elec       q    Type
REMARK                         _______ _______ _______ _____ _____    ______ ____
ROOT
ATOM      1  C   UNL     1       4.049  -1.316   1.200  0.00  0.00    +0.023 C 
ATOM      2  C   UNL     1       5.390  -2.017   1.224  0.00  0.00    +0.201 C 
ATOM      3  O   UNL     1       6.256  -1.920   0.380  0.00  0.00    -0.277 OA
ATOM      4  N   UNL     1       5.461  -2.767   2.343  0.00  0.00    -0.313 N 
ATOM      5  C   UNL     1       4.223  -2.617   3.112  0.00  0.00    +0.006 C 
ATOM      6  N   UNL     1       3.219  -2.050   2.185  0.00  0.00    +0.401 N 
ATOM      7  C   UNL     1       3.748  -3.976   3.622  0.00  0.00    +0.025 C 
ATOM      8  C   UNL     1       4.811  -4.570   4.552  0.00  0.00    +0.108 C 
ATOM      9  N   UNL     1       5.115  -3.593   5.606  0.00  0.00    -0.297 N 
ATOM     10  C   UNL     1       5.510  -2.232   5.217  0.00  0.00    +0.108 C 
ATOM     11  C   UNL     1       4.441  -1.658   4.282  0.00  0.00    +0.025 C 
ATOM     12  C   UNL     1       5.035  -3.939   6.907  0.00  0.00    +0.248 C 
ATOM     13  O   UNL     1       4.778  -5.086   7.215  0.00  0.00    -0.270 OA
ATOM     14  H   UNL     1       2.599  -1.418   2.671  0.00  0.00    -0.082 HD
ATOM     15  H   UNL     1       2.697  -2.786   1.733  0.00  0.00    -0.082 HD
ENDROOT
BRANCH  12  16
ATOM     16  C   UNL     1       5.258  -2.924   7.957  0.00  0.00    +0.055 A 
ATOM     17  C   UNL     1       6.437  -2.177   7.970  0.00  0.00    +0.014 A 
ATOM     18  C   UNL     1       6.639  -1.230   8.953  0.00  0.00    +0.001 A 
ATOM     19  C   UNL     1       5.676  -1.019   9.925  0.00  0.00    +0.001 A 
ATOM     20  C   UNL     1       4.506  -1.755   9.918  0.00  0.00    +0.021 A 
ATOM     21  C   UNL     1       4.287  -2.702   8.937  0.00  0.00    +0.053 A 
ATOM     22 CL   UNL     1       2.814  -3.620   8.925  0.00  0.00    -0.083 Cl
ENDBRANCH  12  16
BRANCH   1  23
ATOM     23  C   UNL     1       3.426  -1.405  -0.194  0.00  0.00    +0.028 C 
BRANCH  23  27
ATOM     24  C   UNL     1      -0.285   0.709  -0.235  0.00  0.00    +0.000 A 
ATOM     25  C   UNL     1       0.889   1.368  -0.548  0.00  0.00    +0.000 A 
ATOM     26  C   UNL     1       2.090   0.684  -0.535  0.00  0.00    +0.003 A 
ATOM     27  C   UNL     1       2.117  -0.659  -0.208  0.00  0.00    -0.048 A 
ATOM     28  C   UNL     1       0.943  -1.318   0.106  0.00  0.00    +0.003 A 
ATOM     29  C   UNL     1      -0.259  -0.634   0.091  0.00  0.00    +0.000 A 
ENDBRANCH  23  27
ENDBRANCH   1  23
BRANCH   4  30
ATOM     30  C   UNL     1       6.600  -3.604   2.730  0.00  0.00    +0.112 C 
BRANCH  30  31
ATOM     31  C   UNL     1       6.447  -4.993   2.106  0.00  0.00    +0.074 C 
BRANCH  31  32
ATOM     32  C   UNL     1       7.655  -5.830   2.441  0.00  0.00    +0.043 A 
ATOM     33  C   UNL     1       7.487  -7.057   3.054  0.00  0.00    +0.023 A 
ATOM     34  C   UNL     1       8.605  -7.819   3.358  0.00  0.00    +0.003 A 
ATOM     35  C   UNL     1       9.855  -7.315   3.033  0.00  0.00    +0.020 A 
ATOM     36  C   UNL     1       9.945  -6.079   2.421  0.00  0.00    +0.111 A 
ATOM     37  N   UNL     1       8.860  -5.384   2.142  0.00  0.00    -0.260 NA
ENDBRANCH  31  32
ENDBRANCH  30  31
ENDBRANCH   4  30
TORSDOF 6
