REMARK  Name = ZINC13189525
REMARK  11 active torsions:
REMARK  status: ('A' for Active; 'I' for Inactive)
REMARK    1  A    between atoms: C_1  and  C_2
REMARK    2  A    between atoms: C_5  and  N_9
REMARK    3  A    between atoms: C_7  and  C_8
REMARK    4  A    between atoms: C_10  and  C_12
REMARK    5  A    between atoms: C_12  and  S_13
REMARK    6  A    between atoms: S_13  and  C_14
REMARK    7  A    between atoms: C_15  and  C_35
REMARK    8  A    between atoms: C_16  and  C_26
REMARK    9  A    between atoms: C_29  and  O_34
REMARK   10  A    between atoms: C_30  and  O_32
REMARK   11  A    between atoms: O_32  and  C_33
REMARK                            x       y       z     vdW  Elec       q    Type
REMARK                         _______ _______ _______ _____ _____    ______ ____
ROOT
ATOM      1  C   UNL     1      -0.356  -8.692  -2.728  0.00  0.00    +0.080 C 
ATOM      2  C   UNL     1      -0.454  -9.475  -3.835  0.00  0.00    +0.069 C 
ATOM      3  C   UNL     1      -0.532 -10.969  -3.722  0.00  0.00    +0.097 C 
ATOM      4  C   UNL     1      -0.921 -11.390  -2.327  0.00  0.00    +0.024 C 
ATOM      5  C   UNL     1      -0.801 -10.537  -1.287  0.00  0.00    +0.016 C 
ATOM      6  N   UNL     1      -0.330  -9.265  -1.478  0.00  0.00    -0.311 N 
ATOM      7  C   UNL     1      -1.171 -10.963   0.113  0.00  0.00    +0.051 C 
ATOM      8  C   UNL     1      -2.302 -11.992   0.055  0.00  0.00    +0.014 C 
ATOM      9  C   UNL     1      -1.831 -13.185  -0.784  0.00  0.00    +0.080 C 
ATOM     10  C   UNL     1      -1.412 -12.694  -2.142  0.00  0.00    +0.162 C 
ATOM     11  O   UNL     1      -1.501 -13.438  -3.099  0.00  0.00    -0.292 OA
ATOM     12  H   UNL     1       0.021  -8.762  -0.726  0.00  0.00    +0.152 HD
ENDROOT
BRANCH   3  13
ATOM     13  C   UNL     1       0.812 -11.562  -4.059  0.00  0.00    -0.031 A 
ATOM     14  C   UNL     1       1.922 -11.226  -3.306  0.00  0.00    +0.008 A 
ATOM     15  C   UNL     1       3.157 -11.767  -3.611  0.00  0.00    +0.049 A 
ATOM     16  C   UNL     1       3.285 -12.648  -4.673  0.00  0.00    +0.158 A 
ATOM     17  C   UNL     1       2.168 -12.985  -5.431  0.00  0.00    +0.162 A 
ATOM     18  C   UNL     1       0.932 -12.444  -5.117  0.00  0.00    +0.054 A 
BRANCH  17  19
ATOM     19  O   UNL     1       2.288 -13.849  -6.474  0.00  0.00    -0.491 OA
ATOM     20  C   UNL     1       1.099 -14.150  -7.207  0.00  0.00    +0.277 C 
ENDBRANCH  17  19
BRANCH  16  21
ATOM     21  O   UNL     1       4.499 -13.180  -4.975  0.00  0.00    -0.503 OA
ATOM     22  H   UNL     1       4.688 -14.012  -4.519  0.00  0.00    +0.292 HD
ENDBRANCH  16  21
ENDBRANCH   3  13
BRANCH   2  23
ATOM     23  C   UNL     1      -0.481  -8.865  -5.130  0.00  0.00    +0.098 C 
ATOM     24  N   UNL     1      -0.504  -8.380  -6.157  0.00  0.00    -0.191 NA
ENDBRANCH   2  23
BRANCH   1  25
ATOM     25  S   UNL     1      -0.255  -6.941  -2.895  0.00  0.00    -0.100 S 
BRANCH  25  26
ATOM     26  C   UNL     1      -0.134  -6.343  -1.187  0.00  0.00    +0.171 C 
BRANCH  26  28
ATOM     27  N   UNL     1       0.059  -4.170  -0.021  0.00  0.00    -0.285 N 
ATOM     28  C   UNL     1      -0.040  -4.839  -1.187  0.00  0.00    +0.227 C 
ATOM     29  O   UNL     1      -0.054  -4.230  -2.236  0.00  0.00    -0.275 OA
ATOM     30  H   UNL     1       0.147  -4.658   0.812  0.00  0.00    +0.155 HD
BRANCH  27  35
ATOM     31  C   UNL     1      -0.041   1.502   0.014  0.00  0.00    +0.044 C 
ATOM     32  C   UNL     1      -0.015  -0.004   0.004  0.00  0.00    -0.047 A 
ATOM     33  C   UNL     1      -0.752  -0.702  -0.935  0.00  0.00    +0.005 A 
ATOM     34  C   UNL     1      -0.730  -2.082  -0.946  0.00  0.00    +0.023 A 
ATOM     35  C   UNL     1       0.034  -2.771  -0.013  0.00  0.00    +0.034 A 
ATOM     36  C   UNL     1       0.773  -2.068   0.929  0.00  0.00    +0.027 A 
ATOM     37  C   UNL     1       0.751  -0.686   0.932  0.00  0.00    -0.046 A 
ATOM     38  C   UNL     1       1.557   0.078   1.950  0.00  0.00    +0.044 C 
ENDBRANCH  27  35
ENDBRANCH  26  28
ENDBRANCH  25  26
ENDBRANCH   1  25
TORSDOF 8
