REMARK  Name = ZINC59119774
REMARK  6 active torsions:
REMARK  status: ('A' for Active; 'I' for Inactive)
REMARK    1  A    between atoms: C_4  and  C_7
REMARK    2  A    between atoms: C_8  and  C_9
REMARK    3  A    between atoms: C_14  and  C_17
REMARK    4  A    between atoms: N_19  and  C_20
REMARK    5  A    between atoms: C_20  and  C_22
REMARK    6  A    between atoms: C_20  and  C_29
REMARK                            x       y       z     vdW  Elec       q    Type
REMARK                         _______ _______ _______ _____ _____    ______ ____
ROOT
ATOM      1  C   UNL     1       5.002  -7.539   2.476  0.00  0.00    +0.217 C 
ATOM      2  O   UNL     1       4.061  -7.513   3.241  0.00  0.00    -0.275 OA
ATOM      3  N   UNL     1       6.024  -8.390   2.693  0.00  0.00    -0.304 N 
ATOM      4  H   UNL     1       6.776  -8.411   2.081  0.00  0.00    +0.150 HD
ENDROOT
BRANCH   1  10
ATOM      5  C   UNL     1       4.994  -2.739  -0.062  0.00  0.00    +0.239 C 
ATOM      6  O   UNL     1       6.035  -2.116  -0.164  0.00  0.00    -0.271 OA
ATOM      7  N   UNL     1       5.019  -4.083   0.032  0.00  0.00    -0.298 N 
ATOM      8  C   UNL     1       3.771  -4.857   0.036  0.00  0.00    +0.109 C 
ATOM      9  C   UNL     1       3.758  -5.765   1.270  0.00  0.00    +0.032 C 
ATOM     10  C   UNL     1       5.027  -6.620   1.282  0.00  0.00    +0.078 C 
ATOM     11  C   UNL     1       6.255  -5.711   1.364  0.00  0.00    +0.032 C 
ATOM     12  C   UNL     1       6.297  -4.803   0.126  0.00  0.00    +0.109 C 
BRANCH   5  14
ATOM     13  C   UNL     1       3.692  -0.680  -0.032  0.00  0.00    +0.013 C 
ATOM     14  C   UNL     1       3.714  -2.027  -0.043  0.00  0.00    +0.068 C 
BRANCH  13  18
ATOM     15  C   UNL     1      -0.016   1.381   0.023  0.00  0.00    +0.000 A 
ATOM     16  C   UNL     1       1.169   2.096   0.016  0.00  0.00    +0.001 A 
ATOM     17  C   UNL     1       2.378   1.433  -0.002  0.00  0.00    +0.008 A 
ATOM     18  C   UNL     1       2.405   0.035  -0.013  0.00  0.00    -0.025 A 
ATOM     19  C   UNL     1       1.204  -0.680  -0.005  0.00  0.00    +0.008 A 
ATOM     20  C   UNL     1       0.003  -0.003   0.012  0.00  0.00    +0.001 A 
ENDBRANCH  13  18
ENDBRANCH   5  14
ENDBRANCH   1  10
BRANCH   3  21
ATOM     21  C   UNL     1       5.999  -9.284   3.853  0.00  0.00    +0.140 C 
BRANCH  21  22
ATOM     22  C   UNL     1       7.410  -9.657   4.230  0.00  0.00    -0.022 A 
ATOM     23  C   UNL     1       8.342  -9.918   3.244  0.00  0.00    +0.007 A 
ATOM     24  C   UNL     1       9.636 -10.261   3.589  0.00  0.00    +0.020 A 
ATOM     25  C   UNL     1       9.998 -10.342   4.921  0.00  0.00    +0.041 A 
ATOM     26  C   UNL     1       9.064 -10.080   5.908  0.00  0.00    +0.020 A 
ATOM     27  C   UNL     1       7.772  -9.733   5.562  0.00  0.00    +0.007 A 
ATOM     28 CL   UNL     1      11.623 -10.772   5.356  0.00  0.00    -0.084 Cl
ENDBRANCH  21  22
BRANCH  21  29
ATOM     29  C   UNL     1       5.224 -10.530   3.511  0.00  0.00    +0.014 A 
ATOM     30  C   UNL     1       4.343 -11.224   4.274  0.00  0.00    +0.013 A 
ATOM     31  C   UNL     1       3.744 -12.352   3.746  0.00  0.00    +0.008 A 
ATOM     32  C   UNL     1       4.054 -12.731   2.482  0.00  0.00    +0.045 A 
ATOM     33  S   UNL     1       5.222 -11.472   1.995  0.00  0.00    -0.099 S 
ENDBRANCH  21  29
ENDBRANCH   3  21
TORSDOF 6
