REMARK  Name = ZINC59990086
REMARK  14 active torsions:
REMARK  status: ('A' for Active; 'I' for Inactive)
REMARK    1  A    between atoms: C_1  and  C_2
REMARK    2  A    between atoms: C_2  and  N_3
REMARK    3  A    between atoms: C_4  and  C_27
REMARK    4  A    between atoms: C_7  and  S_8
REMARK    5  A    between atoms: S_8  and  C_9
REMARK    6  A    between atoms: C_9  and  C_10
REMARK    7  A    between atoms: N_12  and  C_13
REMARK    8  A    between atoms: C_13  and  C_14
REMARK    9  A    between atoms: C_14  and  C_15
REMARK   10  A    between atoms: C_14  and  C_16
REMARK   11  A    between atoms: C_14  and  N_17
REMARK   12  A    between atoms: C_19  and  C_26
REMARK   13  A    between atoms: C_22  and  C_25
REMARK   14  A    between atoms: C_32  and  C_33
REMARK                            x       y       z     vdW  Elec       q    Type
REMARK                         _______ _______ _______ _____ _____    ______ ____
ROOT
ATOM      1  C   UNL     1       5.996  -0.461  -0.352  0.00  0.00    +0.223 C 
ATOM      2  O   UNL     1       5.768   0.186   0.648  0.00  0.00    -0.275 OA
ATOM      3  N   UNL     1       7.263  -0.801  -0.661  0.00  0.00    -0.316 N 
ATOM      4  H   UNL     1       7.445  -1.319  -1.461  0.00  0.00    +0.149 HD
ENDROOT
BRANCH   1   5
ATOM      5  C   UNL     1       4.862  -0.884  -1.250  0.00  0.00    +0.173 C 
BRANCH   5   6
ATOM      6  S   UNL     1       3.293  -0.278  -0.570  0.00  0.00    -0.077 S 
BRANCH   6  11
ATOM      7  N   UNL     1       0.735  -0.641  -1.641  0.00  0.00    -0.302 N 
ATOM      8  C   UNL     1       0.202  -1.259  -2.748  0.00  0.00    +0.165 A 
ATOM      9  N   UNL     1       1.202  -1.791  -3.412  0.00  0.00    -0.128 NA
ATOM     10  N   UNL     1       2.309  -1.551  -2.803  0.00  0.00    -0.122 NA
ATOM     11  C   UNL     1       2.083  -0.847  -1.717  0.00  0.00    +0.192 A 
BRANCH   8  12
ATOM     12  C   UNL     1      -1.227  -1.314  -3.121  0.00  0.00    +0.022 A 
ATOM     13  C   UNL     1      -2.185  -1.681  -2.174  0.00  0.00    +0.012 A 
ATOM     14  C   UNL     1      -3.517  -1.730  -2.529  0.00  0.00    +0.001 A 
ATOM     15  C   UNL     1      -3.905  -1.418  -3.820  0.00  0.00    +0.000 A 
ATOM     16  C   UNL     1      -2.961  -1.054  -4.763  0.00  0.00    +0.004 A 
ATOM     17  C   UNL     1      -1.626  -0.995  -4.420  0.00  0.00    -0.040 A 
ATOM     18  C   UNL     1      -0.599  -0.591  -5.447  0.00  0.00    +0.044 C 
ENDBRANCH   8  12
BRANCH   7  20
ATOM     19  C   UNL     1      -0.000   1.583  -0.938  0.00  0.00    +0.027 C 
ATOM     20  C   UNL     1       0.009   0.090  -0.600  0.00  0.00    +0.122 C 
ENDBRANCH   7  20
ENDBRANCH   6  11
ENDBRANCH   5   6
ENDBRANCH   1   5
BRANCH   3  21
ATOM     21  C   UNL     1       8.365  -0.390   0.212  0.00  0.00    +0.092 C 
BRANCH  21  22
ATOM     22  C   UNL     1       9.697  -0.797  -0.422  0.00  0.00    -0.055 C 
ATOM     23  C   UNL     1       9.902  -0.017  -1.722  0.00  0.00    -0.008 C 
ATOM     24  C   UNL     1      10.839  -0.484   0.546  0.00  0.00    -0.008 C 
BRANCH  22  25
ATOM     25  N   UNL     1       9.681  -2.237  -0.712  0.00  0.00    +0.384 N 
ATOM     26  C   UNL     1       9.443  -2.982   0.530  0.00  0.00    -0.075 C 
ATOM     27  C   UNL     1       9.345  -4.477   0.222  0.00  0.00    -0.031 C 
ATOM     28  C   UNL     1      10.656  -4.949  -0.414  0.00  0.00    +0.003 C 
ATOM     29  C   UNL     1      10.932  -4.114  -1.668  0.00  0.00    -0.031 C 
ATOM     30  C   UNL     1      10.971  -2.632  -1.290  0.00  0.00    -0.075 C 
ATOM     31  C   UNL     1      12.278  -4.525  -2.268  0.00  0.00    +0.005 C 
ATOM     32  C   UNL     1       8.188  -4.724  -0.748  0.00  0.00    +0.005 C 
ATOM     33  H   UNL     1       8.943  -2.439  -1.369  0.00  0.00    -0.081 HD
ENDBRANCH  22  25
ENDBRANCH  21  22
ENDBRANCH   3  21
TORSDOF 8
