REMARK  Name = ZINC38682172
REMARK  11 active torsions:
REMARK  status: ('A' for Active; 'I' for Inactive)
REMARK    1  A    between atoms: C_1  and  S_2
REMARK    2  A    between atoms: S_2  and  C_3
REMARK    3  A    between atoms: C_6  and  C_9
REMARK    4  A    between atoms: C_14  and  O_23
REMARK    5  A    between atoms: C_18  and  N_22
REMARK    6  A    between atoms: C_19  and  C_20
REMARK    7  A    between atoms: O_23  and  C_24
REMARK    8  A    between atoms: C_24  and  C_26
REMARK    9  A    between atoms: C_26  and  O_27
REMARK   10  A    between atoms: O_27  and  C_28
REMARK   11  A    between atoms: C_33  and  N_34
REMARK                            x       y       z     vdW  Elec       q    Type
REMARK                         _______ _______ _______ _____ _____    ______ ____
ROOT
ATOM      1  C   UNL     1       3.011  -1.504   5.003  0.00  0.00    +0.098 C 
ATOM      2  C   UNL     1       2.117  -2.317   5.902  0.00  0.00    +0.008 A 
ATOM      3  C   UNL     1       1.185  -1.673   6.696  0.00  0.00    +0.012 A 
ATOM      4  C   UNL     1       0.356  -2.402   7.527  0.00  0.00    +0.047 A 
ATOM      5  C   UNL     1       0.457  -3.785   7.566  0.00  0.00    +0.135 A 
ATOM      6  C   UNL     1       1.389  -4.433   6.772  0.00  0.00    +0.093 A 
ATOM      7  C   UNL     1       2.221  -3.699   5.937  0.00  0.00    +0.138 A 
ATOM      8  O   UNL     1       3.128  -4.347   5.166  0.00  0.00    -0.441 OA
ATOM      9  C   UNL     1       4.178  -3.679   4.660  0.00  0.00    +0.199 C 
ATOM     10  C   UNL     1       4.183  -2.332   4.556  0.00  0.00    +0.098 C 
ENDROOT
BRANCH   1  14
ATOM     11  C   UNL     1       0.793  -0.225   1.580  0.00  0.00    +0.008 A 
ATOM     12  C   UNL     1       1.358   0.714   2.435  0.00  0.00    +0.015 A 
ATOM     13  C   UNL     1       2.073   0.297   3.540  0.00  0.00    +0.005 A 
ATOM     14  C   UNL     1       2.229  -1.054   3.796  0.00  0.00    -0.035 A 
ATOM     15  C   UNL     1       1.669  -1.991   2.947  0.00  0.00    +0.005 A 
ATOM     16  C   UNL     1       0.947  -1.581   1.844  0.00  0.00    +0.015 A 
BRANCH  11  18
ATOM     17  C   UNL     1      -0.044   2.113   0.248  0.00  0.00    +0.090 C 
ATOM     18  S   UNL     1      -0.121   0.302   0.169  0.00  0.00    -0.129 S 
ENDBRANCH  11  18
ENDBRANCH   1  14
BRANCH   9  19
ATOM     19  N   UNL     1       5.277  -4.385   4.238  0.00  0.00    -0.328 N 
ATOM     20  H   UNL     1       5.287  -5.353   4.306  0.00  0.00    +0.145 HD
ATOM     21  H   UNL     1       6.043  -3.917   3.871  0.00  0.00    +0.145 HD
ENDBRANCH   9  19
BRANCH  10  22
ATOM     22  C   UNL     1       5.333  -1.680   4.006  0.00  0.00    +0.101 C 
ATOM     23  N   UNL     1       6.246  -1.163   3.571  0.00  0.00    -0.191 NA
ENDBRANCH  10  22
BRANCH   5  24
ATOM     24  O   UNL     1      -0.358  -4.504   8.383  0.00  0.00    -0.423 OA
BRANCH  24  25
ATOM     25  C   UNL     1       0.194  -5.115   9.444  0.00  0.00    +0.350 C 
ATOM     26  O   UNL     1       1.359  -4.933   9.708  0.00  0.00    -0.247 OA
BRANCH  25  27
ATOM     27  C   UNL     1      -0.640  -6.028  10.305  0.00  0.00    +0.349 C 
BRANCH  27  28
ATOM     28  O   UNL     1       0.166  -6.554  11.362  0.00  0.00    -0.478 OA
BRANCH  28  29
ATOM     29  C   UNL     1      -0.439  -7.401  12.236  0.00  0.00    +0.151 A 
ATOM     30  C   UNL     1      -1.778  -7.725  12.076  0.00  0.00    +0.048 A 
ATOM     31  C   UNL     1      -2.390  -8.587  12.965  0.00  0.00    +0.004 A 
ATOM     32  C   UNL     1      -1.669  -9.127  14.014  0.00  0.00    +0.002 A 
ATOM     33  C   UNL     1      -0.334  -8.806  14.175  0.00  0.00    +0.036 A 
ATOM     34  C   UNL     1       0.284  -7.948  13.285  0.00  0.00    +0.168 A 
BRANCH  34  35
ATOM     35  N   UNL     1       1.715  -7.610  13.455  0.00  0.00    +0.060 N 
ATOM     36  O   UNL     1       2.345  -8.087  14.370  0.00  0.00    -0.126 OA
ATOM     37  O   UNL     1       2.254  -6.856  12.679  0.00  0.00    -0.126 OA
ENDBRANCH  34  35
ENDBRANCH  28  29
ENDBRANCH  27  28
ENDBRANCH  25  27
ENDBRANCH  24  25
ENDBRANCH   5  24
TORSDOF 10
