REMARK  Name = ZINC44857085
REMARK  8 active torsions:
REMARK  status: ('A' for Active; 'I' for Inactive)
REMARK    1  A    between atoms: C_1  and  C_2
REMARK    2  A    between atoms: C_2  and  C_4
REMARK    3  A    between atoms: C_2  and  N_14
REMARK    4  A    between atoms: C_7  and  S_10
REMARK    5  A    between atoms: S_10  and  C_13
REMARK    6  A    between atoms: C_15  and  C_17
REMARK    7  A    between atoms: N_22  and  C_24
REMARK    8  A    between atoms: C_24  and  C_25
REMARK                            x       y       z     vdW  Elec       q    Type
REMARK                         _______ _______ _______ _____ _____    ______ ____
ROOT
ATOM      1  N   UNL     1       0.688  -0.476  -1.203  0.00  0.00    -0.309 N 
ATOM      2  C   UNL     1       2.031  -0.587  -1.215  0.00  0.00    +0.215 C 
ATOM      3  O   UNL     1       2.672  -0.295  -0.228  0.00  0.00    -0.276 OA
ATOM      4  H   UNL     1       0.175  -0.710  -1.993  0.00  0.00    +0.149 HD
ENDROOT
BRANCH   2   5
ATOM      5  C   UNL     1       2.736  -1.073  -2.455  0.00  0.00    +0.058 C 
ATOM      6  C   UNL     1       2.248  -2.483  -2.801  0.00  0.00    +0.009 C 
ATOM      7  C   UNL     1       3.027  -2.998  -4.015  0.00  0.00    -0.018 C 
ATOM      8  C   UNL     1       4.525  -2.962  -3.706  0.00  0.00    -0.078 C 
ATOM      9  N   UNL     1       4.935  -1.584  -3.409  0.00  0.00    +0.383 N 
ATOM     10  C   UNL     1       4.245  -1.108  -2.204  0.00  0.00    -0.066 C 
ATOM     11  H   UNL     1       4.697  -0.988  -4.188  0.00  0.00    -0.081 HD
BRANCH   9  12
ATOM     12  C   UNL     1       6.387  -1.543  -3.189  0.00  0.00    -0.043 C 
BRANCH  12  13
ATOM     13  C   UNL     1       7.098  -1.904  -4.467  0.00  0.00    -0.062 A 
ATOM     14  C   UNL     1       7.405  -3.225  -4.738  0.00  0.00    +0.003 A 
ATOM     15  C   UNL     1       8.058  -3.558  -5.910  0.00  0.00    +0.021 A 
ATOM     16  C   UNL     1       8.405  -2.569  -6.813  0.00  0.00    +0.059 A 
ATOM     17  C   UNL     1       8.099  -1.246  -6.542  0.00  0.00    +0.059 A 
ATOM     18  C   UNL     1       7.440  -0.916  -5.371  0.00  0.00    +0.023 A 
ATOM     19 CL   UNL     1       8.535  -0.004  -7.673  0.00  0.00    -0.082 Cl
ATOM     20 CL   UNL     1       9.226  -2.986  -8.284  0.00  0.00    -0.082 Cl
ENDBRANCH  12  13
ENDBRANCH   9  12
ENDBRANCH   2   5
BRANCH   1  22
ATOM     21  C   UNL     1      -0.019   1.526   0.010  0.00  0.00    +0.033 C 
ATOM     22  C   UNL     1       0.002  -0.004   0.002  0.00  0.00    +0.100 C 
BRANCH  22  23
ATOM     23  C   UNL     1      -1.412  -0.526   0.013  0.00  0.00    -0.027 A 
ATOM     24  C   UNL     1      -2.141  -0.569  -1.161  0.00  0.00    +0.007 A 
ATOM     25  C   UNL     1      -3.438  -1.047  -1.151  0.00  0.00    +0.027 A 
ATOM     26  C   UNL     1      -4.005  -1.483   0.032  0.00  0.00    +0.088 A 
ATOM     27  C   UNL     1      -3.275  -1.441   1.205  0.00  0.00    +0.027 A 
ATOM     28  C   UNL     1      -1.977  -0.966   1.195  0.00  0.00    +0.007 A 
BRANCH  26  29
ATOM     29  S   UNL     1      -5.659  -2.092   0.045  0.00  0.00    -0.006 S 
ATOM     30  O   UNL     1      -6.119  -1.863   1.370  0.00  0.00    -0.170 OA
ATOM     31  O   UNL     1      -6.287  -1.457  -1.060  0.00  0.00    -0.170 OA
ATOM     32  C   UNL     1      -5.502  -3.873  -0.264  0.00  0.00    +0.200 C 
ENDBRANCH  26  29
ENDBRANCH  22  23
ENDBRANCH   1  22
TORSDOF 6
