REMARK  Name = ZINC20207250
REMARK  5 active torsions:
REMARK  status: ('A' for Active; 'I' for Inactive)
REMARK    1  A    between atoms: C_2  and  N_16
REMARK    2  A    between atoms: N_5  and  C_8
REMARK    3  A    between atoms: C_8  and  C_9
REMARK    4  A    between atoms: C_19  and  C_22
REMARK    5  A    between atoms: C_22  and  N_23
REMARK                            x       y       z     vdW  Elec       q    Type
REMARK                         _______ _______ _______ _____ _____    ______ ____
ROOT
ATOM      1  C   UNL     1       2.396   1.351  -0.013  0.00  0.00    +0.096 A 
ATOM      2  C   UNL     1       1.192   2.030   0.002  0.00  0.00    +0.055 A 
ATOM      3  C   UNL     1      -0.016   1.299   0.009  0.00  0.00    +0.156 A 
ATOM      4  N   UNL     1       0.002  -0.004   0.002  0.00  0.00    -0.175 NA
ATOM      5  N   UNL     1       1.210  -0.708  -0.013  0.00  0.00    -0.227 N 
ATOM      6  C   UNL     1       2.387  -0.051  -0.021  0.00  0.00    +0.269 A 
ATOM      7  O   UNL     1       3.438  -0.673  -0.034  0.00  0.00    -0.266 OA
ENDROOT
BRANCH   2   8
ATOM      8  N   UNL     1       1.171   3.413   0.009  0.00  0.00    -0.329 N 
ATOM      9  C   UNL     1       2.531   3.960   0.099  0.00  0.00    +0.105 C 
ATOM     10  C   UNL     1       2.462   5.481   0.251  0.00  0.00    +0.020 C 
ATOM     11  C   UNL     1       1.732   6.077  -0.955  0.00  0.00    -0.026 C 
ATOM     12  C   UNL     1       0.336   5.456  -1.055  0.00  0.00    +0.020 C 
ATOM     13  C   UNL     1       0.467   3.935  -1.169  0.00  0.00    +0.105 C 
BRANCH  11  14
ATOM     14  C   UNL     1       1.606   7.592  -0.780  0.00  0.00    -0.083 C 
BRANCH  14  15
ATOM     15  N   UNL     1       2.943   8.200  -0.804  0.00  0.00    +0.378 N 
ATOM     16  H   UNL     1       2.852   9.289  -0.678  0.00  0.00    -0.090 HD
ATOM     17  H   UNL     1       3.428   7.982  -1.767  0.00  0.00    -0.090 HD
ATOM     18  H   UNL     1       3.549   7.785   0.014  0.00  0.00    -0.090 HD
ENDBRANCH  14  15
ENDBRANCH  11  14
ENDBRANCH   2   8
BRANCH   5  19
ATOM     19  C   UNL     1       1.197  -2.173  -0.021  0.00  0.00    +0.179 C 
BRANCH  19  20
ATOM     20  C   UNL     1       1.207  -2.691   1.419  0.00  0.00    +0.140 C 
ATOM     21  C   UNL     1       1.317  -4.218   1.413  0.00  0.00    +0.033 C 
ATOM     22  C   UNL     1       1.265  -4.732   2.855  0.00  0.00    +0.005 C 
ATOM     23  C   UNL     1      -0.030  -4.245   3.512  0.00  0.00    +0.028 C 
ATOM     24  C   UNL     1      -0.088  -2.717   3.438  0.00  0.00    +0.160 C 
ATOM     25  O   UNL     1      -0.005  -2.305   2.072  0.00  0.00    -0.375 OA
ENDBRANCH  19  20
ENDBRANCH   5  19
TORSDOF 5
