REMARK  Name = ZINC08136075
REMARK  8 active torsions:
REMARK  status: ('A' for Active; 'I' for Inactive)
REMARK    1  A    between atoms: C_1  and  C_2
REMARK    2  A    between atoms: C_15  and  S_17
REMARK    3  A    between atoms: S_17  and  C_18
REMARK    4  A    between atoms: C_18  and  C_19
REMARK    5  A    between atoms: C_25  and  C_26
REMARK    6  A    between atoms: C_25  and  N_56
REMARK    7  A    between atoms: C_26  and  C_27
REMARK    8  A    between atoms: C_26  and  C_28
REMARK                            x       y       z     vdW  Elec       q    Type
REMARK                         _______ _______ _______ _____ _____    ______ ____
ROOT
ATOM      1  C   UNL     1      11.109   5.665   0.854  0.00  0.00    +0.008 C 
ATOM      2  C   UNL     1       9.994   4.677   0.507  0.00  0.00    -0.009 C 
ATOM      3  C   UNL     1       9.743   4.696  -1.004  0.00  0.00    +0.008 C 
ATOM      4  C   UNL     1       8.813   3.545  -1.390  0.00  0.00    +0.037 C 
ATOM      5  C   UNL     1       7.564   3.606  -0.514  0.00  0.00    -0.023 A 
ATOM      6  C   UNL     1       7.565   4.305   0.639  0.00  0.00    -0.004 A 
ATOM      7  S   UNL     1       5.935   4.097   1.305  0.00  0.00    -0.073 S 
ATOM      8  C   UNL     1       5.255   3.069   0.028  0.00  0.00    +0.117 A 
ATOM      9  C   UNL     1       6.322   2.921  -0.875  0.00  0.00    +0.075 A 
ATOM     10  C   UNL     1       6.054   2.121  -2.031  0.00  0.00    +0.261 A 
ATOM     11  O   UNL     1       6.920   1.938  -2.870  0.00  0.00    -0.267 OA
ATOM     12  N   UNL     1       4.835   1.571  -2.178  0.00  0.00    -0.301 N 
ATOM     13  H   UNL     1       4.645   1.006  -2.981  0.00  0.00    +0.171 HD
ATOM     14  C   UNL     1       3.852   1.770  -1.252  0.00  0.00    +0.170 A 
ATOM     15  N   UNL     1       4.072   2.502  -0.178  0.00  0.00    -0.216 NA
ATOM     16  C   UNL     1       8.701   5.087   1.226  0.00  0.00    +0.046 C 
ENDROOT
BRANCH  14  17
ATOM     17  S   UNL     1       2.270   1.033  -1.492  0.00  0.00    -0.085 S 
BRANCH  17  18
ATOM     18  C   UNL     1       1.422   1.616  -0.003  0.00  0.00    +0.107 C 
BRANCH  18  19
ATOM     19  C   UNL     1      -0.013   1.086   0.008  0.00  0.00    +0.112 C 
ATOM     20  C   UNL     1      -0.731   1.580   1.266  0.00  0.00    -0.046 C 
ATOM     21  C   UNL     1      -2.812   1.636   0.033  0.00  0.00    -0.050 C 
ATOM     22  C   UNL     1      -2.073   1.141  -1.213  0.00  0.00    +0.141 C 
ATOM     23  O   UNL     1      -0.706   1.560  -1.149  0.00  0.00    -0.379 OA
ATOM     24  N   UNL     1      -2.130   1.104   1.232  0.00  0.00    +0.383 N 
ATOM     25  H   UNL     1      -2.132   0.078   1.190  0.00  0.00    -0.082 HD
BRANCH  24  26
ATOM     26  C   UNL     1      -2.842   1.538   2.453  0.00  0.00    -0.076 C 
BRANCH  26  27
ATOM     27  C   UNL     1      -4.340   1.278   2.280  0.00  0.00    -0.034 C 
ATOM     28  C   UNL     1      -4.585  -0.227   2.150  0.00  0.00    +0.005 C 
ATOM     29  C   UNL     1      -5.095   1.815   3.497  0.00  0.00    +0.005 C 
ENDBRANCH  26  27
ENDBRANCH  24  26
ENDBRANCH  18  19
ENDBRANCH  17  18
ENDBRANCH  14  17
TORSDOF 5
