REMARK  Name = ZINC40426564
REMARK  10 active torsions:
REMARK  status: ('A' for Active; 'I' for Inactive)
REMARK    1  A    between atoms: C_1  and  C_2
REMARK    2  A    between atoms: C_2  and  C_4
REMARK    3  A    between atoms: C_2  and  N_12
REMARK    4  A    between atoms: N_6  and  C_7
REMARK    5  A    between atoms: C_7  and  C_8
REMARK    6  A    between atoms: C_8  and  C_9
REMARK    7  A    between atoms: C_9  and  C_10
REMARK    8  A    between atoms: C_9  and  C_11
REMARK    9  A    between atoms: C_18  and  C_25
REMARK   10  A    between atoms: N_23  and  C_24
REMARK                            x       y       z     vdW  Elec       q    Type
REMARK                         _______ _______ _______ _____ _____    ______ ____
ROOT
ATOM      1  N   UNL     1      -1.372  -0.511   0.012  0.00  0.00    -0.281 N 
ATOM      2  C   UNL     1      -1.994  -1.368  -1.008  0.00  0.00    +0.160 C 
ATOM      3  C   UNL     1      -3.406  -1.596  -0.517  0.00  0.00    +0.042 C 
ATOM      4  C   UNL     1      -3.516  -0.925   0.647  0.00  0.00    +0.058 C 
ATOM      5  C   UNL     1      -2.299  -0.285   0.961  0.00  0.00    +0.247 C 
ATOM      6  O   UNL     1      -2.113   0.388   1.958  0.00  0.00    -0.270 OA
ATOM      7  C   UNL     1      -4.846  -0.981   1.370  0.00  0.00    +0.143 C 
ATOM      8  N   UNL     1      -5.917  -1.769   0.735  0.00  0.00    -0.288 N 
ATOM      9  C   UNL     1      -5.654  -2.385  -0.434  0.00  0.00    +0.307 C 
ATOM     10  O   UNL     1      -6.531  -3.038  -0.966  0.00  0.00    -0.252 OA
ATOM     11  N   UNL     1      -4.457  -2.302  -1.030  0.00  0.00    -0.260 N 
ATOM     12  C   UNL     1      -4.265  -3.006  -2.300  0.00  0.00    +0.139 C 
ATOM     13  H   UNL     1      -6.791  -1.843   1.150  0.00  0.00    +0.151 HD
ENDROOT
BRANCH   7  14
ATOM     14  C   UNL     1      -4.605  -1.549   2.745  0.00  0.00    -0.004 A 
ATOM     15  C   UNL     1      -4.774  -2.902   2.973  0.00  0.00    +0.007 A 
ATOM     16  C   UNL     1      -4.552  -3.422   4.234  0.00  0.00    +0.000 A 
ATOM     17  C   UNL     1      -4.162  -2.591   5.268  0.00  0.00    +0.001 A 
ATOM     18  C   UNL     1      -3.994  -1.238   5.040  0.00  0.00    +0.020 A 
ATOM     19  C   UNL     1      -4.210  -0.717   3.777  0.00  0.00    +0.046 A 
ATOM     20 CL   UNL     1      -3.991   0.981   3.489  0.00  0.00    -0.083 Cl
ENDBRANCH   7  14
BRANCH   1  22
ATOM     21  C   UNL     1      -0.019   1.526   0.010  0.00  0.00    +0.038 C 
ATOM     22  C   UNL     1       0.002  -0.004   0.002  0.00  0.00    +0.159 C 
BRANCH  22  23
ATOM     23  C   UNL     1       0.731  -0.503   1.223  0.00  0.00    +0.233 C 
ATOM     24  O   UNL     1       0.159  -1.213   2.023  0.00  0.00    -0.274 OA
ATOM     25  N   UNL     1       2.019  -0.161   1.426  0.00  0.00    -0.314 N 
ATOM     26  H   UNL     1       2.476   0.406   0.786  0.00  0.00    +0.149 HD
BRANCH  25  27
ATOM     27  C   UNL     1       2.727  -0.647   2.613  0.00  0.00    +0.104 C 
BRANCH  27  28
ATOM     28  C   UNL     1       4.163  -0.117   2.602  0.00  0.00    +0.022 C 
BRANCH  28  29
ATOM     29  C   UNL     1       4.903  -0.624   3.841  0.00  0.00    -0.016 C 
ATOM     30  C   UNL     1       5.032  -2.147   3.771  0.00  0.00    +0.007 C 
ATOM     31  C   UNL     1       6.296   0.005   3.896  0.00  0.00    +0.007 C 
ENDBRANCH  28  29
ENDBRANCH  27  28
ENDBRANCH  25  27
ENDBRANCH  22  23
ENDBRANCH   1  22
TORSDOF 6
