REMARK  Name = ZINC21531689
REMARK  6 active torsions:
REMARK  status: ('A' for Active; 'I' for Inactive)
REMARK    1  A    between atoms: C_1  and  C_2
REMARK    2  A    between atoms: C_2  and  N_3
REMARK    3  A    between atoms: C_18  and  C_19
REMARK    4  A    between atoms: C_19  and  N_20
REMARK    5  A    between atoms: N_20  and  C_21
REMARK    6  A    between atoms: C_26  and  C_27
REMARK                            x       y       z     vdW  Elec       q    Type
REMARK                         _______ _______ _______ _____ _____    ______ ____
ROOT
ATOM      1  N   UNL     1      -3.602   0.984   8.901  0.00  0.00    +0.382 N 
ATOM      2  C   UNL     1      -2.502   0.132   8.429  0.00  0.00    -0.060 C 
ATOM      3  C   UNL     1      -2.513   0.091   6.899  0.00  0.00    +0.088 C 
ATOM      4  N   UNL     1      -3.809  -0.421   6.434  0.00  0.00    -0.312 N 
ATOM      5  C   UNL     1      -4.909   0.430   6.906  0.00  0.00    +0.088 C 
ATOM      6  C   UNL     1      -4.899   0.471   8.436  0.00  0.00    -0.060 C 
ATOM      7  C   UNL     1      -3.830  -0.540   5.051  0.00  0.00    +0.186 A 
ATOM      8  N   UNL     1      -2.890  -0.267   4.158  0.00  0.00    -0.124 NA
ATOM      9  N   UNL     1      -3.074  -0.439   2.922  0.00  0.00    -0.121 NA
ATOM     10  C   UNL     1      -4.219  -0.892   2.440  0.00  0.00    +0.202 A 
ATOM     11  S   UNL     1      -5.135  -1.106   3.963  0.00  0.00    -0.013 S 
ATOM     12  N   UNL     1      -4.602  -1.139   1.121  0.00  0.00    -0.297 N 
ATOM     13  C   UNL     1      -5.818  -1.614   0.720  0.00  0.00    +0.093 A 
ATOM     14  C   UNL     1      -5.805  -1.726  -0.624  0.00  0.00    +0.020 A 
ATOM     15  C   UNL     1      -4.538  -1.299  -1.072  0.00  0.00    +0.025 A 
ATOM     16  C   UNL     1      -3.824  -0.943   0.015  0.00  0.00    +0.043 A 
ATOM     17  H   UNL     1      -3.462   1.988   8.475  0.00  0.00    -0.082 HD
ENDROOT
BRANCH   1  19
ATOM     18  C   UNL     1      -4.572   2.190  10.799  0.00  0.00    -0.017 C 
ATOM     19  C   UNL     1      -3.580   1.109  10.365  0.00  0.00    -0.082 C 
ENDBRANCH   1  19
BRANCH  16  20
ATOM     20  C   UNL     1      -2.409  -0.423   0.011  0.00  0.00    +0.155 C 
BRANCH  20  21
ATOM     21  N   UNL     1      -2.426   1.042   0.019  0.00  0.00    -0.338 N 
ATOM     22  H   UNL     1      -3.385   1.580   0.027  0.00  0.00    +0.146 HD
BRANCH  21  23
ATOM     23  C   UNL     1      -1.225   1.755   0.017  0.00  0.00    +0.030 A 
ATOM     24  C   UNL     1      -0.013   1.076   0.008  0.00  0.00    +0.024 A 
ATOM     25  C   UNL     1       1.173   1.783   0.000  0.00  0.00    +0.022 A 
ATOM     26  C   UNL     1       1.155   3.167   0.007  0.00  0.00    +0.041 A 
ATOM     27  C   UNL     1      -0.050   3.846   0.022  0.00  0.00    +0.025 A 
ATOM     28  C   UNL     1      -1.240   3.143   0.030  0.00  0.00    -0.028 A 
ATOM     29  C   UNL     1      -2.552   3.883   0.046  0.00  0.00    +0.046 C 
ATOM     30 CL   UNL     1       2.648   4.053  -0.003  0.00  0.00    -0.084 Cl
ENDBRANCH  21  23
ENDBRANCH  20  21
ENDBRANCH  16  20
TORSDOF 4
