REMARK  Name = ZINC12756473
REMARK  7 active torsions:
REMARK  status: ('A' for Active; 'I' for Inactive)
REMARK    1  A    between atoms: C_1  and  C_2
REMARK    2  A    between atoms: C_3  and  C_15
REMARK    3  A    between atoms: C_5  and  C_7
REMARK    4  A    between atoms: C_15  and  N_47
REMARK    5  A    between atoms: C_16  and  N_47
REMARK    6  A    between atoms: C_17  and  C_18
REMARK    7  A    between atoms: C_17  and  N_47
REMARK                            x       y       z     vdW  Elec       q    Type
REMARK                         _______ _______ _______ _____ _____    ______ ____
ROOT
ATOM      1  C   UNL     1      -4.377  -0.892   0.430  0.00  0.00    +0.088 C 
ATOM      2  C   UNL     1      -2.904  -1.212   0.454  0.00  0.00    +0.124 A 
ATOM      3  C   UNL     1      -2.353  -2.437   0.381  0.00  0.00    +0.066 A 
ATOM      4  N   UNL     1      -1.020  -2.291   0.435  0.00  0.00    -0.216 NA
ATOM      5  C   UNL     1      -0.741  -1.013   0.539  0.00  0.00    +0.230 A 
ATOM      6  O   UNL     1      -1.895  -0.324   0.558  0.00  0.00    -0.440 OA
ENDROOT
BRANCH   5   7
ATOM      7  C   UNL     1       0.614  -0.429   0.626  0.00  0.00    +0.075 A 
ATOM      8  C   UNL     1       1.737  -1.258   0.601  0.00  0.00    +0.016 A 
ATOM      9  C   UNL     1       2.999  -0.709   0.682  0.00  0.00    +0.004 A 
ATOM     10  C   UNL     1       3.157   0.662   0.789  0.00  0.00    +0.041 A 
ATOM     11  C   UNL     1       2.050   1.492   0.814  0.00  0.00    +0.159 A 
ATOM     12  C   UNL     1       0.776   0.954   0.734  0.00  0.00    +0.171 A 
ATOM     13  F   UNL     1      -0.305   1.764   0.753  0.00  0.00    -0.202 F 
ATOM     14  F   UNL     1       2.211   2.830   0.919  0.00  0.00    -0.202 F 
ENDBRANCH   5   7
BRANCH   3  15
ATOM     15  C   UNL     1      -3.099  -3.740   0.261  0.00  0.00    -0.019 C 
BRANCH  15  17
ATOM     16  C   UNL     1      -4.323  -3.391   2.321  0.00  0.00    -0.095 C 
ATOM     17  N   UNL     1      -3.361  -4.266   1.617  0.00  0.00    +0.384 N 
ATOM     18  H   UNL     1      -2.480  -4.285   2.144  0.00  0.00    -0.082 HD
BRANCH  17  19
ATOM     19  C   UNL     1      -3.898  -5.640   1.531  0.00  0.00    -0.033 C 
BRANCH  19  20
ATOM     20  C   UNL     1      -2.743  -6.601   1.242  0.00  0.00    +0.161 C 
ATOM     21  C   UNL     1      -3.233  -8.068   1.256  0.00  0.00    +0.081 C 
ATOM     22  C   UNL     1      -2.051  -8.788   1.876  0.00  0.00    -0.002 A 
ATOM     23  C   UNL     1      -1.700 -10.119   1.924  0.00  0.00    +0.007 A 
ATOM     24  C   UNL     1      -0.530 -10.503   2.553  0.00  0.00    +0.000 A 
ATOM     25  C   UNL     1       0.284  -9.547   3.132  0.00  0.00    +0.004 A 
ATOM     26  C   UNL     1      -0.067  -8.214   3.089  0.00  0.00    +0.046 A 
ATOM     27  C   UNL     1      -1.246  -7.819   2.461  0.00  0.00    +0.124 A 
ATOM     28  O   UNL     1      -1.782  -6.577   2.311  0.00  0.00    -0.490 OA
ENDBRANCH  19  20
ENDBRANCH  17  19
ENDBRANCH  15  17
ENDBRANCH   3  15
TORSDOF 5
