REMARK  Name = ZINC65183886
REMARK  8 active torsions:
REMARK  status: ('A' for Active; 'I' for Inactive)
REMARK    1  A    between atoms: C_1  and  C_2
REMARK    2  A    between atoms: C_2  and  C_3
REMARK    3  A    between atoms: C_4  and  S_12
REMARK    4  A    between atoms: C_9  and  C_11
REMARK    5  A    between atoms: S_12  and  N_15
REMARK    6  A    between atoms: N_15  and  C_16
REMARK    7  A    between atoms: C_19  and  C_23
REMARK    8  A    between atoms: C_21  and  C_22
REMARK                            x       y       z     vdW  Elec       q    Type
REMARK                         _______ _______ _______ _____ _____    ______ ____
ROOT
ATOM      1  S   UNL     1       3.231  -0.530   0.017  0.00  0.00    +0.111 S 
ATOM      2  O   UNL     1       2.682   0.423  -0.882  0.00  0.00    -0.147 OA
ATOM      3  O   UNL     1       4.492  -0.346   0.645  0.00  0.00    -0.147 OA
ENDROOT
BRANCH   1   5
ATOM      4  C   UNL     1       0.731  -0.503   1.223  0.00  0.00    +0.089 A 
ATOM      5  C   UNL     1       2.051  -0.743   1.308  0.00  0.00    +0.224 A 
ATOM      6  N   UNL     1       2.318  -1.189   2.596  0.00  0.00    -0.186 N 
ATOM      7  C   UNL     1       1.102  -1.189   3.227  0.00  0.00    +0.198 A 
ATOM      8  N   UNL     1       0.174  -0.779   2.412  0.00  0.00    -0.223 NA
ATOM      9  S   UNL     1       1.518  -1.766   4.856  0.00  0.00    -0.033 S 
ATOM     10  C   UNL     1       3.273  -1.967   4.594  0.00  0.00    +0.099 A 
ATOM     11  N   UNL     1       3.409  -1.602   3.355  0.00  0.00    -0.161 NA
ATOM     12  C   UNL     1       4.327  -2.440   5.562  0.00  0.00    +0.075 C 
BRANCH   4  14
ATOM     13  C   UNL     1      -0.019   1.526   0.010  0.00  0.00    +0.010 C 
ATOM     14  C   UNL     1       0.002  -0.004   0.002  0.00  0.00    +0.056 C 
ENDBRANCH   4  14
ENDBRANCH   1   5
BRANCH   1  15
ATOM     15  N   UNL     1       3.318  -1.963  -0.808  0.00  0.00    -0.096 NA
BRANCH  15  16
ATOM     16  C   UNL     1       4.183  -2.091  -1.898  0.00  0.00    +0.077 A 
ATOM     17  C   UNL     1       4.975  -1.018  -2.287  0.00  0.00    +0.027 A 
ATOM     18  C   UNL     1       5.829  -1.147  -3.364  0.00  0.00    +0.005 A 
ATOM     19  C   UNL     1       5.896  -2.343  -4.055  0.00  0.00    -0.050 A 
ATOM     20  C   UNL     1       5.109  -3.413  -3.671  0.00  0.00    +0.008 A 
ATOM     21  C   UNL     1       4.257  -3.292  -2.591  0.00  0.00    -0.026 A 
ATOM     22  C   UNL     1       3.404  -4.460  -2.169  0.00  0.00    +0.046 C 
ATOM     23  C   UNL     1       6.830  -2.481  -5.231  0.00  0.00    +0.044 C 
ENDBRANCH  15  16
ENDBRANCH   1  15
TORSDOF 4
