REMARK  Name = ZINC24272335
REMARK  11 active torsions:
REMARK  status: ('A' for Active; 'I' for Inactive)
REMARK    1  A    between atoms: C_1  and  C_2
REMARK    2  A    between atoms: C_4  and  C_29
REMARK    3  A    between atoms: C_6  and  O_8
REMARK    4  A    between atoms: O_8  and  C_9
REMARK    5  A    between atoms: C_9  and  C_10
REMARK    6  A    between atoms: C_13  and  S_16
REMARK    7  A    between atoms: N_14  and  N_15
REMARK    8  A    between atoms: S_16  and  C_17
REMARK    9  A    between atoms: C_17  and  C_19
REMARK   10  A    between atoms: C_17  and  C_20
REMARK   11  A    between atoms: C_24  and  N_26
REMARK                            x       y       z     vdW  Elec       q    Type
REMARK                         _______ _______ _______ _____ _____    ______ ____
ROOT
ATOM      1  C   UNL     1      -0.678   9.822   1.674  0.00  0.00    +0.189 A 
ATOM      2  N   UNL     1      -0.038   9.544   0.574  0.00  0.00    -0.128 NA
ATOM      3  N   UNL     1      -0.025   8.274   0.380  0.00  0.00    -0.121 NA
ATOM      4  C   UNL     1      -0.668   7.668   1.351  0.00  0.00    +0.209 A 
ATOM      5  N   UNL     1      -1.102   8.637   2.209  0.00  0.00    -0.225 N 
ENDROOT
BRANCH   5   6
ATOM      6  N   UNL     1      -1.813   8.460   3.362  0.00  0.00    -0.295 N 
ATOM      7  H   UNL     1      -2.095   7.447   3.684  0.00  0.00    +0.163 HD
ATOM      8  H   UNL     1      -2.104   9.331   3.968  0.00  0.00    +0.163 HD
ENDBRANCH   5   6
BRANCH   1   9
ATOM      9  C   UNL     1      -0.907  11.195   2.251  0.00  0.00    +0.306 C 
BRANCH   9  10
ATOM     10  O   UNL     1       0.170  11.530   3.128  0.00  0.00    -0.484 OA
BRANCH  10  16
ATOM     11  C   UNL     1      -2.163  15.756   3.850  0.00  0.00    +0.044 C 
ATOM     12  C   UNL     1      -1.003  14.830   4.112  0.00  0.00    -0.047 A 
ATOM     13  C   UNL     1       0.008  15.217   4.972  0.00  0.00    +0.007 A 
ATOM     14  C   UNL     1       1.074  14.370   5.215  0.00  0.00    -0.047 A 
ATOM     15  C   UNL     1       1.130  13.135   4.599  0.00  0.00    +0.049 A 
ATOM     16  C   UNL     1       0.117  12.745   3.735  0.00  0.00    +0.122 A 
ATOM     17  C   UNL     1      -0.948  13.599   3.488  0.00  0.00    +0.049 A 
ATOM     18  C   UNL     1       2.174  14.794   6.154  0.00  0.00    +0.044 C 
ENDBRANCH  10  16
ENDBRANCH   9  10
ENDBRANCH   1   9
BRANCH   4  19
ATOM     19  S   UNL     1      -0.918   5.932   1.518  0.00  0.00    -0.077 S 
BRANCH  19  20
ATOM     20  C   UNL     1      -0.070   5.347   0.030  0.00  0.00    +0.081 C 
ATOM     21  C   UNL     1      -0.810   5.853  -1.210  0.00  0.00    +0.024 C 
BRANCH  20  22
ATOM     22  C   UNL     1      -0.050   3.840   0.022  0.00  0.00    -0.032 A 
ATOM     23  C   UNL     1      -1.238   3.133   0.030  0.00  0.00    +0.005 A 
ATOM     24  C   UNL     1      -1.219   1.751   0.017  0.00  0.00    +0.003 A 
ATOM     25  C   UNL     1      -0.013   1.076   0.008  0.00  0.00    +0.033 A 
ATOM     26  C   UNL     1       1.175   1.783   0.000  0.00  0.00    +0.126 A 
ATOM     27  C   UNL     1       1.156   3.166   0.008  0.00  0.00    +0.037 A 
BRANCH  26  28
ATOM     28  N   UNL     1       2.467   1.060  -0.016  0.00  0.00    +0.056 N 
ATOM     29  O   UNL     1       2.483  -0.157  -0.023  0.00  0.00    -0.126 OA
ATOM     30  O   UNL     1       3.513   1.684  -0.022  0.00  0.00    -0.126 OA
ENDBRANCH  26  28
ENDBRANCH  20  22
ENDBRANCH  19  20
ENDBRANCH   4  19
TORSDOF 8
