REMARK  Name = ZINC28383934
REMARK  9 active torsions:
REMARK  status: ('A' for Active; 'I' for Inactive)
REMARK    1  A    between atoms: C_1  and  C_2
REMARK    2  A    between atoms: C_2  and  C_3
REMARK    3  A    between atoms: C_3  and  C_4
REMARK    4  A    between atoms: C_4  and  N_5
REMARK    5  A    between atoms: C_15  and  S_16
REMARK    6  A    between atoms: S_16  and  C_17
REMARK    7  A    between atoms: C_17  and  C_18
REMARK    8  A    between atoms: N_20  and  C_21
REMARK    9  A    between atoms: C_23  and  N_28
REMARK                            x       y       z     vdW  Elec       q    Type
REMARK                         _______ _______ _______ _____ _____    ______ ____
ROOT
ATOM      1  S   UNL     1      -2.656  -2.899   0.039  0.00  0.00    -0.078 S 
ENDROOT
BRANCH   1  12
ATOM      2  N   UNL     1       0.036  -2.769   0.034  0.00  0.00    -0.287 N 
ATOM      3  C   UNL     1       1.239  -2.149   0.035  0.00  0.00    +0.262 A 
ATOM      4  O   UNL     1       2.277  -2.785   0.029  0.00  0.00    -0.267 OA
ATOM      5  C   UNL     1       1.246  -0.680   0.045  0.00  0.00    +0.065 A 
ATOM      6  C   UNL     1       2.433   0.051   0.048  0.00  0.00    +0.015 A 
ATOM      7  C   UNL     1       2.382   1.418   0.058  0.00  0.00    +0.001 A 
ATOM      8  C   UNL     1       1.163   2.083   0.065  0.00  0.00    +0.002 A 
ATOM      9  C   UNL     1      -0.016   1.391   0.062  0.00  0.00    +0.028 A 
ATOM     10  C   UNL     1       0.003  -0.007   0.052  0.00  0.00    +0.079 A 
ATOM     11  N   UNL     1      -1.136  -0.729   0.050  0.00  0.00    -0.223 NA
ATOM     12  C   UNL     1      -1.119  -2.039   0.041  0.00  0.00    +0.173 A 
BRANCH   2  13
ATOM     13  C   UNL     1      -0.029  -4.232   0.024  0.00  0.00    +0.127 C 
BRANCH  13  14
ATOM     14  C   UNL     1      -0.049  -4.751   1.463  0.00  0.00    +0.021 C 
BRANCH  14  16
ATOM     15  C   UNL     1      -0.137  -6.799   2.892  0.00  0.00    +0.004 C 
ATOM     16  C   UNL     1      -0.117  -6.280   1.453  0.00  0.00    -0.002 C 
ENDBRANCH  14  16
ENDBRANCH  13  14
ENDBRANCH   2  13
ENDBRANCH   1  12
BRANCH   1  17
ATOM     17  C   UNL     1      -3.801  -1.497   0.051  0.00  0.00    +0.173 C 
BRANCH  17  18
ATOM     18  C   UNL     1      -5.219  -2.006   0.051  0.00  0.00    +0.228 C 
ATOM     19  O   UNL     1      -5.435  -3.199   0.044  0.00  0.00    -0.275 OA
ATOM     20  N   UNL     1      -6.248  -1.135   0.060  0.00  0.00    -0.284 N 
ATOM     21  H   UNL     1      -6.054  -0.055   0.141  0.00  0.00    +0.155 HD
BRANCH  20  22
ATOM     22  C   UNL     1      -7.563  -1.605  -0.035  0.00  0.00    +0.054 A 
ATOM     23  C   UNL     1      -7.915  -2.812   0.553  0.00  0.00    +0.057 A 
ATOM     24  C   UNL     1      -9.215  -3.271   0.462  0.00  0.00    +0.128 A 
ATOM     25  C   UNL     1     -10.163  -2.534  -0.224  0.00  0.00    +0.034 A 
ATOM     26  C   UNL     1      -9.816  -1.334  -0.815  0.00  0.00    +0.024 A 
ATOM     27  C   UNL     1      -8.518  -0.866  -0.723  0.00  0.00    +0.062 A 
ATOM     28 CL   UNL     1      -8.082   0.641  -1.466  0.00  0.00    -0.082 Cl
BRANCH  24  29
ATOM     29  N   UNL     1      -9.591  -4.556   1.093  0.00  0.00    +0.056 N 
ATOM     30  O   UNL     1     -10.736  -4.963   1.009  0.00  0.00    -0.126 OA
ATOM     31  O   UNL     1      -8.756  -5.205   1.697  0.00  0.00    -0.126 OA
ENDBRANCH  24  29
ENDBRANCH  20  22
ENDBRANCH  17  18
ENDBRANCH   1  17
TORSDOF 8
