REMARK  Name = ZINC65322119
REMARK  7 active torsions:
REMARK  status: ('A' for Active; 'I' for Inactive)
REMARK    1  A    between atoms: C_1  and  C_2
REMARK    2  A    between atoms: C_4  and  C_29
REMARK    3  A    between atoms: C_6  and  S_8
REMARK    4  A    between atoms: S_8  and  C_9
REMARK    5  A    between atoms: C_9  and  C_10
REMARK    6  A    between atoms: C_15  and  C_18
REMARK    7  A    between atoms: C_26  and  C_28
REMARK                            x       y       z     vdW  Elec       q    Type
REMARK                         _______ _______ _______ _____ _____    ______ ____
ROOT
ATOM      1  C   UNL     1       0.406  -2.146   5.320  0.00  0.00    +0.229 C 
ATOM      2  O   UNL     1       0.208  -3.335   5.451  0.00  0.00    -0.275 OA
ATOM      3  N   UNL     1       0.449  -1.347   6.404  0.00  0.00    -0.264 N 
ATOM      4  C   UNL     1       0.267  -1.884   7.670  0.00  0.00    +0.165 A 
ATOM      5  N   UNL     1       0.268  -1.272   8.835  0.00  0.00    -0.225 NA
ATOM      6  C   UNL     1       0.070  -2.001   9.940  0.00  0.00    +0.079 A 
ATOM      7  C   UNL     1      -0.129  -3.368   9.800  0.00  0.00    +0.076 A 
ATOM      8  S   UNL     1      -0.037  -3.579   8.133  0.00  0.00    -0.060 S 
ATOM      9  H   UNL     1       0.607  -0.395   6.300  0.00  0.00    +0.157 HD
ENDROOT
BRANCH   6  10
ATOM     10  C   UNL     1       0.062  -1.395  11.215  0.00  0.00    +0.009 C 
ATOM     11  C   UNL     1       0.135  -0.034  11.501  0.00  0.00    +0.005 A 
ATOM     12  C   UNL     1       0.234   1.109  10.677  0.00  0.00    +0.010 A 
ATOM     13  C   UNL     1       0.290   2.342  11.241  0.00  0.00    +0.001 A 
ATOM     14  C   UNL     1       0.252   2.516  12.627  0.00  0.00    +0.002 A 
ATOM     15  C   UNL     1       0.158   1.464  13.477  0.00  0.00    +0.026 A 
ATOM     16  C   UNL     1       0.095   0.143  12.961  0.00  0.00    +0.043 A 
ATOM     17  N   UNL     1       0.003  -1.025  13.565  0.00  0.00    -0.377 N 
ATOM     18  C   UNL     1      -0.034  -2.088  12.556  0.00  0.00    +0.109 C 
ATOM     19  C   UNL     1       1.155  -3.032  12.747  0.00  0.00    +0.035 C 
ATOM     20  H   UNL     1      -0.039  -1.160  14.525  0.00  0.00    +0.160 HD
ENDBRANCH   6  10
BRANCH   1  21
ATOM     21  C   UNL     1       0.604  -1.562   3.945  0.00  0.00    +0.173 C 
BRANCH  21  22
ATOM     22  S   UNL     1       0.490  -2.882   2.706  0.00  0.00    -0.077 S 
BRANCH  22  28
ATOM     23  C   UNL     1       1.370   1.409   0.063  0.00  0.00    +0.066 C 
ATOM     24  C   UNL     1       1.137  -0.079   0.044  0.00  0.00    +0.043 A 
ATOM     25  C   UNL     1       1.120  -0.770  -1.155  0.00  0.00    +0.051 A 
ATOM     26  C   UNL     1       0.900  -2.149  -1.126  0.00  0.00    +0.076 A 
ATOM     27  N   UNL     1       0.716  -2.749   0.048  0.00  0.00    -0.222 NA
ATOM     28  C   UNL     1       0.740  -2.050   1.173  0.00  0.00    +0.189 A 
ATOM     29  N   UNL     1       0.952  -0.741   1.175  0.00  0.00    -0.227 NA
BRANCH  26  30
ATOM     30  C   UNL     1       0.873  -2.934  -2.384  0.00  0.00    +0.000 A 
ATOM     31  C   UNL     1       1.072  -2.299  -3.609  0.00  0.00    +0.010 A 
ATOM     32  C   UNL     1       1.046  -3.034  -4.777  0.00  0.00    +0.001 A 
ATOM     33  C   UNL     1       0.822  -4.399  -4.733  0.00  0.00    +0.000 A 
ATOM     34  C   UNL     1       0.623  -5.034  -3.521  0.00  0.00    +0.001 A 
ATOM     35  C   UNL     1       0.653  -4.310  -2.346  0.00  0.00    +0.010 A 
ENDBRANCH  26  30
ENDBRANCH  22  28
ENDBRANCH  21  22
ENDBRANCH   1  21
TORSDOF 5
