REMARK  Name = ZINC21775532
REMARK  11 active torsions:
REMARK  status: ('A' for Active; 'I' for Inactive)
REMARK    1  A    between atoms: C_1  and  C_2
REMARK    2  A    between atoms: C_2  and  C_3
REMARK    3  A    between atoms: C_2  and  C_4
REMARK    4  A    between atoms: C_7  and  S_10
REMARK    5  A    between atoms: S_10  and  N_13
REMARK    6  A    between atoms: N_13  and  C_14
REMARK    7  A    between atoms: C_14  and  C_15
REMARK    8  A    between atoms: C_15  and  C_17
REMARK    9  A    between atoms: C_15  and  N_28
REMARK   10  A    between atoms: N_26  and  C_27
REMARK   11  A    between atoms: N_31  and  C_34
REMARK                            x       y       z     vdW  Elec       q    Type
REMARK                         _______ _______ _______ _____ _____    ______ ____
ROOT
ATOM      1  C   UNL     1       0.637  -0.870  -0.074  0.00  0.00    +0.102 C 
ENDROOT
BRANCH   1   2
ATOM      2  C   UNL     1       0.590   0.633   0.021  0.00  0.00    -0.029 A 
ATOM      3  C   UNL     1      -0.628   1.282   0.119  0.00  0.00    +0.007 A 
ATOM      4  C   UNL     1      -0.669   2.657   0.209  0.00  0.00    +0.024 A 
ATOM      5  C   UNL     1       0.512   3.402   0.189  0.00  0.00    +0.033 A 
ATOM      6  C   UNL     1       1.727   2.748   0.088  0.00  0.00    -0.026 A 
ATOM      7  C   UNL     1       1.760   1.364   0.003  0.00  0.00    +0.010 A 
ATOM      8  C   UNL     1       3.038   3.493   0.071  0.00  0.00    +0.038 C 
ATOM      9  C   UNL     1       2.783   4.975  -0.211  0.00  0.00    +0.024 C 
ATOM     10  C   UNL     1       1.641   5.441   0.700  0.00  0.00    +0.105 C 
ATOM     11  N   UNL     1       0.402   4.790   0.268  0.00  0.00    -0.333 N 
ATOM     12  C   UNL     1      -0.725   5.181   1.125  0.00  0.00    +0.129 C 
ENDBRANCH   1   2
BRANCH   1  13
ATOM     13  N   UNL     1      -0.280  -1.453   0.914  0.00  0.00    -0.298 NA
ATOM     14  C   UNL     1       0.266  -2.700   1.468  0.00  0.00    +0.066 C 
ATOM     15  C   UNL     1      -0.680  -3.231   2.548  0.00  0.00    -0.064 C 
ATOM     16  N   UNL     1      -2.010  -3.455   1.965  0.00  0.00    +0.379 N 
ATOM     17  C   UNL     1      -2.555  -2.208   1.411  0.00  0.00    -0.064 C 
ATOM     18  C   UNL     1      -1.610  -1.677   0.331  0.00  0.00    +0.066 C 
ATOM     19  C   UNL     1      -2.927  -4.038   2.953  0.00  0.00    -0.096 C 
ATOM     20  H   UNL     1      -1.902  -4.175   1.140  0.00  0.00    -0.082 HD
ENDBRANCH   1  13
BRANCH   1  21
ATOM     21  C   UNL     1       0.217  -1.306  -1.479  0.00  0.00    +0.129 C 
BRANCH  21  22
ATOM     22  N   UNL     1       0.282  -2.767  -1.577  0.00  0.00    -0.188 NA
ATOM     23  H   UNL     1       1.001  -3.328  -0.963  0.00  0.00    +0.148 HD
BRANCH  22  24
ATOM     24  S   UNL     1      -0.541  -3.553  -2.780  0.00  0.00    +0.058 S 
ATOM     25  O   UNL     1      -0.261  -4.938  -2.626  0.00  0.00    -0.153 OA
ATOM     26  O   UNL     1      -1.866  -3.038  -2.770  0.00  0.00    -0.153 OA
BRANCH  24  30
ATOM     27  C   UNL     1       1.307  -2.290  -6.715  0.00  0.00    -0.045 A 
ATOM     28  C   UNL     1       1.796  -3.396  -6.045  0.00  0.00    +0.006 A 
ATOM     29  C   UNL     1       1.232  -3.781  -4.843  0.00  0.00    +0.029 A 
ATOM     30  C   UNL     1       0.178  -3.061  -4.311  0.00  0.00    +0.105 A 
ATOM     31  C   UNL     1      -0.315  -1.959  -4.984  0.00  0.00    +0.029 A 
ATOM     32  C   UNL     1       0.253  -1.571  -6.184  0.00  0.00    +0.006 A 
BRANCH  27  34
ATOM     33  C   UNL     1       0.859  -1.906  -9.123  0.00  0.00    +0.012 C 
ATOM     34  C   UNL     1       1.923  -1.869  -8.024  0.00  0.00    +0.013 C 
ATOM     35  C   UNL     1       2.473  -0.447  -7.895  0.00  0.00    +0.012 C 
ENDBRANCH  27  34
ENDBRANCH  24  30
ENDBRANCH  22  24
ENDBRANCH  21  22
ENDBRANCH   1  21
TORSDOF 7
