REMARK  Name = ZINC13805133
REMARK  11 active torsions:
REMARK  status: ('A' for Active; 'I' for Inactive)
REMARK    1  A    between atoms: C_1  and  C_2
REMARK    2  A    between atoms: C_5  and  S_8
REMARK    3  A    between atoms: S_8  and  C_9
REMARK    4  A    between atoms: C_9  and  C_10
REMARK    5  A    between atoms: C_11  and  C_21
REMARK    6  A    between atoms: N_23  and  N_24
REMARK    7  A    between atoms: C_25  and  C_26
REMARK    8  A    between atoms: C_25  and  C_27
REMARK    9  A    between atoms: C_27  and  C_28
REMARK   10  A    between atoms: C_33  and  O_34
REMARK   11  A    between atoms: O_34  and  C_35
REMARK                            x       y       z     vdW  Elec       q    Type
REMARK                         _______ _______ _______ _____ _____    ______ ____
ROOT
ATOM      1  C   UNL     1       1.384   1.418  -3.376  0.00  0.00    +0.089 A 
ATOM      2  C   UNL     1       0.357   1.963  -2.658  0.00  0.00    +0.173 A 
ATOM      3  N   UNL     1       0.455   3.302  -2.724  0.00  0.00    -0.124 NA
ATOM      4  N   UNL     1       1.482   3.626  -3.429  0.00  0.00    -0.058 NA
ATOM      5  N   UNL     1       2.104   2.449  -3.870  0.00  0.00    -0.191 N 
ATOM      6  C   UNL     1       3.251   2.360  -4.667  0.00  0.00    +0.240 A 
ATOM      7  C   UNL     1       4.020   3.491  -5.194  0.00  0.00    +0.206 A 
ATOM      8  N   UNL     1       5.018   3.020  -5.890  0.00  0.00    -0.032 NA
ATOM      9  O   UNL     1       4.946   1.606  -5.849  0.00  0.00    -0.239 OA
ATOM     10  N   UNL     1       3.821   1.257  -5.062  0.00  0.00    -0.027 NA
ATOM     11  N   UNL     1       3.734   4.836  -4.988  0.00  0.00    -0.337 N 
ATOM     12  H   UNL     1       2.967   5.092  -4.453  0.00  0.00    +0.144 HD
ATOM     13  H   UNL     1       4.303   5.518  -5.378  0.00  0.00    +0.144 HD
ENDROOT
BRANCH   2  14
ATOM     14  C   UNL     1      -0.686   1.209  -1.938  0.00  0.00    +0.285 C 
ATOM     15  O   UNL     1      -0.678  -0.007  -1.953  0.00  0.00    -0.267 OA
ATOM     16  N   UNL     1      -1.653   1.868  -1.269  0.00  0.00    -0.202 N 
ATOM     17  H   UNL     1      -1.660   2.838  -1.257  0.00  0.00    +0.178 HD
BRANCH  16  18
ATOM     18  N   UNL     1      -2.647   1.152  -0.590  0.00  0.00    -0.189 NA
ATOM     19  C   UNL     1      -3.509   1.774   0.125  0.00  0.00    +0.038 C 
ATOM     20  C   UNL     1      -4.497   0.999   0.958  0.00  0.00    +0.063 C 
BRANCH  19  21
ATOM     21  C   UNL     1      -3.534   3.281   0.134  0.00  0.00    +0.091 C 
BRANCH  21  22
ATOM     22  C   UNL     1      -4.363   3.776  -1.024  0.00  0.00    -0.000 A 
ATOM     23  C   UNL     1      -3.751   4.127  -2.212  0.00  0.00    +0.007 A 
ATOM     24  C   UNL     1      -4.512   4.577  -3.275  0.00  0.00    +0.001 A 
ATOM     25  C   UNL     1      -5.884   4.686  -3.150  0.00  0.00    +0.004 A 
ATOM     26  C   UNL     1      -6.500   4.341  -1.962  0.00  0.00    +0.046 A 
ATOM     27  C   UNL     1      -5.740   3.884  -0.895  0.00  0.00    +0.124 A 
BRANCH  27  28
ATOM     28  O   UNL     1      -6.343   3.545   0.274  0.00  0.00    -0.495 OA
ATOM     29  C   UNL     1      -7.764   3.682   0.335  0.00  0.00    +0.277 C 
ENDBRANCH  27  28
ENDBRANCH  21  22
ENDBRANCH  19  21
ENDBRANCH  16  18
ENDBRANCH   2  14
BRANCH   1  30
ATOM     30  C   UNL     1       1.660  -0.049  -3.576  0.00  0.00    +0.132 C 
BRANCH  30  31
ATOM     31  S   UNL     1       2.747  -0.647  -2.253  0.00  0.00    -0.119 S 
BRANCH  31  36
ATOM     32  C   UNL     1       3.521  -6.496  -3.526  0.00  0.00    +0.044 C 
ATOM     33  C   UNL     1       3.328  -5.036  -3.208  0.00  0.00    -0.050 A 
ATOM     34  C   UNL     1       3.942  -4.484  -2.098  0.00  0.00    +0.004 A 
ATOM     35  C   UNL     1       3.767  -3.147  -1.804  0.00  0.00    +0.015 A 
ATOM     36  C   UNL     1       2.973  -2.354  -2.624  0.00  0.00    +0.008 A 
ATOM     37  C   UNL     1       2.354  -2.913  -3.736  0.00  0.00    +0.015 A 
ATOM     38  C   UNL     1       2.538  -4.250  -4.027  0.00  0.00    +0.004 A 
ENDBRANCH  31  36
ENDBRANCH  30  31
ENDBRANCH   1  30
TORSDOF 8
