REMARK  Name = ZINC47251747
REMARK  7 active torsions:
REMARK  status: ('A' for Active; 'I' for Inactive)
REMARK    1  A    between atoms: C_1  and  C_2
REMARK    2  A    between atoms: C_5  and  C_29
REMARK    3  A    between atoms: C_6  and  S_8
REMARK    4  A    between atoms: S_8  and  N_11
REMARK    5  A    between atoms: N_11  and  C_12
REMARK    6  A    between atoms: C_16  and  N_18
REMARK    7  A    between atoms: N_21  and  C_24
REMARK                            x       y       z     vdW  Elec       q    Type
REMARK                         _______ _______ _______ _____ _____    ______ ____
ROOT
ATOM      1  C   UNL     1      -1.904  -4.909   2.623  0.00  0.00    +0.050 A 
ATOM      2  C   UNL     1      -1.939  -4.901   1.233  0.00  0.00    +0.024 A 
ATOM      3  C   UNL     1      -2.379  -6.016   0.546  0.00  0.00    +0.004 A 
ATOM      4  C   UNL     1      -2.785  -7.141   1.236  0.00  0.00    +0.026 A 
ATOM      5  C   UNL     1      -2.752  -7.156   2.625  0.00  0.00    +0.056 A 
ATOM      6  C   UNL     1      -2.305  -6.041   3.318  0.00  0.00    +0.051 A 
ENDROOT
BRANCH   5   7
ATOM      7  N   UNL     1      -3.166  -8.297   3.324  0.00  0.00    -0.224 N 
ATOM      8  C   UNL     1      -3.190  -8.444   4.708  0.00  0.00    +0.325 A 
ATOM      9  C   UNL     1      -3.646  -9.672   4.979  0.00  0.00    +0.321 A 
ATOM     10  N   UNL     1      -3.910 -10.303   3.768  0.00  0.00    -0.253 N 
ATOM     11  C   UNL     1      -3.615  -9.443   2.774  0.00  0.00    +0.340 A 
ATOM     12  O   UNL     1      -3.731  -9.663   1.581  0.00  0.00    -0.246 OA
ATOM     13  O   UNL     1      -3.819 -10.208   6.219  0.00  0.00    -0.262 OA
ATOM     14  O   UNL     1      -2.815  -7.506   5.622  0.00  0.00    -0.261 OA
BRANCH  10  15
ATOM     15  C   UNL     1      -4.426 -11.664   3.602  0.00  0.00    +0.096 C 
ATOM     16  C   UNL     1      -4.893 -12.401   4.859  0.00  0.00    +0.027 C 
ATOM     17  C   UNL     1      -3.589 -12.811   4.171  0.00  0.00    +0.027 C 
ENDBRANCH  10  15
ENDBRANCH   5   7
BRANCH   1  18
ATOM     18  N   UNL     1      -1.459  -3.782   3.317  0.00  0.00    -0.216 N 
ATOM     19  H   UNL     1      -1.960  -3.454   4.080  0.00  0.00    +0.174 HD
BRANCH  18  20
ATOM     20  S   UNL     1      -0.076  -3.007   2.839  0.00  0.00    +0.073 S 
ATOM     21  O   UNL     1       0.169  -1.986   3.797  0.00  0.00    -0.150 OA
ATOM     22  O   UNL     1      -0.224  -2.732   1.453  0.00  0.00    -0.150 OA
BRANCH  20  28
ATOM     23  C   UNL     1       3.698  -5.952   0.741  0.00  0.00    +0.044 C 
ATOM     24  C   UNL     1       2.960  -5.492   1.971  0.00  0.00    -0.049 A 
ATOM     25  C   UNL     1       3.320  -5.976   3.215  0.00  0.00    +0.004 A 
ATOM     26  C   UNL     1       2.643  -5.554   4.344  0.00  0.00    +0.005 A 
ATOM     27  C   UNL     1       1.606  -4.647   4.229  0.00  0.00    -0.024 A 
ATOM     28  C   UNL     1       1.246  -4.162   2.986  0.00  0.00    +0.112 A 
ATOM     29  C   UNL     1       1.926  -4.581   1.857  0.00  0.00    +0.032 A 
ATOM     30  C   UNL     1       0.867  -4.187   5.459  0.00  0.00    +0.046 C 
ENDBRANCH  20  28
ENDBRANCH  18  20
ENDBRANCH   1  18
TORSDOF 5
