REMARK  Name = ZINC39666425
REMARK  7 active torsions:
REMARK  status: ('A' for Active; 'I' for Inactive)
REMARK    1  A    between atoms: C_1  and  C_2
REMARK    2  A    between atoms: C_2  and  C_4
REMARK    3  A    between atoms: C_2  and  O_29
REMARK    4  A    between atoms: C_4  and  N_5
REMARK    5  A    between atoms: C_6  and  C_8
REMARK    6  A    between atoms: C_19  and  C_21
REMARK    7  A    between atoms: O_29  and  C_30
REMARK                            x       y       z     vdW  Elec       q    Type
REMARK                         _______ _______ _______ _____ _____    ______ ____
ROOT
ATOM      1  C   UNL     1       0.913  -3.874  -2.330  0.00  0.00    +0.100 C 
ATOM      2  C   UNL     1       1.529  -4.497  -1.057  0.00  0.00    +0.121 C 
ATOM      3  N   UNL     1       2.191  -5.736  -1.530  0.00  0.00    -0.296 N 
ATOM      4  C   UNL     1       2.795  -5.358  -2.830  0.00  0.00    +0.115 C 
ATOM      5  C   UNL     1       1.748  -4.440  -3.491  0.00  0.00    -0.004 C 
ATOM      6  C   UNL     1       2.439  -3.309  -4.246  0.00  0.00    -0.010 C 
ATOM      7  C   UNL     1       3.216  -3.892  -5.431  0.00  0.00    -0.082 C 
ATOM      8  N   UNL     1       2.292  -4.607  -6.319  0.00  0.00    +0.379 N 
ATOM      9  C   UNL     1       1.701  -5.750  -5.612  0.00  0.00    -0.082 C 
ATOM     10  C   UNL     1       0.861  -5.246  -4.435  0.00  0.00    -0.010 C 
ATOM     11  C   UNL     1       2.233  -6.935  -0.917  0.00  0.00    +0.247 C 
ATOM     12  O   UNL     1       1.593  -7.121   0.100  0.00  0.00    -0.270 OA
ATOM     13  H   UNL     1       1.558  -3.981  -6.614  0.00  0.00    -0.086 HD
ATOM     14  H   UNL     1       2.794  -4.938  -7.129  0.00  0.00    -0.086 HD
ENDROOT
BRANCH  11  15
ATOM     15  C   UNL     1       3.058  -8.025  -1.481  0.00  0.00    +0.040 A 
ATOM     16  C   UNL     1       4.156  -7.727  -2.289  0.00  0.00    +0.033 A 
ATOM     17  C   UNL     1       4.922  -8.749  -2.813  0.00  0.00    +0.043 A 
ATOM     18  C   UNL     1       4.603 -10.068  -2.538  0.00  0.00    +0.040 A 
ATOM     19  C   UNL     1       3.515 -10.370  -1.738  0.00  0.00    +0.043 A 
ATOM     20  C   UNL     1       2.744  -9.357  -1.203  0.00  0.00    +0.033 A 
ATOM     21 CL   UNL     1       3.122 -12.027  -1.400  0.00  0.00    -0.083 Cl
ATOM     22 CL   UNL     1       6.288  -8.380  -3.818  0.00  0.00    -0.083 Cl
ENDBRANCH  11  15
BRANCH   1  24
ATOM     23  N   UNL     1       0.097  -1.607  -2.892  0.00  0.00    -0.312 N 
ATOM     24  C   UNL     1       1.027  -2.372  -2.286  0.00  0.00    +0.218 C 
ATOM     25  O   UNL     1       1.956  -1.851  -1.706  0.00  0.00    -0.275 OA
ATOM     26  H   UNL     1      -0.646  -2.024  -3.357  0.00  0.00    +0.149 HD
BRANCH  23  27
ATOM     27  C   UNL     1       0.208  -0.147  -2.850  0.00  0.00    +0.148 C 
BRANCH  27  29
ATOM     28  C   UNL     1      -0.785   1.994  -3.671  0.00  0.00    +0.053 C 
ATOM     29  C   UNL     1      -0.966   0.476  -3.608  0.00  0.00    +0.187 C 
BRANCH  29  30
ATOM     30  O   UNL     1      -2.187   0.169  -2.931  0.00  0.00    -0.486 OA
BRANCH  30  31
ATOM     31  C   UNL     1      -3.323   0.173  -3.677  0.00  0.00    +0.139 A 
ATOM     32  C   UNL     1      -3.254   0.367  -5.048  0.00  0.00    +0.047 A 
ATOM     33  C   UNL     1      -4.410   0.370  -5.804  0.00  0.00    +0.004 A 
ATOM     34  C   UNL     1      -5.637   0.181  -5.194  0.00  0.00    +0.002 A 
ATOM     35  C   UNL     1      -5.710  -0.012  -3.827  0.00  0.00    +0.023 A 
ATOM     36  C   UNL     1      -4.555  -0.022  -3.067  0.00  0.00    +0.083 A 
ATOM     37 CL   UNL     1      -4.646  -0.272  -1.352  0.00  0.00    -0.080 Cl
ENDBRANCH  30  31
ENDBRANCH  29  30
ENDBRANCH  27  29
ENDBRANCH  23  27
ENDBRANCH   1  24
TORSDOF 6
