REMARK  Name = ZINC39513700
REMARK  9 active torsions:
REMARK  status: ('A' for Active; 'I' for Inactive)
REMARK    1  A    between atoms: C_1  and  C_2
REMARK    2  A    between atoms: C_2  and  C_3
REMARK    3  A    between atoms: C_2  and  S_4
REMARK    4  A    between atoms: S_4  and  C_7
REMARK    5  A    between atoms: N_12  and  C_29
REMARK    6  A    between atoms: C_16  and  S_19
REMARK    7  A    between atoms: S_19  and  O_22
REMARK    8  A    between atoms: O_22  and  C_23
REMARK    9  A    between atoms: C_29  and  C_30
REMARK                            x       y       z     vdW  Elec       q    Type
REMARK                         _______ _______ _______ _____ _____    ______ ____
ROOT
ATOM      1  C   UNL     1      -2.430   0.149  -1.464  0.00  0.00    +0.120 C 
ATOM      2  C   UNL     1      -1.530  -0.329  -2.607  0.00  0.00    +0.023 C 
ATOM      3  C   UNL     1      -2.142   0.107  -3.942  0.00  0.00    -0.017 C 
ATOM      4  C   UNL     1      -3.560  -0.456  -4.055  0.00  0.00    -0.077 C 
ATOM      5  N   UNL     1      -4.384   0.059  -2.954  0.00  0.00    +0.387 N 
ATOM      6  C   UNL     1      -3.842  -0.395  -1.671  0.00  0.00    -0.041 C 
ATOM      7  C   UNL     1      -3.824  -1.930  -1.621  0.00  0.00    -0.008 C 
ATOM      8  C   UNL     1      -4.730  -2.341  -0.441  0.00  0.00    +0.028 C 
ATOM      9  C   UNL     1      -4.736  -1.099   0.484  0.00  0.00    +0.170 C 
ATOM     10  C   UNL     1      -4.754   0.078  -0.523  0.00  0.00    +0.020 C 
ATOM     11  H   UNL     1      -4.385   1.067  -2.979  0.00  0.00    -0.080 HD
ENDROOT
BRANCH   1  12
ATOM     12  S   UNL     1      -1.774  -0.453   0.116  0.00  0.00    -0.027 S 
ATOM     13  O   UNL     1      -1.782  -1.874   0.093  0.00  0.00    -0.174 OA
ATOM     14  O   UNL     1      -2.446   0.225   1.169  0.00  0.00    -0.174 OA
BRANCH  12  16
ATOM     15  C   UNL     1      -0.017   1.637  -0.034  0.00  0.00    +0.031 C 
ATOM     16  C   UNL     1      -0.051   0.112   0.076  0.00  0.00    +0.125 C 
ATOM     17  C   UNL     1       0.658  -0.323   1.361  0.00  0.00    +0.031 C 
ENDBRANCH  12  16
ENDBRANCH   1  12
BRANCH   9  18
ATOM     18  S   UNL     1      -6.221  -1.081   1.527  0.00  0.00    +0.123 S 
ATOM     19  O   UNL     1      -6.145  -0.020   2.469  0.00  0.00    -0.136 OA
ATOM     20  O   UNL     1      -7.382  -1.258   0.728  0.00  0.00    -0.136 OA
BRANCH  18  21
ATOM     21  O   UNL     1      -6.127  -2.350   2.362  0.00  0.00    -0.346 OA
BRANCH  21  22
ATOM     22  C   UNL     1      -5.215  -2.283   3.368  0.00  0.00    +0.156 A 
ATOM     23  C   UNL     1      -3.901  -2.669   3.140  0.00  0.00    +0.048 A 
ATOM     24  C   UNL     1      -2.976  -2.600   4.163  0.00  0.00    +0.004 A 
ATOM     25  C   UNL     1      -3.357  -2.148   5.413  0.00  0.00    +0.000 A 
ATOM     26  C   UNL     1      -4.665  -1.764   5.642  0.00  0.00    +0.004 A 
ATOM     27  C   UNL     1      -5.593  -1.825   4.621  0.00  0.00    +0.048 A 
ENDBRANCH  21  22
ENDBRANCH  18  21
ENDBRANCH   9  18
BRANCH   5  28
ATOM     28  C   UNL     1      -5.760  -0.433  -3.104  0.00  0.00    -0.042 C 
BRANCH  28  29
ATOM     29  C   UNL     1      -6.357   0.123  -4.371  0.00  0.00    -0.064 A 
ATOM     30  C   UNL     1      -7.031   1.329  -4.346  0.00  0.00    +0.002 A 
ATOM     31  C   UNL     1      -7.579   1.839  -5.508  0.00  0.00    +0.000 A 
ATOM     32  C   UNL     1      -7.452   1.143  -6.696  0.00  0.00    +0.000 A 
ATOM     33  C   UNL     1      -6.777  -0.063  -6.721  0.00  0.00    +0.000 A 
ATOM     34  C   UNL     1      -6.226  -0.571  -5.559  0.00  0.00    +0.002 A 
ENDBRANCH  28  29
ENDBRANCH   5  28
TORSDOF 7
