REMARK  Name = ZINC64131237
REMARK  9 active torsions:
REMARK  status: ('A' for Active; 'I' for Inactive)
REMARK    1  A    between atoms: C_1  and  C_2
REMARK    2  A    between atoms: C_6  and  C_10
REMARK    3  A    between atoms: C_10  and  O_11
REMARK    4  A    between atoms: O_11  and  C_12
REMARK    5  A    between atoms: C_14  and  C_16
REMARK    6  A    between atoms: N_18  and  C_19
REMARK    7  A    between atoms: C_19  and  C_20
REMARK    8  A    between atoms: C_20  and  C_22
REMARK    9  A    between atoms: C_20  and  N_29
REMARK                            x       y       z     vdW  Elec       q    Type
REMARK                         _______ _______ _______ _____ _____    ______ ____
ROOT
ATOM      1  C   UNL     1      -1.250  -0.737   2.116  0.00  0.00    +0.230 C 
ATOM      2  O   UNL     1      -2.337  -0.788   1.581  0.00  0.00    -0.274 OA
ATOM      3  N   UNL     1      -1.162  -0.563   3.450  0.00  0.00    -0.315 N 
ATOM      4  H   UNL     1      -0.293  -0.522   3.878  0.00  0.00    +0.149 HD
ENDROOT
BRANCH   1  15
ATOM      5  C   UNL     1      -0.454   1.246  -0.203  0.00  0.00    +0.041 C 
ATOM      6  C   UNL     1      -0.174  -0.228  -0.068  0.00  0.00    -0.036 C 
ATOM      7  C   UNL     1      -0.068  -1.016  -1.149  0.00  0.00    +0.071 C 
ATOM      8  C   UNL     1       0.209  -2.451  -0.927  0.00  0.00    +0.112 C 
ATOM      9  N   UNL     1       0.323  -3.273  -1.944  0.00  0.00    -0.225 NA
ATOM     10  C   UNL     1       0.195  -2.847  -3.191  0.00  0.00    +0.149 C 
ATOM     11  N   UNL     1      -0.050  -1.598  -3.507  0.00  0.00    -0.159 NA
ATOM     12  C   UNL     1      -0.194  -0.634  -2.592  0.00  0.00    +0.271 C 
ATOM     13  O   UNL     1      -0.421   0.517  -2.921  0.00  0.00    -0.268 OA
ATOM     14  S   UNL     1       0.308  -2.625   0.836  0.00  0.00    -0.088 S 
ATOM     15  C   UNL     1       0.003  -0.869   1.290  0.00  0.00    +0.165 C 
BRANCH  10  16
ATOM     16  C   UNL     1       0.339  -3.851  -4.306  0.00  0.00    +0.232 C 
BRANCH  16  17
ATOM     17  O   UNL     1       0.168  -3.193  -5.564  0.00  0.00    -0.376 OA
ATOM     18  C   UNL     1       0.286  -4.061  -6.693  0.00  0.00    +0.194 C 
ENDBRANCH  16  17
ENDBRANCH  10  16
ENDBRANCH   1  15
BRANCH   3  19
ATOM     19  C   UNL     1      -2.381  -0.435   4.253  0.00  0.00    +0.093 C 
BRANCH  19  20
ATOM     20  C   UNL     1      -2.010  -0.382   5.737  0.00  0.00    -0.020 C 
BRANCH  20  21
ATOM     21  C   UNL     1      -1.409  -1.701   6.151  0.00  0.00    -0.058 A 
ATOM     22  C   UNL     1      -2.230  -2.779   6.424  0.00  0.00    +0.002 A 
ATOM     23  C   UNL     1      -1.679  -3.989   6.804  0.00  0.00    +0.002 A 
ATOM     24  C   UNL     1      -0.307  -4.121   6.912  0.00  0.00    +0.020 A 
ATOM     25  C   UNL     1       0.514  -3.042   6.639  0.00  0.00    +0.041 A 
ATOM     26  C   UNL     1      -0.037  -1.833   6.253  0.00  0.00    +0.022 A 
ATOM     27 CL   UNL     1       2.237  -3.207   6.774  0.00  0.00    -0.084 Cl
ENDBRANCH  20  21
BRANCH  20  28
ATOM     28  N   UNL     1      -3.216  -0.122   6.534  0.00  0.00    +0.385 N 
ATOM     29  C   UNL     1      -2.871  -0.053   7.977  0.00  0.00    -0.078 C 
ATOM     30  C   UNL     1      -4.046   0.753   8.585  0.00  0.00    -0.020 C 
ATOM     31  C   UNL     1      -4.349   1.801   7.490  0.00  0.00    -0.020 C 
ATOM     32  C   UNL     1      -3.778   1.202   6.191  0.00  0.00    -0.078 C 
ATOM     33  H   UNL     1      -3.902  -0.844   6.373  0.00  0.00    -0.081 HD
ENDBRANCH  20  28
ENDBRANCH  19  20
ENDBRANCH   3  19
TORSDOF 7
