REMARK  Name = ZINC13992533
REMARK  5 active torsions:
REMARK  status: ('A' for Active; 'I' for Inactive)
REMARK    1  A    between atoms: C_4  and  C_7
REMARK    2  A    between atoms: C_7  and  O_31
REMARK    3  A    between atoms: C_18  and  C_19
REMARK    4  A    between atoms: C_18  and  N_55
REMARK    5  A    between atoms: C_21  and  C_24
REMARK                            x       y       z     vdW  Elec       q    Type
REMARK                         _______ _______ _______ _____ _____    ______ ____
ROOT
ATOM      1  C   UNL     1       1.419   2.052  -0.001  0.00  0.00    +0.091 C 
ATOM      2  C   UNL     1       0.025   1.424   0.070  0.00  0.00    +0.021 C 
ATOM      3  C   UNL     1       0.158  -0.100   0.120  0.00  0.00    -0.075 C 
ATOM      4  C   UNL     1       2.307   0.068   1.227  0.00  0.00    -0.062 C 
ATOM      5  C   UNL     1       2.236   1.597   1.213  0.00  0.00    +0.012 C 
ATOM      6  C   UNL     1       1.563   2.088   2.496  0.00  0.00    +0.005 C 
ATOM      7  C   UNL     1       2.374   1.625   3.708  0.00  0.00    +0.000 C 
ATOM      8  C   UNL     1       2.443   0.097   3.722  0.00  0.00    -0.002 C 
ATOM      9  C   UNL     1       3.111  -0.392   2.445  0.00  0.00    -0.015 C 
ATOM     10  N   UNL     1       0.935  -0.475   1.321  0.00  0.00    +0.388 N 
ATOM     11  H   UNL     1       0.477  -0.080   2.151  0.00  0.00    -0.081 HD
ENDROOT
BRANCH   1  15
ATOM     12  C   UNL     1       3.371   0.798  -3.587  0.00  0.00    +0.000 A 
ATOM     13  C   UNL     1       1.994   0.914  -3.554  0.00  0.00    +0.000 A 
ATOM     14  C   UNL     1       1.363   1.320  -2.393  0.00  0.00    +0.006 A 
ATOM     15  C   UNL     1       2.108   1.609  -1.266  0.00  0.00    -0.016 A 
ATOM     16  C   UNL     1       3.486   1.498  -1.301  0.00  0.00    +0.006 A 
ATOM     17  C   UNL     1       4.117   1.087  -2.460  0.00  0.00    +0.000 A 
ENDBRANCH   1  15
BRANCH   1  18
ATOM     18  O   UNL     1       1.303   3.476   0.009  0.00  0.00    -0.384 OA
ATOM     19  H   UNL     1       0.792   3.834  -0.730  0.00  0.00    +0.211 HD
ENDBRANCH   1  18
BRANCH  10  20
ATOM     20  C   UNL     1       0.983  -1.946   1.453  0.00  0.00    +0.022 C 
BRANCH  20  21
ATOM     21  C   UNL     1       1.735  -2.557   0.299  0.00  0.00    +0.211 A 
ATOM     22  N   UNL     1       3.022  -2.793   0.248  0.00  0.00    -0.193 NA
ATOM     23  C   UNL     1       3.243  -3.342  -0.968  0.00  0.00    +0.205 A 
ATOM     24  N   UNL     1       2.087  -3.406  -1.578  0.00  0.00    -0.056 NA
ATOM     25  O   UNL     1       1.213  -2.965  -0.862  0.00  0.00    -0.340 OA
BRANCH  23  26
ATOM     26  C   UNL     1       4.550  -3.789  -1.510  0.00  0.00    +0.059 A 
ATOM     27  C   UNL     1       4.637  -4.343  -2.789  0.00  0.00    +0.016 A 
ATOM     28  C   UNL     1       5.880  -4.744  -3.249  0.00  0.00    +0.020 A 
ATOM     29  C   UNL     1       6.986  -4.585  -2.434  0.00  0.00    +0.112 A 
ATOM     30  N   UNL     1       6.874  -4.059  -1.230  0.00  0.00    -0.243 NA
ATOM     31  C   UNL     1       5.713  -3.657  -0.751  0.00  0.00    +0.140 A 
ATOM     32 CL   UNL     1       5.630  -2.965   0.839  0.00  0.00    -0.061 Cl
ENDBRANCH  23  26
ENDBRANCH  20  21
ENDBRANCH  10  20
TORSDOF 5
