REMARK  Name = ZINC51278671
REMARK  5 active torsions:
REMARK  status: ('A' for Active; 'I' for Inactive)
REMARK    1  A    between atoms: C_6  and  C_7
REMARK    2  A    between atoms: C_7  and  C_12
REMARK    3  A    between atoms: C_12  and  N_13
REMARK    4  A    between atoms: C_20  and  C_22
REMARK    5  A    between atoms: N_24  and  C_25
REMARK                            x       y       z     vdW  Elec       q    Type
REMARK                         _______ _______ _______ _____ _____    ______ ____
ROOT
ATOM      1  N   UNL     1      -2.435   0.914   1.361  0.00  0.00    -0.298 N 
ATOM      2  C   UNL     1      -3.035   1.410   2.461  0.00  0.00    +0.302 C 
ATOM      3  O   UNL     1      -3.342   0.667   3.373  0.00  0.00    -0.253 OA
ATOM      4  N   UNL     1      -3.294   2.730   2.551  0.00  0.00    -0.285 N 
ATOM      5  C   UNL     1      -3.837   3.304   3.789  0.00  0.00    +0.109 C 
ATOM      6  C   UNL     1      -5.107   4.091   3.451  0.00  0.00    +0.020 C 
ATOM      7  C   UNL     1      -4.790   5.123   2.367  0.00  0.00    +0.016 C 
ATOM      8  C   UNL     1      -4.316   4.405   1.101  0.00  0.00    +0.092 C 
ATOM      9  C   UNL     1      -3.031   3.623   1.414  0.00  0.00    +0.122 C 
ATOM     10  H   UNL     1      -2.255   1.493   0.604  0.00  0.00    +0.150 HD
ENDROOT
BRANCH   8  11
ATOM     11  C   UNL     1      -4.035   5.420   0.023  0.00  0.00    +0.218 C 
ATOM     12  O   UNL     1      -4.198   6.601   0.245  0.00  0.00    -0.275 OA
ATOM     13  N   UNL     1      -3.602   5.015  -1.188  0.00  0.00    -0.312 N 
ATOM     14  H   UNL     1      -3.472   4.070  -1.365  0.00  0.00    +0.149 HD
BRANCH  13  15
ATOM     15  C   UNL     1      -3.329   6.002  -2.236  0.00  0.00    +0.073 C 
ATOM     16  C   UNL     1      -3.825   5.688  -3.648  0.00  0.00    +0.024 C 
ATOM     17  C   UNL     1      -2.331   5.613  -3.329  0.00  0.00    +0.024 C 
ENDBRANCH  13  15
ENDBRANCH   8  11
BRANCH   1  18
ATOM     18  C   UNL     1      -2.055  -0.500   1.308  0.00  0.00    +0.117 C 
BRANCH  18  19
ATOM     19  C   UNL     1      -1.289  -0.774   0.013  0.00  0.00    +0.011 C 
ATOM     20  C   UNL     1      -2.127  -0.333  -1.200  0.00  0.00    +0.013 C 
ATOM     21  C   UNL     1      -2.365  -1.595  -2.055  0.00  0.00    +0.001 C 
ATOM     22  C   UNL     1      -2.209  -2.766  -1.054  0.00  0.00    +0.001 C 
ATOM     23  C   UNL     1      -1.047  -2.289  -0.147  0.00  0.00    +0.013 C 
BRANCH  19  29
ATOM     24  C   UNL     1       0.902  -0.171  -1.036  0.00  0.00    +0.007 A 
ATOM     25  C   UNL     1       2.109   0.502  -1.025  0.00  0.00    +0.038 A 
ATOM     26  C   UNL     1       2.441   1.308   0.051  0.00  0.00    +0.123 A 
ATOM     27  C   UNL     1       1.564   1.439   1.114  0.00  0.00    +0.038 A 
ATOM     28  C   UNL     1       0.357   0.765   1.100  0.00  0.00    +0.007 A 
ATOM     29  C   UNL     1       0.026  -0.040   0.026  0.00  0.00    -0.040 A 
ATOM     30  F   UNL     1       3.621   1.966   0.063  0.00  0.00    -0.205 F 
ENDBRANCH  19  29
ENDBRANCH  18  19
ENDBRANCH   1  18
TORSDOF 5
