REMARK  Name = ZINC07165542
REMARK  4 active torsions:
REMARK  status: ('A' for Active; 'I' for Inactive)
REMARK    1  A    between atoms: C_1  and  C_2
REMARK    2  A    between atoms: C_5  and  C_21
REMARK    3  A    between atoms: C_6  and  N_8
REMARK    4  A    between atoms: C_14  and  C_15
REMARK                            x       y       z     vdW  Elec       q    Type
REMARK                         _______ _______ _______ _____ _____    ______ ____
ROOT
ATOM      1  N   UNL     1       2.492   4.272  -0.370  0.00  0.00    -0.295 N 
ATOM      2  C   UNL     1       1.346   3.522  -0.454  0.00  0.00    +0.156 C 
ATOM      3  N   UNL     1       1.221   2.205  -0.425  0.00  0.00    -0.154 NA
ATOM      4  C   UNL     1       0.054   1.605  -0.515  0.00  0.00    +0.276 C 
ATOM      5  O   UNL     1      -0.047   0.388  -0.488  0.00  0.00    -0.267 OA
ATOM      6  C   UNL     1      -1.127   2.482  -0.658  0.00  0.00    +0.082 C 
ATOM      7  C   UNL     1      -2.446   2.158  -0.778  0.00  0.00    +0.066 C 
ATOM      8  S   UNL     1      -0.340   4.087  -0.628  0.00  0.00    -0.051 S 
ATOM      9  H   UNL     1       2.447   5.237  -0.458  0.00  0.00    +0.154 HD
ENDROOT
BRANCH   1  15
ATOM     10  C   UNL     1       5.052   0.180   0.563  0.00  0.00    +0.044 C 
ATOM     11  C   UNL     1       4.994   1.663   0.296  0.00  0.00    -0.049 A 
ATOM     12  C   UNL     1       6.161   2.404   0.260  0.00  0.00    +0.004 A 
ATOM     13  C   UNL     1       6.112   3.764   0.016  0.00  0.00    +0.005 A 
ATOM     14  C   UNL     1       4.897   4.386  -0.199  0.00  0.00    -0.029 A 
ATOM     15  C   UNL     1       3.723   3.645  -0.159  0.00  0.00    +0.036 A 
ATOM     16  C   UNL     1       3.776   2.279   0.087  0.00  0.00    +0.027 A 
ATOM     17  C   UNL     1       4.846   5.867  -0.472  0.00  0.00    +0.045 C 
ENDBRANCH   1  15
BRANCH   7  18
ATOM     18  C   UNL     1      -2.831   0.805  -0.923  0.00  0.00    +0.129 A 
ATOM     19  C   UNL     1      -4.126   0.333  -1.014  0.00  0.00    +0.049 A 
ATOM     20  C   UNL     1      -4.034  -1.060  -1.148  0.00  0.00    +0.042 A 
ATOM     21  C   UNL     1      -2.720  -1.377  -1.134  0.00  0.00    +0.195 A 
ATOM     22  O   UNL     1      -1.999  -0.254  -1.004  0.00  0.00    -0.463 OA
ENDBRANCH   7  18
TORSDOF 2
