REMARK  Name = ZINC09263140
REMARK  6 active torsions:
REMARK  status: ('A' for Active; 'I' for Inactive)
REMARK    1  A    between atoms: C_10  and  C_11
REMARK    2  A    between atoms: C_11  and  C_12
REMARK    3  A    between atoms: N_14  and  N_15
REMARK    4  A    between atoms: C_16  and  C_17
REMARK    5  A    between atoms: C_20  and  S_22
REMARK    6  A    between atoms: S_22  and  C_23
REMARK                            x       y       z     vdW  Elec       q    Type
REMARK                         _______ _______ _______ _____ _____    ______ ____
ROOT
ATOM      1  N   UNL     1      -2.312   7.691  -2.916  0.00  0.00    -0.185 NA
ATOM      2  C   UNL     1      -2.305   8.973  -3.145  0.00  0.00    +0.176 C 
ENDROOT
BRANCH   2   3
ATOM      3  C   UNL     1      -2.194   9.470  -4.516  0.00  0.00    +0.150 A 
ATOM      4  C   UNL     1      -2.181  10.784  -4.893  0.00  0.00    +0.067 A 
ATOM      5  C   UNL     1      -2.058  10.805  -6.291  0.00  0.00    +0.071 A 
ATOM      6  C   UNL     1      -2.010   9.509  -6.707  0.00  0.00    +0.181 A 
ATOM      7  O   UNL     1      -2.093   8.711  -5.628  0.00  0.00    -0.446 OA
ATOM      8 BR   UNL     1      -1.980  12.341  -7.391  0.00  0.00    -0.046 Br
BRANCH   6   9
ATOM      9  S   UNL     1      -1.865   8.970  -8.378  0.00  0.00    -0.051 S 
BRANCH   9  10
ATOM     10  C   UNL     1      -1.711   7.233  -8.126  0.00  0.00    +0.016 A 
ATOM     11  C   UNL     1      -0.465   6.675  -7.867  0.00  0.00    +0.016 A 
ATOM     12  C   UNL     1      -0.348   5.314  -7.664  0.00  0.00    +0.021 A 
ATOM     13  C   UNL     1      -1.469   4.504  -7.730  0.00  0.00    +0.041 A 
ATOM     14  C   UNL     1      -2.710   5.056  -7.993  0.00  0.00    +0.021 A 
ATOM     15  C   UNL     1      -2.834   6.417  -8.191  0.00  0.00    +0.016 A 
ATOM     16 CL   UNL     1      -1.317   2.793  -7.481  0.00  0.00    -0.084 Cl
ENDBRANCH   9  10
ENDBRANCH   6   9
ENDBRANCH   2   3
BRANCH   1  19
ATOM     17  C   UNL     1      -2.424   5.888  -1.365  0.00  0.00    +0.237 C 
ATOM     18  O   UNL     1      -2.338   5.106  -2.289  0.00  0.00    -0.274 OA
ATOM     19  N   UNL     1      -2.417   7.215  -1.602  0.00  0.00    -0.207 N 
ATOM     20  H   UNL     1      -2.486   7.840  -0.864  0.00  0.00    +0.177 HD
BRANCH  17  21
ATOM     21  C   UNL     1      -2.538   5.376   0.048  0.00  0.00    +0.133 C 
BRANCH  21  31
ATOM     22  C   UNL     1       1.086   1.761   0.012  0.00  0.00    +0.001 A 
ATOM     23  C   UNL     1       1.091   3.155   0.021  0.00  0.00    +0.001 A 
ATOM     24  C   UNL     1      -0.073   3.860   0.029  0.00  0.00    +0.009 A 
ATOM     25  C   UNL     1      -1.300   3.175   0.030  0.00  0.00    -0.014 A 
ATOM     26  C   UNL     1      -1.306   1.758   0.016  0.00  0.00    -0.018 A 
ATOM     27  C   UNL     1      -0.083   1.064   0.013  0.00  0.00    +0.008 A 
ATOM     28  C   UNL     1      -2.533   1.074   0.010  0.00  0.00    +0.008 A 
ATOM     29  C   UNL     1      -3.697   1.779   0.014  0.00  0.00    +0.001 A 
ATOM     30  C   UNL     1      -3.692   3.172   0.022  0.00  0.00    +0.005 A 
ATOM     31  C   UNL     1      -2.522   3.869   0.038  0.00  0.00    -0.031 A 
ENDBRANCH  21  31
ENDBRANCH  17  21
ENDBRANCH   1  19
TORSDOF 6
