REMARK  Name = ZINC19496466
REMARK  5 active torsions:
REMARK  status: ('A' for Active; 'I' for Inactive)
REMARK    1  A    between atoms: C_1  and  C_2
REMARK    2  A    between atoms: C_9  and  C_11
REMARK    3  A    between atoms: C_11  and  N_12
REMARK    4  A    between atoms: C_14  and  C_24
REMARK    5  A    between atoms: C_16  and  C_19
REMARK                            x       y       z     vdW  Elec       q    Type
REMARK                         _______ _______ _______ _____ _____    ______ ____
ROOT
ATOM      1  N   UNL     1      -0.700   1.560   1.217  0.00  0.00    +0.386 N 
ATOM      2  C   UNL     1      -0.159   0.897   2.431  0.00  0.00    -0.069 C 
ATOM      3  C   UNL     1      -1.290   1.088   3.473  0.00  0.00    +0.010 C 
ATOM      4  C   UNL     1      -2.572   0.922   2.625  0.00  0.00    +0.029 C 
ATOM      5  C   UNL     1      -2.138   1.217   1.177  0.00  0.00    -0.068 C 
ATOM      6  H   UNL     1      -0.546   2.648   1.241  0.00  0.00    -0.081 HD
ENDROOT
BRANCH   3   7
ATOM      7  C   UNL     1      -1.213   0.030   4.543  0.00  0.00    -0.045 A 
ATOM      8  C   UNL     1      -1.295  -1.307   4.200  0.00  0.00    +0.005 A 
ATOM      9  C   UNL     1      -1.219  -2.278   5.181  0.00  0.00    +0.020 A 
ATOM     10  C   UNL     1      -1.072  -1.911   6.507  0.00  0.00    +0.041 A 
ATOM     11  C   UNL     1      -0.996  -0.573   6.850  0.00  0.00    +0.020 A 
ATOM     12  C   UNL     1      -1.067   0.397   5.868  0.00  0.00    +0.005 A 
ATOM     13 CL   UNL     1      -0.984  -3.130   7.741  0.00  0.00    -0.084 Cl
ENDBRANCH   3   7
BRANCH   4  14
ATOM     14  C   UNL     1      -3.623   1.907   3.067  0.00  0.00    +0.074 A 
ATOM     15  C   UNL     1      -3.678   3.188   2.608  0.00  0.00    +0.092 A 
ATOM     16  S   UNL     1      -5.060   3.788   3.462  0.00  0.00    +0.028 S 
ATOM     17  N   UNL     1      -5.437   2.489   4.276  0.00  0.00    -0.110 NA
ATOM     18  N   UNL     1      -4.566   1.608   3.935  0.00  0.00    -0.146 NA
ENDBRANCH   4  14
BRANCH   1  19
ATOM     19  C   UNL     1      -0.013   1.086   0.008  0.00  0.00    +0.019 C 
BRANCH  19  27
ATOM     20  C   UNL     1      -0.663   2.865  -5.858  0.00  0.00    +0.009 C 
ATOM     21  C   UNL     1       0.017   2.477  -4.543  0.00  0.00    +0.003 C 
ATOM     22  C   UNL     1       1.198   1.549  -4.833  0.00  0.00    +0.006 C 
ATOM     23  C   UNL     1       1.899   1.186  -3.522  0.00  0.00    +0.019 C 
ATOM     24  C   UNL     1       0.918   0.451  -2.610  0.00  0.00    +0.107 C 
ATOM     25  N   UNL     1      -0.288   1.272  -2.443  0.00  0.00    -0.303 N 
ATOM     26  C   UNL     1      -0.988   1.752  -3.643  0.00  0.00    +0.111 C 
ATOM     27  C   UNL     1      -0.742   1.585  -1.213  0.00  0.00    +0.199 C 
ATOM     28  O   UNL     1      -1.736   2.268  -1.088  0.00  0.00    -0.278 OA
ENDBRANCH  19  27
ENDBRANCH   1  19
TORSDOF 4
