REMARK  Name = ZINC64352680
REMARK  7 active torsions:
REMARK  status: ('A' for Active; 'I' for Inactive)
REMARK    1  A    between atoms: C_1  and  C_2
REMARK    2  A    between atoms: C_7  and  N_12
REMARK    3  A    between atoms: C_13  and  C_15
REMARK    4  A    between atoms: C_15  and  C_17
REMARK    5  A    between atoms: C_15  and  N_27
REMARK    6  A    between atoms: C_17  and  C_18
REMARK    7  A    between atoms: C_28  and  C_30
REMARK                            x       y       z     vdW  Elec       q    Type
REMARK                         _______ _______ _______ _____ _____    ______ ____
ROOT
ATOM      1  C   UNL     1      -4.398  -5.016   5.105  0.00  0.00    +0.163 C 
ENDROOT
BRANCH   1   3
ATOM      2  N   UNL     1      -3.455  -3.408   3.479  0.00  0.00    -0.284 N 
ATOM      3  C   UNL     1      -3.277  -4.149   4.591  0.00  0.00    +0.238 C 
ATOM      4  O   UNL     1      -2.216  -4.119   5.177  0.00  0.00    -0.273 OA
ATOM      5  H   UNL     1      -4.323  -3.379   3.048  0.00  0.00    +0.155 HD
BRANCH   2  11
ATOM      6  C   UNL     1       0.133   0.667  -0.845  0.00  0.00    +0.074 C 
ATOM      7  C   UNL     1       0.373  -0.709  -0.220  0.00  0.00    +0.257 C 
ATOM      8  N   UNL     1      -0.854  -1.513  -0.281  0.00  0.00    -0.307 N 
ATOM      9  C   UNL     1      -1.199  -1.805   1.046  0.00  0.00    +0.074 A 
ATOM     10  C   UNL     1      -2.260  -2.528   1.573  0.00  0.00    +0.050 A 
ATOM     11  C   UNL     1      -2.384  -2.677   2.946  0.00  0.00    +0.035 A 
ATOM     12  C   UNL     1      -1.446  -2.102   3.792  0.00  0.00    +0.027 A 
ATOM     13  C   UNL     1      -0.390  -1.382   3.269  0.00  0.00    +0.049 A 
ATOM     14  C   UNL     1      -0.259  -1.229   1.894  0.00  0.00    +0.144 A 
ATOM     15  O   UNL     1       0.688  -0.571   1.168  0.00  0.00    -0.469 OA
ATOM     16  H   UNL     1      -1.331  -1.787  -1.080  0.00  0.00    +0.150 HD
ENDBRANCH   2  11
ENDBRANCH   1   3
BRANCH   1  17
ATOM     17  N   UNL     1      -4.163  -5.332   6.516  0.00  0.00    -0.299 N 
ATOM     18  C   UNL     1      -3.046  -5.992   6.882  0.00  0.00    +0.251 C 
ATOM     19  O   UNL     1      -2.233  -6.325   6.040  0.00  0.00    -0.270 OA
ATOM     20  H   UNL     1      -4.811  -5.066   7.187  0.00  0.00    +0.150 HD
BRANCH  18  21
ATOM     21  C   UNL     1      -2.812  -6.307   8.294  0.00  0.00    +0.074 A 
ATOM     22  C   UNL     1      -1.739  -6.965   8.876  0.00  0.00    +0.021 A 
ATOM     23  C   UNL     1      -1.799  -7.115  10.241  0.00  0.00    +0.008 A 
ATOM     24  C   UNL     1      -2.871  -6.625  10.911  0.00  0.00    +0.046 A 
ATOM     25  S   UNL     1      -3.827  -5.938   9.712  0.00  0.00    -0.092 S 
ENDBRANCH  18  21
ENDBRANCH   1  17
BRANCH   1  26
ATOM     26  C   UNL     1      -4.452  -6.313   4.294  0.00  0.00    +0.065 C 
BRANCH  26  27
ATOM     27  C   UNL     1      -5.646  -7.125   4.725  0.00  0.00    -0.039 C 
ATOM     28  C   UNL     1      -6.869  -7.143   4.147  0.00  0.00    -0.001 A 
ATOM     29  C   UNL     1      -7.432  -6.438   2.989  0.00  0.00    +0.010 A 
ATOM     30  C   UNL     1      -8.719  -6.667   2.644  0.00  0.00    +0.001 A 
ATOM     31  C   UNL     1      -9.528  -7.557   3.363  0.00  0.00    +0.002 A 
ATOM     32  C   UNL     1      -9.082  -8.242   4.438  0.00  0.00    +0.026 A 
ATOM     33  C   UNL     1      -7.744  -8.078   4.889  0.00  0.00    +0.043 A 
ATOM     34  N   UNL     1      -7.087  -8.618   5.888  0.00  0.00    -0.380 N 
ATOM     35  C   UNL     1      -5.718  -8.089   5.888  0.00  0.00    +0.144 C 
ATOM     36  H   UNL     1      -7.445  -9.262   6.519  0.00  0.00    +0.160 HD
ENDBRANCH  26  27
ENDBRANCH   1  26
TORSDOF 6
