REMARK  Name = ZINC11395096
REMARK  7 active torsions:
REMARK  status: ('A' for Active; 'I' for Inactive)
REMARK    1  A    between atoms: C_1  and  C_2
REMARK    2  A    between atoms: C_5  and  C_26
REMARK    3  A    between atoms: C_6  and  N_8
REMARK    4  A    between atoms: C_12  and  S_13
REMARK    5  A    between atoms: S_13  and  C_14
REMARK    6  A    between atoms: C_14  and  C_15
REMARK    7  A    between atoms: C_23  and  N_25
REMARK                            x       y       z     vdW  Elec       q    Type
REMARK                         _______ _______ _______ _____ _____    ______ ____
ROOT
ATOM      1  S   UNL     1       2.308   3.792  -2.515  0.00  0.00    -0.080 S 
ENDROOT
BRANCH   1   6
ATOM      2  N   UNL     1       1.161   3.488   0.009  0.00  0.00    -0.294 N 
ATOM      3  C   UNL     1       0.688   4.298   1.019  0.00  0.00    +0.113 A 
ATOM      4  C   UNL     1       0.864   5.568   0.618  0.00  0.00    +0.131 A 
ATOM      5  N   UNL     1       1.421   5.553  -0.605  0.00  0.00    -0.230 NA
ATOM      6  C   UNL     1       1.606   4.310  -0.984  0.00  0.00    +0.174 A 
BRANCH   2  12
ATOM      7  C   UNL     1      -1.293  -0.774   0.010  0.00  0.00    +0.044 C 
ATOM      8  C   UNL     1       0.002  -0.004   0.002  0.00  0.00    -0.048 A 
ATOM      9  C   UNL     1       1.208  -0.681  -0.013  0.00  0.00    +0.004 A 
ATOM     10  C   UNL     1       2.398   0.023  -0.020  0.00  0.00    +0.005 A 
ATOM     11  C   UNL     1       2.386   1.404  -0.013  0.00  0.00    -0.027 A 
ATOM     12  C   UNL     1       1.177   2.086   0.002  0.00  0.00    +0.052 A 
ATOM     13  C   UNL     1      -0.017   1.377   0.010  0.00  0.00    +0.029 A 
ATOM     14  C   UNL     1       3.684   2.170  -0.020  0.00  0.00    +0.046 C 
ENDBRANCH   2  12
ENDBRANCH   1   6
BRANCH   1  15
ATOM     15  C   UNL     1       2.637   5.403  -3.271  0.00  0.00    +0.153 C 
BRANCH  15  16
ATOM     16  C   UNL     1       3.258   5.202  -4.630  0.00  0.00    +0.142 A 
ATOM     17  N   UNL     1       4.565   5.135  -4.717  0.00  0.00    -0.231 NA
ATOM     18  C   UNL     1       5.159   4.952  -5.906  0.00  0.00    +0.076 A 
ATOM     19  C   UNL     1       6.552   4.869  -6.035  0.00  0.00    +0.028 A 
ATOM     20  C   UNL     1       7.103   4.688  -7.269  0.00  0.00    +0.002 A 
ATOM     21  C   UNL     1       6.304   4.584  -8.404  0.00  0.00    +0.001 A 
ATOM     22  C   UNL     1       4.946   4.660  -8.313  0.00  0.00    +0.013 A 
ATOM     23  C   UNL     1       4.348   4.845  -7.062  0.00  0.00    +0.040 A 
ATOM     24  C   UNL     1       2.943   4.932  -6.904  0.00  0.00    +0.127 A 
ATOM     25  N   UNL     1       2.460   5.109  -5.681  0.00  0.00    -0.216 NA
BRANCH  24  26
ATOM     26  N   UNL     1       2.101   4.835  -7.991  0.00  0.00    -0.343 N 
ATOM     27  H   UNL     1       1.141   4.896  -7.867  0.00  0.00    +0.144 HD
ATOM     28  H   UNL     1       2.468   4.706  -8.879  0.00  0.00    +0.144 HD
ENDBRANCH  24  26
ENDBRANCH  15  16
ENDBRANCH   1  15
TORSDOF 5
