REMARK  Name = ZINC62100948
REMARK  3 active torsions:
REMARK  status: ('A' for Active; 'I' for Inactive)
REMARK    1  A    between atoms: C_4  and  CA_7
REMARK    2  A    between atoms: CA_7  and  C_9
REMARK    3  A    between atoms: CA_7  and  N_12
REMARK                            x       y       z     vdW  Elec       q    Type
REMARK                         _______ _______ _______ _____ _____    ______ ____
ROOT
ATOM      1  N   UNL     1       2.893  -1.926  -2.534  0.00  0.00    -0.286 N 
ATOM      2  C   UNL     1       2.989  -2.592  -3.702  0.00  0.00    +0.303 C 
ATOM      3  O   UNL     1       2.969  -1.982  -4.753  0.00  0.00    -0.253 OA
ATOM      4  N   UNL     1       3.109  -3.935  -3.704  0.00  0.00    -0.284 N 
ATOM      5  C   UNL     1       3.332  -4.619  -4.976  0.00  0.00    +0.118 C 
ATOM      6  C   UNL     1       2.142  -5.536  -5.280  0.00  0.00    +0.115 C 
ATOM      7  C   UNL     1       2.300  -6.812  -4.485  0.00  0.00    +0.215 C 
ATOM      8  O   UNL     1       2.581  -7.845  -5.054  0.00  0.00    -0.276 OA
ATOM      9  N   UNL     1       2.132  -6.809  -3.159  0.00  0.00    -0.314 N 
ATOM     10  C   UNL     1       1.785  -5.569  -2.451  0.00  0.00    +0.123 C 
ATOM     11  C   UNL     1       3.017  -4.650  -2.433  0.00  0.00    +0.128 C 
ATOM     12  H   UNL     1       2.835  -2.416  -1.699  0.00  0.00    +0.151 HD
ATOM     13  H   UNL     1       2.240  -7.633  -2.660  0.00  0.00    +0.149 HD
ENDROOT
BRANCH   1  14
ATOM     14  CA  UNL     1       2.875  -0.461  -2.526  0.00  0.00    +0.191 C 
BRANCH  14  18
ATOM     15  C   UNL     1      -0.007   1.530   0.015  0.00  0.00    +0.000 C 
ATOM     16  C   UNL     1       1.429   2.058   0.002  0.00  0.00    +0.000 C 
ATOM     17  C   UNL     1       2.143   1.563  -1.258  0.00  0.00    +0.006 C 
ATOM     18  C   UNL     1       2.161   0.034  -1.266  0.00  0.00    +0.020 C 
ATOM     19  C   UNL     1       0.725  -0.494  -1.253  0.00  0.00    +0.006 C 
ATOM     20  C   UNL     1       0.012   0.000   0.007  0.00  0.00    +0.000 C 
ENDBRANCH  14  18
BRANCH  14  21
ATOM     21  C   UNL     1       4.289   0.059  -2.540  0.00  0.00    +0.376 C 
ATOM     22  O   UNL     1       5.222  -0.708  -2.371  0.00  0.00    -0.244 OA
ATOM     23  OXT UNL     1       4.501   1.246  -2.719  0.00  0.00    -0.244 OA
ENDBRANCH  14  21
ENDBRANCH   1  14
TORSDOF 3
