REMARK  Name = ZINC63213444
REMARK  5 active torsions:
REMARK  status: ('A' for Active; 'I' for Inactive)
REMARK    1  A    between atoms: C_3  and  C_22
REMARK    2  A    between atoms: C_4  and  S_8
REMARK    3  A    between atoms: S_8  and  N_11
REMARK    4  A    between atoms: N_11  and  C_12
REMARK    5  A    between atoms: C_19  and  N_21
REMARK                            x       y       z     vdW  Elec       q    Type
REMARK                         _______ _______ _______ _____ _____    ______ ____
ROOT
ATOM      1  N   UNL     1       4.608  -0.622  -1.533  0.00  0.00    -0.188 NA
ATOM      2  H   UNL     1       4.571  -1.330  -2.194  0.00  0.00    +0.148 HD
ENDROOT
BRANCH   1   3
ATOM      3  C   UNL     1       5.125   0.699  -1.901  0.00  0.00    +0.062 C 
ATOM      4  C   UNL     1       6.650   0.713  -1.686  0.00  0.00    +0.019 C 
ATOM      5  C   UNL     1       7.323   1.846  -2.412  0.00  0.00    +0.001 C 
ATOM      6  C   UNL     1       7.809   1.330  -3.782  0.00  0.00    -0.000 C 
ATOM      7  C   UNL     1       6.738   1.275  -4.766  0.00  0.00    -0.002 C 
ATOM      8  C   UNL     1       5.611   0.306  -4.355  0.00  0.00    -0.015 C 
ATOM      9  C   UNL     1       4.726   0.999  -3.359  0.00  0.00    -0.056 C 
BRANCH   9  10
ATOM     10  N   UNL     1       3.340   0.561  -3.572  0.00  0.00    +0.381 N 
ATOM     11  H   UNL     1       2.729   1.058  -2.942  0.00  0.00    -0.090 HD
ATOM     12  H   UNL     1       3.069   0.754  -4.525  0.00  0.00    -0.090 HD
ATOM     13  H   UNL     1       3.270  -0.430  -3.397  0.00  0.00    -0.090 HD
ENDBRANCH   9  10
ENDBRANCH   1   3
BRANCH   1  14
ATOM     14  S   UNL     1       4.086  -0.905   0.013  0.00  0.00    +0.060 S 
ATOM     15  O   UNL     1       5.106  -0.427   0.880  0.00  0.00    -0.153 OA
ATOM     16  O   UNL     1       3.626  -2.249   0.047  0.00  0.00    -0.153 OA
BRANCH  14  20
ATOM     17  C   UNL     1       0.456   1.728   0.709  0.00  0.00    +0.021 A 
ATOM     18  C   UNL     1       0.390   0.710  -0.220  0.00  0.00    +0.022 A 
ATOM     19  C   UNL     1       1.502  -0.104  -0.440  0.00  0.00    +0.078 A 
ATOM     20  C   UNL     1       2.677   0.118   0.283  0.00  0.00    +0.124 A 
ATOM     21  C   UNL     1       2.731   1.138   1.209  0.00  0.00    +0.049 A 
ATOM     22  C   UNL     1       1.623   1.943   1.422  0.00  0.00    +0.043 A 
ATOM     23 CL   UNL     1       1.699   3.226   2.589  0.00  0.00    -0.083 Cl
BRANCH  19  24
ATOM     24  C   UNL     1       1.440  -1.163  -1.402  0.00  0.00    +0.101 C 
ATOM     25  N   UNL     1       1.390  -2.003  -2.165  0.00  0.00    -0.191 NA
ENDBRANCH  19  24
ENDBRANCH  14  20
ENDBRANCH   1  14
TORSDOF 5
