REMARK  Name = ZINC04212346
REMARK  9 active torsions:
REMARK  status: ('A' for Active; 'I' for Inactive)
REMARK    1  A    between atoms: C_1  and  C_2
REMARK    2  A    between atoms: C_4  and  C_31
REMARK    3  A    between atoms: C_9  and  C_14
REMARK    4  A    between atoms: C_14  and  C_16
REMARK    5  A    between atoms: C_14  and  N_62
REMARK    6  A    between atoms: N_20  and  C_21
REMARK    7  A    between atoms: C_21  and  C_22
REMARK    8  A    between atoms: C_21  and  C_23
REMARK    9  A    between atoms: C_21  and  C_24
REMARK                            x       y       z     vdW  Elec       q    Type
REMARK                         _______ _______ _______ _____ _____    ______ ____
ROOT
ATOM      1  C   UNL     1      -2.564   0.958   0.048  0.00  0.00    +0.039 C 
ENDROOT
BRANCH   1  10
ATOM      2  C   UNL     1       4.772   2.214   0.518  0.00  0.00    +0.044 C 
ATOM      3  C   UNL     1       3.352   2.716   0.505  0.00  0.00    -0.050 A 
ATOM      4  C   UNL     1       3.101   4.075   0.632  0.00  0.00    +0.008 A 
ATOM      5  C   UNL     1       1.809   4.556   0.622  0.00  0.00    -0.026 A 
ATOM      6  C   UNL     1       0.744   3.671   0.485  0.00  0.00    +0.052 A 
ATOM      7  C   UNL     1       1.003   2.294   0.356  0.00  0.00    -0.001 A 
ATOM      8  C   UNL     1       2.322   1.828   0.369  0.00  0.00    +0.013 A 
ATOM      9  C   UNL     1      -0.125   1.371   0.212  0.00  0.00    +0.017 A 
ATOM     10  C   UNL     1      -1.381   1.880   0.202  0.00  0.00    +0.011 A 
ATOM     11  C   UNL     1      -1.587   3.269   0.340  0.00  0.00    +0.251 A 
ATOM     12  O   UNL     1      -2.725   3.706   0.334  0.00  0.00    -0.268 OA
ATOM     13  N   UNL     1      -0.558   4.125   0.473  0.00  0.00    -0.322 N 
ATOM     14  H   UNL     1      -0.739   5.104   0.564  0.00  0.00    +0.169 HD
ATOM     15  C   UNL     1       1.551   6.034   0.760  0.00  0.00    +0.046 C 
ENDBRANCH   1  10
BRANCH   1  22
ATOM     16  C   UNL     1      -2.791   1.090   2.464  0.00  0.00    -0.077 C 
ATOM     17  C   UNL     1      -3.732   1.025   3.636  0.00  0.00    -0.019 C 
ATOM     18  C   UNL     1      -3.968  -0.457   3.993  0.00  0.00    -0.002 C 
ATOM     19  C   UNL     1      -4.919  -1.097   3.090  0.00  0.00    -0.002 C 
ATOM     20  C   UNL     1      -4.429  -1.091   1.627  0.00  0.00    -0.019 C 
ATOM     21  C   UNL     1      -4.671   0.276   1.048  0.00  0.00    -0.077 C 
ATOM     22  N   UNL     1      -3.505   1.218   1.149  0.00  0.00    +0.389 N 
ATOM     23  H   UNL     1      -3.857   2.179   1.064  0.00  0.00    -0.080 HD
ENDBRANCH   1  22
BRANCH   1  24
ATOM     24  C   UNL     1      -3.265   1.253  -1.252  0.00  0.00    +0.143 A 
ATOM     25  N   UNL     1      -3.973   2.319  -1.536  0.00  0.00    -0.115 NA
ATOM     26  N   UNL     1      -4.406   2.200  -2.744  0.00  0.00    -0.023 NA
ATOM     27  N   UNL     1      -3.993   1.085  -3.238  0.00  0.00    -0.043 NA
ATOM     28  N   UNL     1      -3.282   0.475  -2.351  0.00  0.00    -0.225 N 
BRANCH  28  29
ATOM     29  C   UNL     1      -2.620  -0.823  -2.508  0.00  0.00    +0.059 C 
ATOM     30  C   UNL     1      -3.218  -1.824  -1.517  0.00  0.00    +0.036 C 
ATOM     31  C   UNL     1      -2.830  -1.332  -3.935  0.00  0.00    +0.036 C 
ATOM     32  C   UNL     1      -1.123  -0.668  -2.236  0.00  0.00    +0.036 C 
ENDBRANCH  28  29
ENDBRANCH   1  24
TORSDOF 4
