REMARK  Name = ZINC15523858
REMARK  14 active torsions:
REMARK  status: ('A' for Active; 'I' for Inactive)
REMARK    1  A    between atoms: C_1  and  C_2
REMARK    2  A    between atoms: C_2  and  C_3
REMARK    3  A    between atoms: C_3  and  C_4
REMARK    4  A    between atoms: C_4  and  N_5
REMARK    5  A    between atoms: C_6  and  N_29
REMARK    6  A    between atoms: C_7  and  N_14
REMARK    7  A    between atoms: N_14  and  C_15
REMARK    8  A    between atoms: C_15  and  C_16
REMARK    9  A    between atoms: C_17  and  C_19
REMARK   10  A    between atoms: C_19  and  N_57
REMARK   11  A    between atoms: C_20  and  C_21
REMARK   12  A    between atoms: C_20  and  N_57
REMARK   13  A    between atoms: C_22  and  C_23
REMARK   14  A    between atoms: C_22  and  N_57
REMARK                            x       y       z     vdW  Elec       q    Type
REMARK                         _______ _______ _______ _____ _____    ______ ____
ROOT
ATOM      1  N   UNL     1       7.194  -1.792  -2.841  0.00  0.00    -0.266 N 
ATOM      2  C   UNL     1       6.139  -0.957  -2.740  0.00  0.00    +0.203 C 
ATOM      3  O   UNL     1       5.637  -0.490  -3.742  0.00  0.00    -0.277 OA
ENDROOT
BRANCH   1   6
ATOM      4  N   UNL     1       7.664  -2.889  -6.316  0.00  0.00    -0.280 N 
ATOM      5  C   UNL     1       7.064  -2.662  -5.099  0.00  0.00    +0.127 A 
ATOM      6  C   UNL     1       7.782  -2.038  -4.100  0.00  0.00    +0.140 A 
ATOM      7  C   UNL     1       9.108  -1.645  -4.360  0.00  0.00    +0.277 A 
ATOM      8  O   UNL     1       9.764  -1.087  -3.496  0.00  0.00    -0.266 OA
ATOM      9  N   UNL     1       9.651  -1.896  -5.568  0.00  0.00    -0.273 N 
ATOM     10  H   UNL     1      10.596  -1.625  -5.750  0.00  0.00    +0.173 HD
ATOM     11  C   UNL     1       8.936  -2.506  -6.530  0.00  0.00    +0.331 A 
ATOM     12  O   UNL     1       9.448  -2.715  -7.612  0.00  0.00    -0.246 OA
BRANCH   5  13
ATOM     13  N   UNL     1       5.765  -3.054  -4.881  0.00  0.00    -0.343 N 
ATOM     14  H   UNL     1       5.336  -2.863  -4.032  0.00  0.00    +0.144 HD
ATOM     15  H   UNL     1       5.276  -3.522  -5.577  0.00  0.00    +0.144 HD
ENDBRANCH   5  13
BRANCH   4  16
ATOM     16  C   UNL     1       6.913  -3.550  -7.386  0.00  0.00    +0.128 C 
BRANCH  16  17
ATOM     17  C   UNL     1       6.188  -2.497  -8.226  0.00  0.00    +0.021 C 
BRANCH  17  19
ATOM     18  C   UNL     1       4.678  -2.135 -10.184  0.00  0.00    +0.004 C 
ATOM     19  C   UNL     1       5.404  -3.188  -9.344  0.00  0.00    -0.002 C 
ENDBRANCH  17  19
ENDBRANCH  16  17
ENDBRANCH   4  16
ENDBRANCH   1   6
BRANCH   1  20
ATOM     20  C   UNL     1       7.730  -2.443  -1.643  0.00  0.00    +0.110 C 
ATOM     21  C   UNL     1       7.084  -3.821  -1.480  0.00  0.00    +0.025 C 
ENDBRANCH   1  20
BRANCH   2  22
ATOM     22  C   UNL     1       5.585  -0.603  -1.385  0.00  0.00    +0.020 C 
BRANCH  22  23
ATOM     23  N   UNL     1       4.490   0.375  -1.561  0.00  0.00    +0.388 N 
ATOM     24  H   UNL     1       4.766   1.059  -2.276  0.00  0.00    -0.081 HD
BRANCH  23  25
ATOM     25  C   UNL     1       4.238   1.085  -0.289  0.00  0.00    -0.081 C 
ATOM     26  C   UNL     1       5.371   2.085  -0.052  0.00  0.00    -0.017 C 
ENDBRANCH  23  25
BRANCH  23  27
ATOM     27  C   UNL     1       3.262  -0.316  -2.006  0.00  0.00    -0.035 C 
BRANCH  27  28
ATOM     28  C   UNL     1       2.234   0.717  -2.389  0.00  0.00    -0.026 A 
ATOM     29  C   UNL     1       2.025   1.308  -3.590  0.00  0.00    +0.010 A 
ATOM     30  C   UNL     1       1.012   2.241  -3.711  0.00  0.00    +0.023 A 
ATOM     31  C   UNL     1       0.258   2.537  -2.623  0.00  0.00    +0.055 A 
ATOM     32  S   UNL     1       0.978   1.482  -1.376  0.00  0.00    -0.088 S 
ATOM     33 BR   UNL     1      -1.178   3.758  -2.466  0.00  0.00    -0.043 Br
ENDBRANCH  27  28
ENDBRANCH  23  27
ENDBRANCH  22  23
ENDBRANCH   2  22
TORSDOF 11
