REMARK  Name = ZINC15070627
REMARK  7 active torsions:
REMARK  status: ('A' for Active; 'I' for Inactive)
REMARK    1  A    between atoms: C_1  and  N_2
REMARK    2  A    between atoms: N_2  and  C_3
REMARK    3  A    between atoms: C_3  and  C_5
REMARK    4  A    between atoms: C_3  and  C_12
REMARK    5  A    between atoms: C_5  and  C_6
REMARK    6  A    between atoms: C_17  and  N_64
REMARK    7  A    between atoms: C_26  and  C_28
REMARK                            x       y       z     vdW  Elec       q    Type
REMARK                         _______ _______ _______ _____ _____    ______ ____
ROOT
ATOM      1  C   UNL     1       4.191  -1.171  -1.601  0.00  0.00    +0.083 C 
ENDROOT
BRANCH   1   2
ATOM      2  C   UNL     1       5.545  -1.619  -1.047  0.00  0.00    +0.006 C 
ATOM      3  C   UNL     1       6.041  -0.597  -0.019  0.00  0.00    -0.013 C 
ATOM      4  C   UNL     1       7.423  -1.018   0.485  0.00  0.00    -0.078 C 
ATOM      5  C   UNL     1       7.926  -2.104  -1.622  0.00  0.00    -0.078 C 
ATOM      6  C   UNL     1       6.559  -1.716  -2.190  0.00  0.00    -0.013 C 
ATOM      7  N   UNL     1       8.358  -1.068  -0.659  0.00  0.00    +0.382 N 
ATOM      8  H   UNL     1       8.358  -0.156  -1.130  0.00  0.00    -0.081 HD
BRANCH   7   9
ATOM      9  C   UNL     1       9.725  -1.362  -0.181  0.00  0.00    -0.060 C 
ATOM     10  C   UNL     1      10.201  -0.257   0.786  0.00  0.00    +0.020 C 
ATOM     11  C   UNL     1      11.679  -0.088   0.493  0.00  0.00    -0.046 A 
ATOM     12  C   UNL     1      12.678   0.514   1.241  0.00  0.00    +0.004 A 
ATOM     13  C   UNL     1      13.975   0.547   0.769  0.00  0.00    +0.000 A 
ATOM     14  C   UNL     1      14.279  -0.022  -0.454  0.00  0.00    +0.000 A 
ATOM     15  C   UNL     1      13.285  -0.622  -1.201  0.00  0.00    +0.004 A 
ATOM     16  C   UNL     1      11.983  -0.657  -0.729  0.00  0.00    -0.046 A 
ATOM     17  C   UNL     1      10.732  -1.245  -1.345  0.00  0.00    +0.020 C 
ENDBRANCH   7   9
ENDBRANCH   1   2
BRANCH   1  19
ATOM     18  C   UNL     1       3.522  -1.549  -4.019  0.00  0.00    +0.132 C 
ATOM     19  N   UNL     1       3.781  -2.077  -2.677  0.00  0.00    -0.297 N 
ATOM     20  C   UNL     1       3.642  -3.395  -2.433  0.00  0.00    +0.247 C 
ATOM     21  O   UNL     1       3.761  -3.819  -1.299  0.00  0.00    -0.270 OA
BRANCH  20  22
ATOM     22  C   UNL     1       3.345  -4.321  -3.537  0.00  0.00    +0.044 A 
ATOM     23  C   UNL     1       3.246  -5.743  -3.322  0.00  0.00    +0.020 A 
ATOM     24  C   UNL     1       2.967  -6.508  -4.395  0.00  0.00    +0.046 A 
ATOM     25  S   UNL     1       2.846  -5.320  -5.717  0.00  0.00    -0.104 S 
ATOM     26  C   UNL     1       3.156  -3.868  -4.826  0.00  0.00    +0.058 A 
ENDBRANCH  20  22
ENDBRANCH   1  19
BRANCH   1  27
ATOM     27  C   UNL     1       3.147  -1.202  -0.483  0.00  0.00    +0.058 C 
BRANCH  27  28
ATOM     28  C   UNL     1       1.851  -0.623  -0.990  0.00  0.00    -0.046 A 
ATOM     29  C   UNL     1       0.909  -1.447  -1.577  0.00  0.00    +0.004 A 
ATOM     30  C   UNL     1      -0.279  -0.917  -2.042  0.00  0.00    +0.000 A 
ATOM     31  C   UNL     1      -0.526   0.438  -1.920  0.00  0.00    +0.000 A 
ATOM     32  C   UNL     1       0.416   1.262  -1.333  0.00  0.00    +0.000 A 
ATOM     33  C   UNL     1       1.605   0.732  -0.868  0.00  0.00    +0.004 A 
ENDBRANCH  27  28
ENDBRANCH   1  27
TORSDOF 6
