REMARK  Name = ZINC42135332
REMARK  5 active torsions:
REMARK  status: ('A' for Active; 'I' for Inactive)
REMARK    1  A    between atoms: C_1  and  N_2
REMARK    2  A    between atoms: C_6  and  C_7
REMARK    3  A    between atoms: C_7  and  C_8
REMARK    4  A    between atoms: C_8  and  N_9
REMARK    5  A    between atoms: N_9  and  C_10
REMARK                            x       y       z     vdW  Elec       q    Type
REMARK                         _______ _______ _______ _____ _____    ______ ____
ROOT
ATOM      1  C   UNL     1       2.848   0.211   4.957  0.00  0.00    +0.173 C 
ATOM      2  C   UNL     1       2.842   0.107   6.465  0.00  0.00    +0.001 A 
ATOM      3  C   UNL     1       2.421  -0.875   7.334  0.00  0.00    +0.025 A 
ATOM      4  C   UNL     1       2.543  -0.688   8.700  0.00  0.00    +0.053 A 
ATOM      5  C   UNL     1       3.090   0.489   9.187  0.00  0.00    +0.139 A 
ATOM      6  C   UNL     1       3.513   1.474   8.316  0.00  0.00    +0.063 A 
ATOM      7  C   UNL     1       3.392   1.291   6.940  0.00  0.00    +0.041 A 
ATOM      8  N   UNL     1       3.740   2.123   5.875  0.00  0.00    -0.284 N 
ATOM      9  C   UNL     1       3.458   1.569   4.681  0.00  0.00    +0.239 C 
ATOM     10  O   UNL     1       3.654   2.062   3.590  0.00  0.00    -0.273 OA
ATOM     11  F   UNL     1       3.210   0.673  10.520  0.00  0.00    -0.204 F 
ATOM     12 BR   UNL     1       1.966  -2.033   9.897  0.00  0.00    -0.047 Br
ATOM     13  H   UNL     1       4.141   2.999   5.983  0.00  0.00    +0.155 HD
ENDROOT
BRANCH   1  14
ATOM     14  N   UNL     1       1.477   0.146   4.432  0.00  0.00    -0.302 NA
ATOM     15  H   UNL     1       1.010   1.034   4.531  0.00  0.00    +0.123 HD
BRANCH  14  16
ATOM     16  C   UNL     1       1.471  -0.299   3.032  0.00  0.00    +0.089 C 
BRANCH  16  17
ATOM     17  C   UNL     1       0.030  -0.354   2.521  0.00  0.00    +0.087 C 
BRANCH  17  23
ATOM     18  C   UNL     1      -0.018   1.461   0.010  0.00  0.00    +0.150 C 
ATOM     19  N   UNL     1       0.002  -0.004   0.002  0.00  0.00    -0.339 N 
ATOM     20  C   UNL     1       0.009  -0.810  -1.104  0.00  0.00    +0.104 A 
ATOM     21  C   UNL     1       0.029  -2.081  -0.660  0.00  0.00    +0.101 A 
ATOM     22  N   UNL     1       0.034  -2.052   0.681  0.00  0.00    -0.350 N 
ATOM     23  C   UNL     1       0.023  -0.811   1.085  0.00  0.00    +0.088 A 
ATOM     24  H   UNL     1       0.048  -2.831   1.260  0.00  0.00    +0.166 HD
ENDBRANCH  17  23
ENDBRANCH  16  17
ENDBRANCH  14  16
ENDBRANCH   1  14
TORSDOF 4
