REMARK  Name = ZINC63492521
REMARK  7 active torsions:
REMARK  status: ('A' for Active; 'I' for Inactive)
REMARK    1  A    between atoms: C_1  and  N_2
REMARK    2  A    between atoms: C_3  and  C_12
REMARK    3  A    between atoms: N_8  and  C_11
REMARK    4  A    between atoms: C_12  and  N_13
REMARK    5  A    between atoms: C_14  and  C_16
REMARK    6  A    between atoms: C_16  and  C_17
REMARK    7  A    between atoms: C_17  and  C_18
REMARK                            x       y       z     vdW  Elec       q    Type
REMARK                         _______ _______ _______ _____ _____    ______ ____
ROOT
ATOM      1  N   UNL     1      -1.557   0.075   2.400  0.00  0.00    -0.314 N 
ATOM      2  C   UNL     1      -1.656  -0.028   3.740  0.00  0.00    +0.213 C 
ATOM      3  O   UNL     1      -1.688  -1.121   4.264  0.00  0.00    -0.276 OA
ATOM      4  H   UNL     1      -1.531   0.949   1.981  0.00  0.00    +0.149 HD
ENDROOT
BRANCH   1   5
ATOM      5  C   UNL     1      -1.489  -1.135   1.576  0.00  0.00    +0.127 C 
BRANCH   5   8
ATOM      6  C   UNL     1      -0.004   1.470   0.037  0.00  0.00    +0.134 C 
ATOM      7  N   UNL     1       0.028   0.005   0.034  0.00  0.00    -0.283 N 
ATOM      8  C   UNL     1      -1.226  -0.745   0.120  0.00  0.00    +0.103 C 
ATOM      9  C   UNL     1      -1.126  -2.010  -0.736  0.00  0.00    +0.120 C 
ATOM     10  C   UNL     1       0.186  -2.697  -0.452  0.00  0.00    +0.225 C 
ATOM     11  O   UNL     1       0.255  -3.907  -0.478  0.00  0.00    -0.275 OA
ATOM     12  N   UNL     1       1.281  -1.967  -0.170  0.00  0.00    -0.229 N 
ATOM     13  C   UNL     1       1.208  -0.631  -0.054  0.00  0.00    +0.311 C 
ATOM     14  O   UNL     1       2.235   0.018  -0.024  0.00  0.00    -0.252 OA
ATOM     15  C   UNL     1       2.570  -2.639   0.009  0.00  0.00    +0.142 C 
ENDBRANCH   5   8
ENDBRANCH   1   5
BRANCH   2  16
ATOM     16  C   UNL     1      -1.726   1.216   4.588  0.00  0.00    +0.099 C 
BRANCH  16  17
ATOM     17  C   UNL     1      -1.833   0.823   6.063  0.00  0.00    +0.056 C 
BRANCH  17  18
ATOM     18  C   UNL     1      -1.905   2.086   6.924  0.00  0.00    +0.174 C 
ATOM     19  N   UNL     1      -0.666   2.862   6.783  0.00  0.00    -0.363 N 
ATOM     20  C   UNL     1      -0.120   2.942   7.962  0.00  0.00    +0.060 A 
ATOM     21  C   UNL     1       1.110   3.579   8.452  0.00  0.00    +0.027 A 
ATOM     22  C   UNL     1       1.428   3.494   9.759  0.00  0.00    +0.002 A 
ATOM     23  C   UNL     1       0.626   2.813  10.692  0.00  0.00    +0.002 A 
ATOM     24  C   UNL     1      -0.521   2.193  10.349  0.00  0.00    +0.027 A 
ATOM     25  C   UNL     1      -0.969   2.221   8.949  0.00  0.00    +0.060 A 
ATOM     26  N   UNL     1      -2.008   1.723   8.343  0.00  0.00    -0.363 N 
ATOM     27  H   UNL     1      -2.720   1.208   8.753  0.00  0.00    +0.162 HD
ATOM     28  H   UNL     1      -0.319   3.244   5.963  0.00  0.00    +0.162 HD
ENDBRANCH  17  18
ENDBRANCH  16  17
ENDBRANCH   2  16
TORSDOF 5
