REMARK  Name = ZINC60375532
REMARK  9 active torsions:
REMARK  status: ('A' for Active; 'I' for Inactive)
REMARK    1  A    between atoms: C_1  and  C_2
REMARK    2  A    between atoms: C_2  and  C_3
REMARK    3  A    between atoms: C_2  and  C_4
REMARK    4  A    between atoms: C_4  and  C_5
REMARK    5  A    between atoms: C_5  and  C_6
REMARK    6  A    between atoms: N_8  and  C_9
REMARK    7  A    between atoms: C_9  and  C_10
REMARK    8  A    between atoms: N_15  and  C_18
REMARK    9  A    between atoms: C_18  and  C_19
REMARK                            x       y       z     vdW  Elec       q    Type
REMARK                         _______ _______ _______ _____ _____    ______ ____
ROOT
ATOM      1  C   UNL     1      -4.417  -5.911  -0.339  0.00  0.00    +0.233 C 
ATOM      2  O   UNL     1      -3.361  -6.499  -0.432  0.00  0.00    -0.274 OA
ATOM      3  N   UNL     1      -5.576  -6.600  -0.353  0.00  0.00    -0.298 N 
ATOM      4  C   UNL     1      -6.868  -5.905  -0.247  0.00  0.00    +0.123 C 
ATOM      5  C   UNL     1      -7.687  -6.569   0.865  0.00  0.00    +0.104 C 
ATOM      6  N   UNL     1      -7.777  -8.013   0.609  0.00  0.00    -0.294 NA
ATOM      7  C   UNL     1      -6.451  -8.644   0.646  0.00  0.00    +0.104 C 
ATOM      8  C   UNL     1      -5.581  -8.065  -0.481  0.00  0.00    +0.123 C 
ENDROOT
BRANCH   1   9
ATOM      9  C   UNL     1      -4.435  -4.410  -0.207  0.00  0.00    +0.200 C 
BRANCH   9  12
ATOM     10  C   UNL     1      -2.829  -2.579  -0.111  0.00  0.00    +0.213 C 
ATOM     11  O   UNL     1      -3.760  -1.808  -0.006  0.00  0.00    -0.276 OA
ATOM     12  N   UNL     1      -3.060  -3.903  -0.217  0.00  0.00    -0.307 N 
ATOM     13  H   UNL     1      -2.316  -4.520  -0.301  0.00  0.00    +0.149 HD
BRANCH  10  14
ATOM     14  C   UNL     1      -1.416  -2.058  -0.121  0.00  0.00    +0.096 C 
BRANCH  14  15
ATOM     15  C   UNL     1      -1.433  -0.534   0.013  0.00  0.00    +0.012 C 
BRANCH  15  17
ATOM     16  C   UNL     1      -0.019   1.526   0.010  0.00  0.00    +0.007 C 
ATOM     17  C   UNL     1       0.002  -0.004   0.002  0.00  0.00    -0.017 C 
ATOM     18  C   UNL     1       0.742  -0.511   1.242  0.00  0.00    +0.007 C 
ENDBRANCH  15  17
ENDBRANCH  14  15
ENDBRANCH  10  14
ENDBRANCH   9  12
ENDBRANCH   1   9
BRANCH   6  19
ATOM     19  C   UNL     1      -8.695  -8.660   1.555  0.00  0.00    +0.138 C 
BRANCH  19  20
ATOM     20  C   UNL     1      -8.953 -10.078   1.115  0.00  0.00    +0.037 A 
ATOM     21  C   UNL     1      -8.541 -11.139   1.893  0.00  0.00    +0.093 A 
ATOM     22  C   UNL     1      -8.789 -12.445   1.470  0.00  0.00    +0.259 A 
ATOM     23  O   UNL     1      -8.428 -13.389   2.155  0.00  0.00    -0.267 OA
ATOM     24  N   UNL     1      -9.437 -12.667   0.287  0.00  0.00    -0.264 N 
ATOM     25  C   UNL     1      -9.752 -13.887  -0.261  0.00  0.00    +0.104 A 
ATOM     26  C   UNL     1     -10.390 -13.973  -1.428  0.00  0.00    +0.067 A 
ATOM     27  S   UNL     1     -10.602 -12.252  -1.857  0.00  0.00    -0.059 S 
ATOM     28  C   UNL     1      -9.810 -11.557  -0.422  0.00  0.00    +0.158 A 
ATOM     29  N   UNL     1      -9.585 -10.328  -0.028  0.00  0.00    -0.338 N 
ATOM     30  H   UNL     1      -9.882  -9.588  -0.581  0.00  0.00    +0.168 HD
ENDBRANCH  19  20
ENDBRANCH   6  19
TORSDOF 7
