REMARK  Name = ZINC59135175
REMARK  5 active torsions:
REMARK  status: ('A' for Active; 'I' for Inactive)
REMARK    1  A    between atoms: C_2  and  C_3
REMARK    2  A    between atoms: C_3  and  O_4
REMARK    3  A    between atoms: O_4  and  C_5
REMARK    4  A    between atoms: C_8  and  C_12
REMARK    5  A    between atoms: N_19  and  C_22
REMARK                            x       y       z     vdW  Elec       q    Type
REMARK                         _______ _______ _______ _____ _____    ______ ____
ROOT
ATOM      1  C   UNL     1       2.734   7.474   0.173  0.00  0.00    +0.026 C 
ATOM      2  C   UNL     1       2.347   8.186   1.297  0.00  0.00    +0.102 C 
ATOM      3  C   UNL     1       1.848   7.507   2.503  0.00  0.00    +0.276 C 
ATOM      4  O   UNL     1       1.752   6.161   2.549  0.00  0.00    -0.268 OA
ATOM      5  N   UNL     1       1.496   8.245   3.542  0.00  0.00    -0.123 NA
ATOM      6  C   UNL     1       1.580   9.573   3.526  0.00  0.00    +0.340 C 
ATOM      7  O   UNL     1       1.236  10.184   4.523  0.00  0.00    -0.250 OA
ATOM      8  N   UNL     1       2.022  10.277   2.473  0.00  0.00    -0.188 N 
ATOM      9  C   UNL     1       2.423   9.660   1.341  0.00  0.00    +0.264 C 
ATOM     10  O   UNL     1       2.829  10.297   0.387  0.00  0.00    -0.269 OA
ENDROOT
BRANCH   1  14
ATOM     11  C   UNL     1       1.758   3.372  -0.174  0.00  0.00    +0.158 A 
ATOM     12  C   UNL     1       0.804   4.275   0.289  0.00  0.00    +0.085 A 
ATOM     13  C   UNL     1       1.114   5.606   0.403  0.00  0.00    +0.031 A 
ATOM     14  C   UNL     1       2.397   6.057   0.053  0.00  0.00    -0.021 A 
ATOM     15  C   UNL     1       3.354   5.142  -0.412  0.00  0.00    +0.031 A 
ATOM     16  C   UNL     1       3.033   3.813  -0.517  0.00  0.00    +0.085 A 
ATOM     17 CL   UNL     1       4.218   2.678  -1.085  0.00  0.00    -0.080 Cl
ATOM     18 CL   UNL     1      -0.782   3.715   0.721  0.00  0.00    -0.080 Cl
BRANCH  11  19
ATOM     19  O   UNL     1       1.445   2.057  -0.285  0.00  0.00    -0.477 OA
BRANCH  19  20
ATOM     20  C   UNL     1       1.684   1.234   0.859  0.00  0.00    +0.317 C 
BRANCH  20  22
ATOM     21  C   UNL     1       0.973  -1.256   0.318  0.00  0.00    +0.007 C 
ATOM     22  C   UNL     1       1.288  -0.151   0.558  0.00  0.00    -0.065 C 
ENDBRANCH  20  22
ENDBRANCH  19  20
ENDBRANCH  11  19
ENDBRANCH   1  14
BRANCH   8  23
ATOM     23  C   UNL     1       2.075  11.675   2.552  0.00  0.00    +0.046 A 
ATOM     24  C   UNL     1       1.025  12.439   2.060  0.00  0.00    +0.027 A 
ATOM     25  C   UNL     1       1.079  13.817   2.139  0.00  0.00    +0.040 A 
ATOM     26  C   UNL     1       2.179  14.437   2.708  0.00  0.00    +0.124 A 
ATOM     27  C   UNL     1       3.227  13.677   3.198  0.00  0.00    +0.040 A 
ATOM     28  C   UNL     1       3.174  12.299   3.127  0.00  0.00    +0.027 A 
ATOM     29  F   UNL     1       2.229  15.785   2.783  0.00  0.00    -0.205 F 
ENDBRANCH   8  23
TORSDOF 5
