REMARK  Name = ZINC32947824
REMARK  9 active torsions:
REMARK  status: ('A' for Active; 'I' for Inactive)
REMARK    1  A    between atoms: C_1  and  C_2
REMARK    2  A    between atoms: C_2  and  O_3
REMARK    3  A    between atoms: O_3  and  C_4
REMARK    4  A    between atoms: C_7  and  C_10
REMARK    5  A    between atoms: C_10  and  C_12
REMARK    6  A    between atoms: C_13  and  N_26
REMARK    7  A    between atoms: N_17  and  C_18
REMARK    8  A    between atoms: C_22  and  C_25
REMARK    9  A    between atoms: C_23  and  C_24
REMARK                            x       y       z     vdW  Elec       q    Type
REMARK                         _______ _______ _______ _____ _____    ______ ____
ROOT
ATOM      1  C   UNL     1       3.877   2.179   5.579  0.00  0.00    +0.102 A 
ATOM      2  C   UNL     1       2.518   2.113   5.918  0.00  0.00    +0.136 A 
ATOM      3  N   UNL     1       1.698   1.618   5.022  0.00  0.00    -0.210 NA
ATOM      4  C   UNL     1       2.131   1.185   3.848  0.00  0.00    +0.165 A 
ATOM      5  S   UNL     1       3.839   1.482   3.934  0.00  0.00    -0.047 S 
ATOM      6  N   UNL     1       1.405   0.639   2.812  0.00  0.00    -0.293 N 
ATOM      7  H   UNL     1       1.921   0.274   1.911  0.00  0.00    +0.154 HD
ENDROOT
BRANCH   6   8
ATOM      8  C   UNL     1       0.014   0.548   2.906  0.00  0.00    +0.036 A 
ATOM      9  C   UNL     1      -0.637   0.987   4.051  0.00  0.00    +0.023 A 
ATOM     10  C   UNL     1      -2.012   0.897   4.141  0.00  0.00    +0.002 A 
ATOM     11  C   UNL     1      -2.741   0.369   3.091  0.00  0.00    +0.004 A 
ATOM     12  C   UNL     1      -2.097  -0.065   1.946  0.00  0.00    -0.046 A 
ATOM     13  C   UNL     1      -0.722   0.018   1.853  0.00  0.00    -0.026 A 
ATOM     14  C   UNL     1      -0.020  -0.460   0.608  0.00  0.00    +0.046 C 
ATOM     15  C   UNL     1      -2.896  -0.634   0.803  0.00  0.00    +0.044 C 
ENDBRANCH   6   8
BRANCH   2  16
ATOM     16  N   UNL     1       2.058   2.559   7.147  0.00  0.00    -0.342 N 
ATOM     17  H   UNL     1       0.987   2.497   7.389  0.00  0.00    +0.144 HD
ATOM     18  H   UNL     1       2.765   2.975   7.880  0.00  0.00    +0.144 HD
ENDBRANCH   2  16
BRANCH   1  19
ATOM     19  C   UNL     1       4.968   2.660   6.328  0.00  0.00    +0.203 C 
ATOM     20  O   UNL     1       4.777   3.216   7.396  0.00  0.00    -0.286 OA
BRANCH  19  24
ATOM     21  C   UNL     1       8.927   2.179   4.862  0.00  0.00    +0.121 A 
ATOM     22  C   UNL     1       7.910   1.356   4.394  0.00  0.00    +0.046 A 
ATOM     23  C   UNL     1       6.625   1.509   4.867  0.00  0.00    +0.015 A 
ATOM     24  C   UNL     1       6.346   2.492   5.818  0.00  0.00    +0.023 A 
ATOM     25  C   UNL     1       7.369   3.321   6.282  0.00  0.00    +0.015 A 
ATOM     26  C   UNL     1       8.653   3.159   5.809  0.00  0.00    +0.046 A 
BRANCH  21  27
ATOM     27  O   UNL     1      10.192   2.025   4.393  0.00  0.00    -0.492 OA
BRANCH  27  29
ATOM     28  C   UNL     1      12.540   2.583   4.276  0.00  0.00    +0.048 C 
ATOM     29  C   UNL     1      11.189   2.905   4.917  0.00  0.00    +0.225 C 
ENDBRANCH  27  29
ENDBRANCH  21  27
ENDBRANCH  19  24
ENDBRANCH   1  19
TORSDOF 6
