REMARK  Name = ZINC16276689
REMARK  10 active torsions:
REMARK  status: ('A' for Active; 'I' for Inactive)
REMARK    1  A    between atoms: C_1  and  C_2
REMARK    2  A    between atoms: N_11  and  C_15
REMARK    3  A    between atoms: C_15  and  C_16
REMARK    4  A    between atoms: C_16  and  O_18
REMARK    5  A    between atoms: O_18  and  C_19
REMARK    6  A    between atoms: C_19  and  C_20
REMARK    7  A    between atoms: C_20  and  O_22
REMARK    8  A    between atoms: O_22  and  C_23
REMARK    9  A    between atoms: C_23  and  C_24
REMARK   10  A    between atoms: C_23  and  C_25
REMARK                            x       y       z     vdW  Elec       q    Type
REMARK                         _______ _______ _______ _____ _____    ______ ____
ROOT
ATOM      1  C   UNL     1       1.709   9.471  -0.552  0.00  0.00    +0.010 C 
ATOM      2  C   UNL     1       2.933  10.222  -1.079  0.00  0.00    +0.018 C 
ATOM      3  C   UNL     1       2.925  11.655  -0.540  0.00  0.00    +0.006 C 
ATOM      4  C   UNL     1       4.160  12.398  -1.051  0.00  0.00    +0.000 C 
ATOM      5  C   UNL     1       5.424  11.687  -0.563  0.00  0.00    +0.003 C 
ATOM      6  C   UNL     1       5.442  10.255  -1.103  0.00  0.00    +0.035 C 
ATOM      7  C   UNL     1       4.202   9.512  -0.618  0.00  0.00    +0.115 C 
ATOM      8  C   UNL     1       4.221   8.083  -1.111  0.00  0.00    +0.247 C 
ATOM      9  O   UNL     1       4.220   7.704  -2.262  0.00  0.00    -0.273 OA
ATOM     10  N   UNL     1       4.236   7.319   0.001  0.00  0.00    -0.213 N 
ATOM     11  C   UNL     1       4.237   8.066   1.112  0.00  0.00    +0.310 C 
ATOM     12  O   UNL     1       4.254   7.604   2.236  0.00  0.00    -0.252 OA
ATOM     13  N   UNL     1       4.217   9.385   0.845  0.00  0.00    -0.285 N 
ATOM     14  H   UNL     1       4.214  10.109   1.491  0.00  0.00    +0.151 HD
ENDROOT
BRANCH  10  15
ATOM     15  C   UNL     1       4.256   5.854  -0.007  0.00  0.00    +0.238 C 
BRANCH  15  16
ATOM     16  C   UNL     1       2.842   5.333   0.004  0.00  0.00    +0.326 C 
ATOM     17  O   UNL     1       1.913   6.105   0.017  0.00  0.00    -0.249 OA
BRANCH  16  18
ATOM     18  O   UNL     1       2.615   4.010  -0.001  0.00  0.00    -0.452 OA
BRANCH  18  19
ATOM     19  C   UNL     1       1.228   3.579   0.010  0.00  0.00    +0.352 C 
BRANCH  19  20
ATOM     20  C   UNL     1       1.170   2.073   0.002  0.00  0.00    +0.345 C 
ATOM     21  O   UNL     1       2.192   1.429  -0.011  0.00  0.00    -0.247 OA
BRANCH  20  22
ATOM     22  O   UNL     1      -0.018   1.448   0.010  0.00  0.00    -0.460 OA
BRANCH  22  23
ATOM     23  C   UNL     1       0.002  -0.004   0.002  0.00  0.00    +0.170 C 
ATOM     24  C   UNL     1       0.023  -0.522   1.442  0.00  0.00    +0.052 C 
ATOM     25  C   UNL     1      -1.247  -0.527  -0.710  0.00  0.00    +0.052 C 
ENDBRANCH  22  23
ENDBRANCH  20  22
ENDBRANCH  19  20
ENDBRANCH  18  19
ENDBRANCH  16  18
ENDBRANCH  15  16
ENDBRANCH  10  15
TORSDOF 7
