REMARK  Name = ZINC15306776
REMARK  10 active torsions:
REMARK  status: ('A' for Active; 'I' for Inactive)
REMARK    1  A    between atoms: C_1  and  C_2
REMARK    2  A    between atoms: C_2  and  N_3
REMARK    3  A    between atoms: N_3  and  C_4
REMARK    4  A    between atoms: N_3  and  C_6
REMARK    5  A    between atoms: C_4  and  C_5
REMARK    6  A    between atoms: C_9  and  C_13
REMARK    7  A    between atoms: C_10  and  O_12
REMARK    8  A    between atoms: N_21  and  C_24
REMARK    9  A    between atoms: C_30  and  C_32
REMARK   10  A    between atoms: C_30  and  C_33
REMARK                            x       y       z     vdW  Elec       q    Type
REMARK                         _______ _______ _______ _____ _____    ______ ____
ROOT
ATOM      1  C   UNL     1      -3.924  -1.640   4.536  0.00  0.00    -0.023 C 
ATOM      2  C   UNL     1      -4.770  -0.444   5.019  0.00  0.00    +0.077 C 
ATOM      3  C   UNL     1      -4.590  -0.426   6.561  0.00  0.00    +0.086 C 
ATOM      4  C   UNL     1      -5.976  -0.742   7.078  0.00  0.00    +0.229 C 
ATOM      5  O   UNL     1      -6.286  -0.827   8.247  0.00  0.00    -0.275 OA
ATOM      6  N   UNL     1      -6.808  -0.912   6.043  0.00  0.00    -0.210 N 
ATOM      7  C   UNL     1      -6.236  -0.761   4.826  0.00  0.00    +0.229 C 
ATOM      8  O   UNL     1      -6.795  -0.863   3.756  0.00  0.00    -0.275 OA
ATOM      9  C   UNL     1      -3.640  -1.604   6.863  0.00  0.00    +0.045 C 
ATOM     10  N   UNL     1      -2.906  -1.840   5.599  0.00  0.00    +0.395 N 
ATOM     11  C   UNL     1      -2.679  -1.237   7.996  0.00  0.00    +0.002 C 
ATOM     12  H   UNL     1      -2.541  -2.780   5.566  0.00  0.00    -0.083 HD
ATOM     13  H   UNL     1      -2.161  -1.166   5.505  0.00  0.00    -0.083 HD
ENDROOT
BRANCH   1  17
ATOM     14  C   UNL     1      -2.027  -0.720   0.814  0.00  0.00    +0.033 A 
ATOM     15  C   UNL     1      -1.418  -0.373   2.014  0.00  0.00    +0.023 A 
ATOM     16  C   UNL     1      -2.033  -0.672   3.214  0.00  0.00    +0.007 A 
ATOM     17  C   UNL     1      -3.256  -1.316   3.225  0.00  0.00    -0.019 A 
ATOM     18  C   UNL     1      -3.870  -1.664   2.030  0.00  0.00    +0.120 A 
ATOM     19  C   UNL     1      -3.258  -1.362   0.823  0.00  0.00    +0.068 A 
BRANCH  18  20
ATOM     20  O   UNL     1      -5.072  -2.297   2.043  0.00  0.00    -0.506 OA
ATOM     21  H   UNL     1      -5.830  -1.704   1.949  0.00  0.00    +0.292 HD
ENDBRANCH  18  20
BRANCH  14  22
ATOM     22  N   UNL     1      -1.405  -0.418  -0.399  0.00  0.00    -0.330 N 
BRANCH  22  24
ATOM     23  C   UNL     1      -0.322   1.774  -0.435  0.00  0.00    +0.024 C 
ATOM     24  C   UNL     1      -0.106   0.260  -0.408  0.00  0.00    +0.102 C 
ENDBRANCH  22  24
BRANCH  22  25
ATOM     25  C   UNL     1      -2.052  -0.778  -1.664  0.00  0.00    +0.102 C 
ATOM     26  C   UNL     1      -1.610  -2.183  -2.080  0.00  0.00    +0.024 C 
ENDBRANCH  22  25
ENDBRANCH  14  22
ENDBRANCH   1  17
BRANCH   6  27
ATOM     27  C   UNL     1      -8.167  -1.216   6.204  0.00  0.00    +0.044 A 
ATOM     28  C   UNL     1      -8.656  -2.450   5.796  0.00  0.00    +0.024 A 
ATOM     29  C   UNL     1      -9.996  -2.747   5.956  0.00  0.00    +0.002 A 
ATOM     30  C   UNL     1     -10.848  -1.817   6.523  0.00  0.00    +0.000 A 
ATOM     31  C   UNL     1     -10.364  -0.588   6.931  0.00  0.00    +0.002 A 
ATOM     32  C   UNL     1      -9.024  -0.287   6.778  0.00  0.00    +0.024 A 
ENDBRANCH   6  27
BRANCH   9  33
ATOM     33  C   UNL     1      -4.429  -2.837   7.220  0.00  0.00    +0.346 C 
ATOM     34  O   UNL     1      -4.319  -3.847   6.547  0.00  0.00    -0.248 OA
ATOM     35  O   UNL     1      -5.177  -2.824   8.183  0.00  0.00    -0.248 OA
ENDBRANCH   9  33
TORSDOF 7
