REMARK  Name = ZINC14263853
REMARK  5 active torsions:
REMARK  status: ('A' for Active; 'I' for Inactive)
REMARK    1  A    between atoms: C_1  and  C_2
REMARK    2  A    between atoms: C_2  and  C_4
REMARK    3  A    between atoms: C_2  and  N_11
REMARK    4  A    between atoms: C_12  and  C_14
REMARK    5  A    between atoms: C_14  and  N_15
REMARK                            x       y       z     vdW  Elec       q    Type
REMARK                         _______ _______ _______ _____ _____    ______ ____
ROOT
ATOM      1  N   UNL     1       3.005  -5.733   2.781  0.00  0.00    -0.215 N 
ATOM      2  C   UNL     1       2.317  -5.998   3.910  0.00  0.00    +0.251 C 
ATOM      3  O   UNL     1       1.863  -5.197   4.698  0.00  0.00    -0.272 OA
ATOM      4  C   UNL     1       2.228  -7.506   3.985  0.00  0.00    +0.138 C 
ATOM      5  C   UNL     1       2.921  -8.009   5.246  0.00  0.00    +0.040 C 
ATOM      6  C   UNL     1       2.648  -9.512   5.385  0.00  0.00    +0.008 C 
ATOM      7  C   UNL     1       1.169  -9.707   5.710  0.00  0.00    +0.035 C 
ATOM      8  C   UNL     1       0.306  -8.968   4.722  0.00  0.00    -0.042 A 
ATOM      9  C   UNL     1       0.793  -7.949   3.932  0.00  0.00    -0.012 A 
ATOM     10  C   UNL     1      -0.058  -7.298   3.049  0.00  0.00    +0.006 A 
ATOM     11  C   UNL     1      -1.384  -7.665   2.953  0.00  0.00    +0.000 A 
ATOM     12  C   UNL     1      -1.872  -8.689   3.743  0.00  0.00    +0.000 A 
ATOM     13  C   UNL     1      -1.029  -9.336   4.623  0.00  0.00    +0.004 A 
ATOM     14  N   UNL     1       2.948  -7.963   2.789  0.00  0.00    -0.281 N 
ATOM     15  C   UNL     1       3.365  -6.856   2.147  0.00  0.00    +0.310 C 
ATOM     16  O   UNL     1       3.996  -6.873   1.109  0.00  0.00    -0.252 OA
ATOM     17  H   UNL     1       3.094  -8.883   2.515  0.00  0.00    +0.152 HD
ENDROOT
BRANCH   1  18
ATOM     18  C   UNL     1       3.325  -4.383   2.310  0.00  0.00    +0.213 C 
BRANCH  18  20
ATOM     19  N   UNL     1       2.301  -2.665   0.855  0.00  0.00    -0.307 N 
ATOM     20  C   UNL     1       2.222  -3.891   1.409  0.00  0.00    +0.231 C 
ATOM     21  O   UNL     1       1.263  -4.598   1.183  0.00  0.00    -0.274 OA
ATOM     22  H   UNL     1       3.068  -2.099   1.036  0.00  0.00    +0.149 HD
BRANCH  19  24
ATOM     23  C   UNL     1       1.472  -2.685  -1.446  0.00  0.00    +0.033 C 
ATOM     24  C   UNL     1       1.228  -2.186  -0.020  0.00  0.00    +0.100 C 
BRANCH  24  25
ATOM     25  C   UNL     1       1.208  -0.679  -0.013  0.00  0.00    -0.027 A 
ATOM     26  C   UNL     1       0.002  -0.004   0.002  0.00  0.00    +0.006 A 
ATOM     27  C   UNL     1      -0.017   1.378   0.010  0.00  0.00    +0.015 A 
ATOM     28  C   UNL     1       1.172   2.086   0.002  0.00  0.00    +0.018 A 
ATOM     29  C   UNL     1       2.379   1.410  -0.013  0.00  0.00    +0.015 A 
ATOM     30  C   UNL     1       2.396   0.028  -0.021  0.00  0.00    +0.006 A 
ATOM     31 BR   UNL     1       1.147   3.976   0.013  0.00  0.00    -0.050 Br
ENDBRANCH  24  25
ENDBRANCH  19  24
ENDBRANCH  18  20
ENDBRANCH   1  18
TORSDOF 4
