REMARK  Name = ZINC43216254
REMARK  10 active torsions:
REMARK  status: ('A' for Active; 'I' for Inactive)
REMARK    1  A    between atoms: C_4  and  C_7
REMARK    2  A    between atoms: C_7  and  S_8
REMARK    3  A    between atoms: S_8  and  C_9
REMARK    4  A    between atoms: C_9  and  C_10
REMARK    5  A    between atoms: C_10  and  C_12
REMARK    6  A    between atoms: C_10  and  N_24
REMARK    7  A    between atoms: N_14  and  C_15
REMARK    8  A    between atoms: C_18  and  N_21
REMARK    9  A    between atoms: C_25  and  C_27
REMARK   10  A    between atoms: C_30  and  C_32
REMARK                            x       y       z     vdW  Elec       q    Type
REMARK                         _______ _______ _______ _____ _____    ______ ____
ROOT
ATOM      1  C   UNL     1       6.407  -2.217   2.857  0.00  0.00    +0.169 C 
ENDROOT
BRANCH   1   2
ATOM      2  C   UNL     1       7.716  -2.944   2.689  0.00  0.00    +0.238 C 
ATOM      3  O   UNL     1       8.737  -2.467   3.138  0.00  0.00    -0.273 OA
ATOM      4  N   UNL     1       7.753  -4.124   2.039  0.00  0.00    -0.284 N 
ATOM      5  H   UNL     1       6.928  -4.538   1.738  0.00  0.00    +0.155 HD
BRANCH   4   6
ATOM      6  C   UNL     1       8.979  -4.752   1.798  0.00  0.00    +0.034 A 
ATOM      7  C   UNL     1       9.177  -5.466   0.623  0.00  0.00    +0.025 A 
ATOM      8  C   UNL     1      10.389  -6.085   0.388  0.00  0.00    +0.034 A 
ATOM      9  C   UNL     1      11.405  -5.995   1.321  0.00  0.00    +0.126 A 
ATOM     10  C   UNL     1      11.212  -5.285   2.492  0.00  0.00    +0.034 A 
ATOM     11  C   UNL     1      10.004  -4.659   2.730  0.00  0.00    +0.025 A 
BRANCH   9  12
ATOM     12  N   UNL     1      12.703  -6.659   1.065  0.00  0.00    +0.056 N 
ATOM     13  O   UNL     1      12.873  -7.280   0.042  0.00  0.00    -0.126 OA
ATOM     14  O   UNL     1      13.593  -6.581   1.880  0.00  0.00    -0.126 OA
ENDBRANCH   9  12
ENDBRANCH   4   6
ENDBRANCH   1   2
BRANCH   1  15
ATOM     15  N   UNL     1       6.633  -0.969   3.592  0.00  0.00    -0.298 N 
ATOM     16  C   UNL     1       5.627  -0.409   4.293  0.00  0.00    +0.266 C 
ATOM     17  O   UNL     1       4.533  -0.939   4.316  0.00  0.00    -0.268 OA
ATOM     18  H   UNL     1       7.505  -0.546   3.573  0.00  0.00    +0.150 HD
BRANCH  16  19
ATOM     19  C   UNL     1       5.854   0.846   5.032  0.00  0.00    +0.163 A 
ATOM     20  C   UNL     1       4.940   1.518   5.784  0.00  0.00    +0.230 A 
ATOM     21  O   UNL     1       5.560   2.602   6.277  0.00  0.00    -0.447 OA
ATOM     22  C   UNL     1       6.827   2.596   5.840  0.00  0.00    +0.197 A 
ATOM     23  N   UNL     1       7.018   1.547   5.097  0.00  0.00    -0.208 NA
BRANCH  22  24
ATOM     24  C   UNL     1       7.866   3.638   6.162  0.00  0.00    +0.058 C 
ATOM     25  C   UNL     1       8.079   3.696   7.677  0.00  0.00    +0.009 C 
ATOM     26  C   UNL     1       9.078   4.811   8.000  0.00  0.00    -0.018 C 
ATOM     27  C   UNL     1       8.557   6.135   7.437  0.00  0.00    -0.083 C 
ATOM     28  N   UNL     1       8.399   6.023   5.982  0.00  0.00    +0.380 N 
ATOM     29  C   UNL     1       7.390   5.005   5.666  0.00  0.00    -0.070 C 
ATOM     30  H   UNL     1       8.106   6.913   5.607  0.00  0.00    -0.086 HD
ATOM     31  H   UNL     1       9.281   5.760   5.568  0.00  0.00    -0.086 HD
ENDBRANCH  22  24
ENDBRANCH  16  19
ENDBRANCH   1  15
BRANCH   1  32
ATOM     32  C   UNL     1       5.820  -1.899   1.480  0.00  0.00    +0.101 C 
BRANCH  32  33
ATOM     33  S   UNL     1       4.244  -1.023   1.683  0.00  0.00    -0.154 S 
BRANCH  33  34
ATOM     34  C   UNL     1       3.687  -0.724  -0.017  0.00  0.00    +0.104 C 
BRANCH  34  38
ATOM     35  C   UNL     1      -0.048   1.349   0.050  0.00  0.00    +0.000 A 
ATOM     36  C   UNL     1       1.137   2.060   0.034  0.00  0.00    +0.000 A 
ATOM     37  C   UNL     1       2.346   1.390   0.013  0.00  0.00    +0.004 A 
ATOM     38  C   UNL     1       2.369   0.007   0.007  0.00  0.00    -0.038 A 
ATOM     39  C   UNL     1       1.184  -0.704   0.025  0.00  0.00    +0.004 A 
ATOM     40  C   UNL     1      -0.024  -0.033   0.045  0.00  0.00    +0.000 A 
ENDBRANCH  34  38
ENDBRANCH  33  34
ENDBRANCH  32  33
ENDBRANCH   1  32
TORSDOF 10
