REMARK  Name = ZINC02948054
REMARK  13 active torsions:
REMARK  status: ('A' for Active; 'I' for Inactive)
REMARK    1  A    between atoms: C_1  and  C_2
REMARK    2  A    between atoms: C_7  and  S_8
REMARK    3  A    between atoms: S_8  and  N_11
REMARK    4  A    between atoms: N_11  and  C_12
REMARK    5  A    between atoms: N_11  and  C_31
REMARK    6  A    between atoms: C_12  and  C_13
REMARK    7  A    between atoms: C_13  and  C_15
REMARK    8  A    between atoms: C_13  and  O_30
REMARK    9  A    between atoms: C_15  and  N_68
REMARK   10  A    between atoms: C_16  and  C_17
REMARK   11  A    between atoms: C_16  and  N_68
REMARK   12  A    between atoms: C_23  and  C_24
REMARK   13  A    between atoms: C_23  and  N_68
REMARK                            x       y       z     vdW  Elec       q    Type
REMARK                         _______ _______ _______ _____ _____    ______ ____
ROOT
ATOM      1  C   UNL     1      -4.348   0.995  -4.143  0.00  0.00    +0.117 C 
ENDROOT
BRANCH   1   2
ATOM      2  O   UNL     1      -4.562   0.015  -3.126  0.00  0.00    -0.392 OA
ATOM      3  H   UNL     1      -4.469  -0.898  -3.433  0.00  0.00    +0.210 HD
ENDBRANCH   1   2
BRANCH   1   4
ATOM      4  C   UNL     1      -2.982   0.766  -4.793  0.00  0.00    +0.161 C 
BRANCH   4   5
ATOM      5  N   UNL     1      -1.928   0.966  -3.795  0.00  0.00    -0.201 N 
BRANCH   5   6
ATOM      6  C   UNL     1      -1.449   2.251  -3.533  0.00  0.00    +0.051 A 
ATOM      7  C   UNL     1      -2.309   3.230  -3.054  0.00  0.00    +0.025 A 
ATOM      8  C   UNL     1      -1.831   4.499  -2.791  0.00  0.00    +0.002 A 
ATOM      9  C   UNL     1      -0.500   4.798  -3.014  0.00  0.00    +0.000 A 
ATOM     10  C   UNL     1       0.359   3.827  -3.496  0.00  0.00    +0.002 A 
ATOM     11  C   UNL     1      -0.112   2.555  -3.756  0.00  0.00    +0.025 A 
ENDBRANCH   5   6
BRANCH   5  12
ATOM     12  S   UNL     1      -1.304  -0.333  -2.979  0.00  0.00    +0.075 S 
ATOM     13  O   UNL     1      -1.463  -1.461  -3.829  0.00  0.00    -0.150 OA
ATOM     14  O   UNL     1      -0.036   0.071  -2.480  0.00  0.00    -0.150 OA
BRANCH  12  21
ATOM     15  C   UNL     1      -1.584   1.599  -0.669  0.00  0.00    +0.046 C 
ATOM     16  C   UNL     1      -2.396   0.333  -0.568  0.00  0.00    -0.024 A 
ATOM     17  C   UNL     1      -3.203   0.116   0.532  0.00  0.00    +0.005 A 
ATOM     18  C   UNL     1      -3.948  -1.045   0.625  0.00  0.00    +0.000 A 
ATOM     19  C   UNL     1      -3.885  -1.989  -0.383  0.00  0.00    +0.002 A 
ATOM     20  C   UNL     1      -3.081  -1.769  -1.486  0.00  0.00    +0.029 A 
ATOM     21  C   UNL     1      -2.333  -0.611  -1.576  0.00  0.00    +0.112 A 
ENDBRANCH  12  21
ENDBRANCH   5  12
ENDBRANCH   4   5
ENDBRANCH   1   4
BRANCH   1  22
ATOM     22  C   UNL     1      -5.444   0.877  -5.204  0.00  0.00    -0.045 C 
BRANCH  22  23
ATOM     23  N   UNL     1      -6.644   1.604  -4.738  0.00  0.00    +0.387 N 
ATOM     24  H   UNL     1      -6.399   2.590  -4.588  0.00  0.00    -0.081 HD
BRANCH  23  25
ATOM     25  C   UNL     1      -7.711   1.524  -5.757  0.00  0.00    -0.042 C 
BRANCH  25  26
ATOM     26  C   UNL     1      -8.833   2.449  -5.361  0.00  0.00    -0.064 A 
ATOM     27  C   UNL     1      -9.877   1.977  -4.587  0.00  0.00    +0.002 A 
ATOM     28  C   UNL     1     -10.903   2.827  -4.219  0.00  0.00    +0.000 A 
ATOM     29  C   UNL     1     -10.891   4.146  -4.633  0.00  0.00    +0.000 A 
ATOM     30  C   UNL     1      -9.850   4.616  -5.412  0.00  0.00    +0.000 A 
ATOM     31  C   UNL     1      -8.821   3.767  -5.775  0.00  0.00    +0.002 A 
ENDBRANCH  25  26
ENDBRANCH  23  25
BRANCH  23  32
ATOM     32  C   UNL     1      -7.119   1.029  -3.462  0.00  0.00    -0.042 C 
BRANCH  32  33
ATOM     33  C   UNL     1      -6.841   2.018  -2.360  0.00  0.00    -0.064 A 
ATOM     34  C   UNL     1      -6.044   1.655  -1.290  0.00  0.00    +0.002 A 
ATOM     35  C   UNL     1      -5.784   2.565  -0.282  0.00  0.00    +0.000 A 
ATOM     36  C   UNL     1      -6.330   3.833  -0.338  0.00  0.00    +0.000 A 
ATOM     37  C   UNL     1      -7.132   4.194  -1.405  0.00  0.00    +0.000 A 
ATOM     38  C   UNL     1      -7.387   3.287  -2.416  0.00  0.00    +0.002 A 
ENDBRANCH  32  33
ENDBRANCH  23  32
ENDBRANCH  22  23
ENDBRANCH   1  22
TORSDOF 12
