REMARK  Name = ZINC38683180
REMARK  9 active torsions:
REMARK  status: ('A' for Active; 'I' for Inactive)
REMARK    1  A    between atoms: C_1  and  O_2
REMARK    2  A    between atoms: O_2  and  C_3
REMARK    3  A    between atoms: C_3  and  C_5
REMARK    4  A    between atoms: C_8  and  C_11
REMARK    5  A    between atoms: C_16  and  O_25
REMARK    6  A    between atoms: C_20  and  N_24
REMARK    7  A    between atoms: C_21  and  C_22
REMARK    8  A    between atoms: O_25  and  C_26
REMARK    9  A    between atoms: C_26  and  C_28
REMARK                            x       y       z     vdW  Elec       q    Type
REMARK                         _______ _______ _______ _____ _____    ______ ____
ROOT
ATOM      1  C   UNL     1      -1.355  -6.398   0.008  0.00  0.00    +0.098 C 
ATOM      2  C   UNL     1      -2.088  -6.870   1.236  0.00  0.00    +0.008 A 
ATOM      3  C   UNL     1      -1.412  -6.955   2.441  0.00  0.00    +0.012 A 
ATOM      4  C   UNL     1      -2.067  -7.385   3.577  0.00  0.00    +0.047 A 
ATOM      5  C   UNL     1      -3.409  -7.735   3.514  0.00  0.00    +0.135 A 
ATOM      6  C   UNL     1      -4.088  -7.652   2.309  0.00  0.00    +0.093 A 
ATOM      7  C   UNL     1      -3.427  -7.218   1.167  0.00  0.00    +0.138 A 
ATOM      8  O   UNL     1      -4.106  -7.142  -0.004  0.00  0.00    -0.441 OA
ATOM      9  C   UNL     1      -3.434  -7.107  -1.167  0.00  0.00    +0.199 C 
ATOM     10  C   UNL     1      -2.130  -6.762  -1.227  0.00  0.00    +0.098 C 
ENDROOT
BRANCH   1  14
ATOM     11  C   UNL     1      -0.885  -2.151   0.184  0.00  0.00    +0.059 A 
ATOM     12  C   UNL     1       0.238  -2.979   0.128  0.00  0.00    +0.015 A 
ATOM     13  C   UNL     1       0.079  -4.348   0.072  0.00  0.00    +0.005 A 
ATOM     14  C   UNL     1      -1.190  -4.901   0.070  0.00  0.00    -0.035 A 
ATOM     15  C   UNL     1      -2.306  -4.086   0.125  0.00  0.00    +0.005 A 
ATOM     16  C   UNL     1      -2.162  -2.716   0.188  0.00  0.00    +0.015 A 
BRANCH  11  17
ATOM     17  C   UNL     1      -0.722  -0.684   0.245  0.00  0.00    +0.339 C 
ATOM     18  O   UNL     1      -1.700   0.034   0.299  0.00  0.00    -0.245 OA
BRANCH  17  20
ATOM     19  C   UNL     1       0.594   1.283   0.302  0.00  0.00    +0.280 C 
ATOM     20  O   UNL     1       0.511  -0.142   0.241  0.00  0.00    -0.464 OA
ENDBRANCH  17  20
ENDBRANCH  11  17
ENDBRANCH   1  14
BRANCH   9  21
ATOM     21  N   UNL     1      -4.093  -7.431  -2.327  0.00  0.00    -0.328 N 
ATOM     22  H   UNL     1      -5.030  -7.681  -2.299  0.00  0.00    +0.145 HD
ATOM     23  H   UNL     1      -3.622  -7.411  -3.175  0.00  0.00    +0.145 HD
ENDBRANCH   9  21
BRANCH  10  24
ATOM     24  C   UNL     1      -1.472  -6.743  -2.499  0.00  0.00    +0.101 C 
ATOM     25  N   UNL     1      -0.950  -6.729  -3.508  0.00  0.00    -0.191 NA
ENDBRANCH  10  24
BRANCH   5  26
ATOM     26  O   UNL     1      -4.055  -8.160   4.631  0.00  0.00    -0.422 OA
BRANCH  26  27
ATOM     27  C   UNL     1      -4.287  -7.261   5.608  0.00  0.00    +0.344 C 
ATOM     28  O   UNL     1      -4.016  -6.090   5.433  0.00  0.00    -0.245 OA
BRANCH  27  29
ATOM     29  C   UNL     1      -4.871  -7.700   6.892  0.00  0.00    +0.059 A 
ATOM     30  C   UNL     1      -5.178  -9.046   7.099  0.00  0.00    +0.015 A 
ATOM     31  C   UNL     1      -5.722  -9.449   8.301  0.00  0.00    +0.001 A 
ATOM     32  C   UNL     1      -5.964  -8.523   9.300  0.00  0.00    +0.000 A 
ATOM     33  C   UNL     1      -5.662  -7.187   9.101  0.00  0.00    +0.001 A 
ATOM     34  C   UNL     1      -5.112  -6.771   7.906  0.00  0.00    +0.015 A 
ENDBRANCH  27  29
ENDBRANCH  26  27
ENDBRANCH   5  26
TORSDOF 8
