REMARK  Name = ZINC62319348
REMARK  10 active torsions:
REMARK  status: ('A' for Active; 'I' for Inactive)
REMARK    1  A    between atoms: C_1  and  C_2
REMARK    2  A    between atoms: C_2  and  N_3
REMARK    3  A    between atoms: N_3  and  C_4
REMARK    4  A    between atoms: N_3  and  C_6
REMARK    5  A    between atoms: C_4  and  C_5
REMARK    6  A    between atoms: C_6  and  C_7
REMARK    7  A    between atoms: C_7  and  C_8
REMARK    8  A    between atoms: C_16  and  C_18
REMARK    9  A    between atoms: C_18  and  C_19
REMARK   10  A    between atoms: C_19  and  C_20
REMARK                            x       y       z     vdW  Elec       q    Type
REMARK                         _______ _______ _______ _____ _____    ______ ____
ROOT
ATOM      1  C   UNL     1       2.345  -3.579  -0.355  0.00  0.00    +0.214 C 
ATOM      2  O   UNL     1       1.949  -4.362   0.482  0.00  0.00    -0.276 OA
ATOM      3  N   UNL     1       3.091  -4.017  -1.389  0.00  0.00    -0.299 N 
ATOM      4  C   UNL     1       3.583  -3.079  -2.407  0.00  0.00    +0.126 C 
ATOM      5  C   UNL     1       5.107  -3.216  -2.504  0.00  0.00    +0.126 C 
ATOM      6  N   UNL     1       5.443  -4.641  -2.633  0.00  0.00    -0.298 N 
ATOM      7  C   UNL     1       4.951  -5.579  -1.614  0.00  0.00    +0.126 C 
ATOM      8  C   UNL     1       3.432  -5.441  -1.514  0.00  0.00    +0.126 C 
ATOM      9  C   UNL     1       6.189  -5.080  -3.666  0.00  0.00    +0.216 C 
ATOM     10  O   UNL     1       6.589  -4.296  -4.501  0.00  0.00    -0.276 OA
ENDROOT
BRANCH   1  11
ATOM     11  C   UNL     1       2.004  -2.115  -0.240  0.00  0.00    +0.077 C 
BRANCH  11  12
ATOM     12  C   UNL     1       1.156  -1.887   1.013  0.00  0.00    -0.070 C 
BRANCH  12  13
ATOM     13  N   UNL     1       0.823  -0.461   1.126  0.00  0.00    +0.380 N 
ATOM     14  H   UNL     1       1.671   0.085   1.109  0.00  0.00    -0.082 HD
BRANCH  13  16
ATOM     15  C   UNL     1      -0.264   1.445   0.037  0.00  0.00    -0.017 C 
ATOM     16  C   UNL     1      -0.034  -0.067  -0.001  0.00  0.00    -0.082 C 
ENDBRANCH  13  16
BRANCH  13  17
ATOM     17  C   UNL     1       0.111  -0.222   2.389  0.00  0.00    -0.082 C 
ATOM     18  C   UNL     1       1.053  -0.495   3.563  0.00  0.00    -0.017 C 
ENDBRANCH  13  17
ENDBRANCH  12  13
ENDBRANCH  11  12
ENDBRANCH   1  11
BRANCH   9  19
ATOM     19  C   UNL     1       6.526  -6.544  -3.785  0.00  0.00    +0.096 C 
BRANCH  19  20
ATOM     20  C   UNL     1       7.375  -6.772  -5.037  0.00  0.00    +0.014 C 
BRANCH  20  21
ATOM     21  C   UNL     1       7.717  -8.258  -5.157  0.00  0.00    +0.012 C 
ATOM     22  C   UNL     1       8.638  -8.675  -3.999  0.00  0.00    +0.028 C 
ATOM     23  C   UNL     1       9.243 -10.071  -4.282  0.00  0.00    +0.166 C 
ATOM     24  S   UNL     1       9.272 -10.134  -6.120  0.00  0.00    -0.031 S 
ATOM     25  O   UNL     1       8.421 -11.184  -6.560  0.00  0.00    -0.174 OA
ATOM     26  O   UNL     1      10.621 -10.095  -6.563  0.00  0.00    -0.174 OA
ATOM     27  C   UNL     1       8.471  -8.518  -6.493  0.00  0.00    +0.169 C 
ENDBRANCH  20  21
ENDBRANCH  19  20
ENDBRANCH   9  19
TORSDOF 8
