REMARK  Name = ZINC36587118
REMARK  17 active torsions:
REMARK  status: ('A' for Active; 'I' for Inactive)
REMARK    1  A    between atoms: C_1  and  C_2
REMARK    2  A    between atoms: C_2  and  C_3
REMARK    3  A    between atoms: C_2  and  C_4
REMARK    4  A    between atoms: C_2  and  N_5
REMARK    5  A    between atoms: C_6  and  C_8
REMARK    6  A    between atoms: C_8  and  C_10
REMARK    7  A    between atoms: C_8  and  N_19
REMARK    8  A    between atoms: C_13  and  O_18
REMARK    9  A    between atoms: C_14  and  O_16
REMARK   10  A    between atoms: O_16  and  C_17
REMARK   11  A    between atoms: N_19  and  C_30
REMARK   12  A    between atoms: C_20  and  C_22
REMARK   13  A    between atoms: C_26  and  O_29
REMARK   14  A    between atoms: C_27  and  O_28
REMARK   15  A    between atoms: C_30  and  C_31
REMARK   16  A    between atoms: C_30  and  C_32
REMARK   17  A    between atoms: C_30  and  C_33
REMARK                            x       y       z     vdW  Elec       q    Type
REMARK                         _______ _______ _______ _____ _____    ______ ____
ROOT
ATOM      1  C   UNL     1       7.010  -0.318  -0.186  0.00  0.00    +0.193 C 
ENDROOT
BRANCH   1   2
ATOM      2  C   UNL     1       8.164   0.030   0.719  0.00  0.00    -0.014 A 
ATOM      3  C   UNL     1       8.652   1.323   0.747  0.00  0.00    +0.010 A 
ATOM      4  C   UNL     1       9.711   1.648   1.575  0.00  0.00    +0.049 A 
ATOM      5  C   UNL     1      10.284   0.676   2.380  0.00  0.00    +0.158 A 
ATOM      6  C   UNL     1       9.792  -0.625   2.352  0.00  0.00    +0.162 A 
ATOM      7  C   UNL     1       8.728  -0.943   1.523  0.00  0.00    +0.055 A 
BRANCH   6   8
ATOM      8  O   UNL     1      10.351  -1.583   3.140  0.00  0.00    -0.491 OA
ATOM      9  C   UNL     1       9.794  -2.896   3.058  0.00  0.00    +0.277 C 
ENDBRANCH   6   8
BRANCH   5  10
ATOM     10  O   UNL     1      11.325   0.993   3.195  0.00  0.00    -0.503 OA
ATOM     11  H   UNL     1      11.059   1.286   4.077  0.00  0.00    +0.292 HD
ENDBRANCH   5  10
ENDBRANCH   1   2
BRANCH   1  13
ATOM     12  N   UNL     1       5.883  -1.853   1.392  0.00  0.00    -0.309 N 
ATOM     13  C   UNL     1       5.825  -0.731   0.648  0.00  0.00    +0.239 C 
ATOM     14  O   UNL     1       4.819  -0.053   0.649  0.00  0.00    -0.273 OA
ATOM     15  H   UNL     1       6.687  -2.394   1.391  0.00  0.00    +0.149 HD
BRANCH  12  17
ATOM     16  C   UNL     1       3.519  -2.476   1.294  0.00  0.00    +0.031 C 
ATOM     17  C   UNL     1       4.730  -2.254   2.203  0.00  0.00    +0.026 C 
ATOM     18  C   UNL     1       4.412  -1.153   3.217  0.00  0.00    +0.031 C 
ATOM     19  C   UNL     1       5.055  -3.552   2.944  0.00  0.00    +0.031 C 
ENDBRANCH  12  17
ENDBRANCH   1  13
BRANCH   1  20
ATOM     20  N   UNL     1       6.655   0.850  -0.996  0.00  0.00    -0.277 N 
ATOM     21  C   UNL     1       6.461   2.046  -0.405  0.00  0.00    +0.252 C 
ATOM     22  O   UNL     1       6.197   2.102   0.781  0.00  0.00    -0.270 OA
BRANCH  21  23
ATOM     23  C   UNL     1       6.567   3.286  -1.197  0.00  0.00    +0.082 A 
ATOM     24  C   UNL     1       5.783   3.459  -2.341  0.00  0.00    +0.017 A 
ATOM     25  C   UNL     1       5.885   4.619  -3.077  0.00  0.00    +0.005 A 
ATOM     26  C   UNL     1       6.763   5.618  -2.691  0.00  0.00    +0.049 A 
ATOM     27  C   UNL     1       7.547   5.462  -1.561  0.00  0.00    +0.159 A 
ATOM     28  C   UNL     1       7.451   4.298  -0.803  0.00  0.00    +0.171 A 
BRANCH  28  29
ATOM     29  O   UNL     1       8.213   4.143   0.309  0.00  0.00    -0.503 OA
ATOM     30  H   UNL     1       9.072   3.732   0.143  0.00  0.00    +0.292 HD
ENDBRANCH  28  29
BRANCH  27  31
ATOM     31  O   UNL     1       8.407   6.447  -1.188  0.00  0.00    -0.503 OA
ATOM     32  H   UNL     1       8.021   7.100  -0.588  0.00  0.00    +0.292 HD
ENDBRANCH  27  31
ENDBRANCH  21  23
BRANCH  20  33
ATOM     33  C   UNL     1       6.511   0.719  -2.448  0.00  0.00    +0.030 C 
ATOM     34  C   UNL     1       7.205  -0.562  -2.915  0.00  0.00    +0.031 C 
ATOM     35  C   UNL     1       5.026   0.655  -2.809  0.00  0.00    +0.031 C 
ATOM     36  C   UNL     1       7.152   1.926  -3.135  0.00  0.00    +0.031 C 
ENDBRANCH  20  33
ENDBRANCH   1  20
TORSDOF 10
