REMARK  Name = ZINC08891449
REMARK  8 active torsions:
REMARK  status: ('A' for Active; 'I' for Inactive)
REMARK    1  A    between atoms: C_1  and  C_2
REMARK    2  A    between atoms: C_2  and  C_3
REMARK    3  A    between atoms: C_3  and  C_23
REMARK    4  A    between atoms: N_6  and  C_10
REMARK    5  A    between atoms: C_10  and  C_11
REMARK    6  A    between atoms: N_13  and  C_14
REMARK    7  A    between atoms: C_15  and  C_22
REMARK    8  A    between atoms: C_17  and  C_21
REMARK                            x       y       z     vdW  Elec       q    Type
REMARK                         _______ _______ _______ _____ _____    ______ ____
ROOT
ATOM      1  C   UNL     1       2.037  -4.723   0.029  0.00  0.00    +0.138 C 
ATOM      2  C   UNL     1       2.634  -3.458  -0.555  0.00  0.00    +0.251 C 
ATOM      3  O   UNL     1       2.955  -2.454   0.045  0.00  0.00    -0.272 OA
ATOM      4  N   UNL     1       2.734  -3.680  -1.881  0.00  0.00    -0.215 N 
ATOM      5  C   UNL     1       2.288  -4.897  -2.212  0.00  0.00    +0.310 C 
ATOM      6  O   UNL     1       2.278  -5.327  -3.349  0.00  0.00    -0.252 OA
ATOM      7  N   UNL     1       1.852  -5.593  -1.146  0.00  0.00    -0.281 N 
ATOM      8  H   UNL     1       1.488  -6.492  -1.149  0.00  0.00    +0.152 HD
ENDROOT
BRANCH   1   9
ATOM      9  C   UNL     1       0.712  -4.429   0.684  0.00  0.00    -0.015 A 
ATOM     10  C   UNL     1      -0.455  -4.495  -0.055  0.00  0.00    +0.009 A 
ATOM     11  C   UNL     1      -1.669  -4.222   0.544  0.00  0.00    +0.039 A 
ATOM     12  C   UNL     1      -1.720  -3.892   1.888  0.00  0.00    +0.123 A 
ATOM     13  C   UNL     1      -0.551  -3.827   2.628  0.00  0.00    +0.039 A 
ATOM     14  C   UNL     1       0.663  -4.096   2.025  0.00  0.00    +0.009 A 
ATOM     15  F   UNL     1      -2.907  -3.629   2.476  0.00  0.00    -0.205 F 
ENDBRANCH   1   9
BRANCH   1  17
ATOM     16  C   UNL     1       4.336  -5.648   0.340  0.00  0.00    +0.007 C 
ATOM     17  C   UNL     1       3.001  -5.361   1.030  0.00  0.00    +0.037 C 
ENDBRANCH   1  17
BRANCH   4  18
ATOM     18  C   UNL     1       3.265  -2.709  -2.840  0.00  0.00    +0.214 C 
BRANCH  18  19
ATOM     19  C   UNL     1       4.753  -2.905  -2.982  0.00  0.00    +0.235 C 
ATOM     20  O   UNL     1       5.314  -3.770  -2.344  0.00  0.00    -0.274 OA
ATOM     21  N   UNL     1       5.460  -2.118  -3.817  0.00  0.00    -0.283 N 
ATOM     22  H   UNL     1       5.002  -1.476  -4.382  0.00  0.00    +0.155 HD
BRANCH  21  23
ATOM     23  C   UNL     1       6.854  -2.228  -3.870  0.00  0.00    +0.055 A 
ATOM     24  C   UNL     1       7.452  -3.056  -4.812  0.00  0.00    -0.028 A 
ATOM     25  C   UNL     1       8.828  -3.158  -4.866  0.00  0.00    +0.008 A 
ATOM     26  C   UNL     1       9.611  -2.447  -3.975  0.00  0.00    -0.049 A 
ATOM     27  C   UNL     1       9.020  -1.627  -3.032  0.00  0.00    +0.025 A 
ATOM     28  C   UNL     1       7.644  -1.515  -2.977  0.00  0.00    +0.063 A 
ATOM     29 CL   UNL     1       6.902  -0.484  -1.793  0.00  0.00    -0.082 Cl
ATOM     30  C   UNL     1      11.113  -2.566  -4.033  0.00  0.00    +0.044 C 
ATOM     31  C   UNL     1       6.599  -3.836  -5.779  0.00  0.00    +0.046 C 
ENDBRANCH  21  23
ENDBRANCH  18  19
ENDBRANCH   4  18
TORSDOF 5
