REMARK  Name = ZINC45446740
REMARK  10 active torsions:
REMARK  status: ('A' for Active; 'I' for Inactive)
REMARK    1  A    between atoms: C_1  and  C_2
REMARK    2  A    between atoms: C_3  and  C_31
REMARK    3  A    between atoms: C_4  and  C_13
REMARK    4  A    between atoms: N_5  and  C_7
REMARK    5  A    between atoms: C_13  and  N_14
REMARK    6  A    between atoms: C_17  and  C_21
REMARK    7  A    between atoms: C_17  and  C_22
REMARK    8  A    between atoms: C_25  and  C_28
REMARK    9  A    between atoms: C_28  and  C_29
REMARK   10  A    between atoms: C_28  and  C_30
REMARK                            x       y       z     vdW  Elec       q    Type
REMARK                         _______ _______ _______ _____ _____    ______ ____
ROOT
ATOM      1  N   UNL     1      -2.051  -3.456  -1.585  0.00  0.00    -0.218 N 
ATOM      2  C   UNL     1      -2.782  -4.095  -0.651  0.00  0.00    +0.251 C 
ATOM      3  O   UNL     1      -2.374  -4.635   0.355  0.00  0.00    -0.272 OA
ATOM      4  C   UNL     1      -4.221  -3.998  -1.118  0.00  0.00    +0.135 C 
ATOM      5  N   UNL     1      -4.125  -3.244  -2.381  0.00  0.00    -0.281 N 
ATOM      6  C   UNL     1      -2.821  -2.969  -2.566  0.00  0.00    +0.310 C 
ATOM      7  O   UNL     1      -2.390  -2.351  -3.519  0.00  0.00    -0.252 OA
ATOM      8  C   UNL     1      -4.802  -5.391  -1.366  0.00  0.00    +0.047 C 
ATOM      9  H   UNL     1      -4.858  -2.993  -2.963  0.00  0.00    +0.152 HD
ENDROOT
BRANCH   4  10
ATOM     10  C   UNL     1      -5.055  -3.245  -0.114  0.00  0.00    -0.015 A 
ATOM     11  C   UNL     1      -4.725  -3.285   1.228  0.00  0.00    +0.006 A 
ATOM     12  C   UNL     1      -5.489  -2.594   2.149  0.00  0.00    +0.004 A 
ATOM     13  C   UNL     1      -6.585  -1.863   1.728  0.00  0.00    -0.045 A 
ATOM     14  C   UNL     1      -6.915  -1.822   0.387  0.00  0.00    +0.004 A 
ATOM     15  C   UNL     1      -6.147  -2.509  -0.535  0.00  0.00    +0.006 A 
BRANCH  13  16
ATOM     16  C   UNL     1      -7.419  -1.111   2.733  0.00  0.00    +0.013 C 
ATOM     17  C   UNL     1      -7.403   0.381   2.394  0.00  0.00    +0.012 C 
ATOM     18  C   UNL     1      -8.858  -1.628   2.690  0.00  0.00    +0.012 C 
ENDBRANCH  13  16
ENDBRANCH   4  10
BRANCH   1  19
ATOM     19  C   UNL     1      -0.595  -3.308  -1.532  0.00  0.00    +0.174 C 
BRANCH  19  23
ATOM     20  C   UNL     1       0.382   0.397   1.870  0.00  0.00    +0.069 C 
ATOM     21  C   UNL     1       0.183  -0.345   0.574  0.00  0.00    +0.078 A 
ATOM     22  C   UNL     1      -0.170  -1.707   0.443  0.00  0.00    +0.097 A 
ATOM     23  C   UNL     1      -0.248  -1.980  -0.908  0.00  0.00    +0.080 A 
ATOM     24  N   UNL     1       0.044  -0.842  -1.566  0.00  0.00    -0.234 N 
ATOM     25  N   UNL     1       0.303   0.160  -0.624  0.00  0.00    -0.170 NA
BRANCH  24  26
ATOM     26  C   UNL     1       0.077  -0.686  -2.959  0.00  0.00    +0.066 A 
ATOM     27  C   UNL     1       0.689  -1.647  -3.752  0.00  0.00    +0.028 A 
ATOM     28  C   UNL     1       0.721  -1.490  -5.124  0.00  0.00    +0.002 A 
ATOM     29  C   UNL     1       0.143  -0.377  -5.707  0.00  0.00    +0.000 A 
ATOM     30  C   UNL     1      -0.468   0.582  -4.920  0.00  0.00    +0.002 A 
ATOM     31  C   UNL     1      -0.507   0.428  -3.548  0.00  0.00    +0.028 A 
ENDBRANCH  24  26
BRANCH  22  32
ATOM     32  C   UNL     1      -0.404  -2.631   1.511  0.00  0.00    +0.103 C 
ATOM     33  N   UNL     1      -0.590  -3.364   2.359  0.00  0.00    -0.191 NA
ENDBRANCH  22  32
ENDBRANCH  19  23
ENDBRANCH   1  19
TORSDOF 6
