REMARK  Name = ZINC02083331
REMARK  10 active torsions:
REMARK  status: ('A' for Active; 'I' for Inactive)
REMARK    1  A    between atoms: C_4  and  C_7
REMARK    2  A    between atoms: N_18  and  C_26
REMARK    3  A    between atoms: C_19  and  C_20
REMARK    4  A    between atoms: C_26  and  C_27
REMARK    5  A    between atoms: C_27  and  C_29
REMARK    6  A    between atoms: C_27  and  O_33
REMARK    7  A    between atoms: C_29  and  N_60
REMARK    8  A    between atoms: C_30  and  C_31
REMARK    9  A    between atoms: C_30  and  N_60
REMARK   10  A    between atoms: C_31  and  O_32
REMARK                            x       y       z     vdW  Elec       q    Type
REMARK                         _______ _______ _______ _____ _____    ______ ____
ROOT
ATOM      1  C   UNL     1      -0.848   7.653  -0.022  0.00  0.00    +0.015 A 
ATOM      2  C   UNL     1      -1.277   6.248  -0.034  0.00  0.00    +0.009 A 
ATOM      3  C   UNL     1      -2.540   5.628  -0.082  0.00  0.00    +0.011 A 
ATOM      4  C   UNL     1      -2.650   4.278  -0.082  0.00  0.00    +0.009 A 
ATOM      5  C   UNL     1      -1.495   3.470  -0.033  0.00  0.00    -0.016 A 
ATOM      6  C   UNL     1      -1.596   2.069  -0.039  0.00  0.00    +0.008 A 
ATOM      7  C   UNL     1      -0.466   1.310   0.013  0.00  0.00    +0.001 A 
ATOM      8  C   UNL     1       0.793   1.903   0.062  0.00  0.00    +0.001 A 
ATOM      9  C   UNL     1       0.927   3.259   0.064  0.00  0.00    +0.010 A 
ATOM     10  C   UNL     1      -0.215   4.071   0.016  0.00  0.00    +0.006 A 
ATOM     11  C   UNL     1      -0.110   5.481   0.015  0.00  0.00    +0.058 A 
ATOM     12  N   UNL     1       0.963   6.337   0.055  0.00  0.00    -0.336 N 
ATOM     13  C   UNL     1       0.531   7.639   0.033  0.00  0.00    +0.058 A 
ENDROOT
BRANCH   1  17
ATOM     14  C   UNL     1      -3.356  11.082  -0.133  0.00  0.00    +0.000 A 
ATOM     15  C   UNL     1      -3.404  10.228   0.955  0.00  0.00    +0.001 A 
ATOM     16  C   UNL     1      -2.592   9.114   0.997  0.00  0.00    +0.008 A 
ATOM     17  C   UNL     1      -1.722   8.848  -0.061  0.00  0.00    -0.015 A 
ATOM     18  C   UNL     1      -1.675   9.715  -1.153  0.00  0.00    +0.008 A 
ATOM     19  C   UNL     1      -2.496  10.823  -1.185  0.00  0.00    +0.001 A 
ENDBRANCH   1  17
BRANCH  13  20
ATOM     20  C   UNL     1       1.401   8.832   0.063  0.00  0.00    -0.001 A 
ATOM     21  C   UNL     1       1.209   9.816   1.036  0.00  0.00    +0.010 A 
ATOM     22  C   UNL     1       2.029  10.925   1.062  0.00  0.00    +0.001 A 
ATOM     23  C   UNL     1       3.032  11.069   0.120  0.00  0.00    +0.000 A 
ATOM     24  C   UNL     1       3.224  10.101  -0.850  0.00  0.00    +0.001 A 
ATOM     25  C   UNL     1       2.416   8.984  -0.884  0.00  0.00    +0.010 A 
ENDBRANCH  13  20
BRANCH  12  26
ATOM     26  C   UNL     1       2.366   5.920   0.112  0.00  0.00    +0.151 C 
BRANCH  26  27
ATOM     27  C   UNL     1       2.752   5.626   1.562  0.00  0.00    +0.117 C 
BRANCH  27  28
ATOM     28  O   UNL     1       2.664   6.827   2.332  0.00  0.00    -0.392 OA
ATOM     29  H   UNL     1       3.186   7.561   1.978  0.00  0.00    +0.210 HD
ENDBRANCH  27  28
BRANCH  27  30
ATOM     30  C   UNL     1       4.186   5.095   1.611  0.00  0.00    -0.049 C 
BRANCH  30  31
ATOM     31  N   UNL     1       4.509   4.701   2.995  0.00  0.00    +0.382 N 
ATOM     32  H   UNL     1       3.856   3.970   3.301  0.00  0.00    -0.086 HD
ATOM     33  H   UNL     1       4.420   5.518   3.610  0.00  0.00    -0.086 HD
BRANCH  31  34
ATOM     34  C   UNL     1       5.888   4.183   3.072  0.00  0.00    -0.054 C 
BRANCH  34  35
ATOM     35  C   UNL     1       6.195   3.783   4.516  0.00  0.00    +0.137 C 
BRANCH  35  36
ATOM     36  O   UNL     1       5.355   2.691   4.896  0.00  0.00    -0.397 OA
ATOM     37  H   UNL     1       5.495   2.384   5.803  0.00  0.00    +0.209 HD
ENDBRANCH  35  36
ENDBRANCH  34  35
ENDBRANCH  31  34
ENDBRANCH  30  31
ENDBRANCH  27  30
ENDBRANCH  26  27
ENDBRANCH  12  26
TORSDOF 10
