REMARK  Name = ZINC30499230
REMARK  8 active torsions:
REMARK  status: ('A' for Active; 'I' for Inactive)
REMARK    1  A    between atoms: C_1  and  N_2
REMARK    2  A    between atoms: N_2  and  C_3
REMARK    3  A    between atoms: N_2  and  C_4
REMARK    4  A    between atoms: C_4  and  C_5
REMARK    5  A    between atoms: C_5  and  C_7
REMARK    6  A    between atoms: C_5  and  N_13
REMARK    7  A    between atoms: N_13  and  S_14
REMARK    8  A    between atoms: S_14  and  C_17
REMARK                            x       y       z     vdW  Elec       q    Type
REMARK                         _______ _______ _______ _____ _____    ______ ____
ROOT
ATOM      1  N   UNL     1      -2.235   2.369   1.951  0.00  0.00    -0.184 NA
ATOM      2  H   UNL     1      -3.140   1.938   2.402  0.00  0.00    +0.149 HD
ENDROOT
BRANCH   1   3
ATOM      3  S   UNL     1      -1.793   1.905   0.423  0.00  0.00    +0.059 S 
ATOM      4  O   UNL     1      -1.325   3.073  -0.236  0.00  0.00    -0.153 OA
ATOM      5  O   UNL     1      -2.861   1.119  -0.087  0.00  0.00    -0.153 OA
BRANCH   3   6
ATOM      6  C   UNL     1      -0.408   0.829   0.586  0.00  0.00    +0.106 A 
ATOM      7  C   UNL     1       0.880   1.361   0.571  0.00  0.00    +0.029 A 
ATOM      8  C   UNL     1       1.972   0.557   0.690  0.00  0.00    +0.010 A 
ATOM      9  C   UNL     1       1.801  -0.831   0.828  0.00  0.00    -0.018 A 
ATOM     10  C   UNL     1       2.905  -1.693   0.952  0.00  0.00    +0.008 A 
ATOM     11  C   UNL     1       2.701  -3.033   1.084  0.00  0.00    +0.001 A 
ATOM     12  C   UNL     1       1.413  -3.565   1.099  0.00  0.00    +0.001 A 
ATOM     13  C   UNL     1       0.321  -2.760   0.982  0.00  0.00    +0.008 A 
ATOM     14  C   UNL     1       0.492  -1.372   0.843  0.00  0.00    -0.016 A 
ATOM     15  C   UNL     1      -0.611  -0.510   0.719  0.00  0.00    +0.037 A 
ENDBRANCH   3   6
ENDBRANCH   1   3
BRANCH   1  16
ATOM     16  C   UNL     1      -1.319   3.169   2.767  0.00  0.00    +0.090 C 
BRANCH  16  17
ATOM     17  C   UNL     1      -1.448   2.761   4.212  0.00  0.00    -0.031 A 
ATOM     18  C   UNL     1      -2.694   2.490   4.745  0.00  0.00    +0.005 A 
ATOM     19  C   UNL     1      -2.812   2.112   6.070  0.00  0.00    +0.000 A 
ATOM     20  C   UNL     1      -1.685   2.015   6.864  0.00  0.00    +0.000 A 
ATOM     21  C   UNL     1      -0.439   2.291   6.332  0.00  0.00    +0.000 A 
ATOM     22  C   UNL     1      -0.321   2.665   5.006  0.00  0.00    +0.005 A 
ENDBRANCH  16  17
BRANCH  16  23
ATOM     23  C   UNL     1      -1.668   4.651   2.622  0.00  0.00    -0.054 C 
BRANCH  23  25
ATOM     24  C   UNL     1       0.585   5.536   2.558  0.00  0.00    -0.097 C 
ATOM     25  N   UNL     1      -0.665   5.462   3.326  0.00  0.00    +0.377 N 
ATOM     26  C   UNL     1      -1.184   6.805   3.617  0.00  0.00    -0.097 C 
ATOM     27  H   UNL     1      -0.445   4.969   4.284  0.00  0.00    -0.083 HD
ENDBRANCH  23  25
ENDBRANCH  16  23
ENDBRANCH   1  16
TORSDOF 6
