REMARK  Name = ZINC07777397
REMARK  7 active torsions:
REMARK  status: ('A' for Active; 'I' for Inactive)
REMARK    1  A    between atoms: C_1  and  C_2
REMARK    2  A    between atoms: C_2  and  C_26
REMARK    3  A    between atoms: N_5  and  C_9
REMARK    4  A    between atoms: C_9  and  C_10
REMARK    5  A    between atoms: N_12  and  C_13
REMARK    6  A    between atoms: C_13  and  C_14
REMARK    7  A    between atoms: C_17  and  C_19
REMARK                            x       y       z     vdW  Elec       q    Type
REMARK                         _______ _______ _______ _____ _____    ______ ____
ROOT
ATOM      1  C   UNL     1       1.147   1.655   0.000  0.00  0.00    +0.231 C 
ATOM      2  O   UNL     1       1.130   2.868   0.007  0.00  0.00    -0.274 OA
ATOM      3  N   UNL     1      -0.011   0.966   0.007  0.00  0.00    -0.307 N 
ATOM      4  H   UNL     1       0.002  -0.004   0.002  0.00  0.00    +0.149 HD
ENDROOT
BRANCH   1   5
ATOM      5  C   UNL     1       2.462   0.920  -0.017  0.00  0.00    +0.213 C 
BRANCH   5  10
ATOM      6  C   UNL     1       6.598   2.865   1.070  0.00  0.00    +0.042 C 
ATOM      7  C   UNL     1       5.218   3.332   0.604  0.00  0.00    +0.113 C 
ATOM      8  C   UNL     1       4.142   2.381   1.090  0.00  0.00    +0.247 C 
ATOM      9  O   UNL     1       3.861   2.119   2.240  0.00  0.00    -0.273 OA
ATOM     10  N   UNL     1       3.562   1.887  -0.022  0.00  0.00    -0.215 N 
ATOM     11  C   UNL     1       4.120   2.385  -1.131  0.00  0.00    +0.310 C 
ATOM     12  O   UNL     1       3.770   2.086  -2.256  0.00  0.00    -0.252 OA
ATOM     13  N   UNL     1       5.109   3.256  -0.863  0.00  0.00    -0.285 N 
ATOM     14  H   UNL     1       5.649   3.737  -1.509  0.00  0.00    +0.151 HD
BRANCH   7  15
ATOM     15  C   UNL     1       4.939   4.755   1.092  0.00  0.00    +0.021 C 
ATOM     16  C   UNL     1       4.546   5.797   0.043  0.00  0.00    +0.006 C 
ATOM     17  C   UNL     1       5.932   5.847   0.690  0.00  0.00    +0.006 C 
ENDBRANCH   7  15
ENDBRANCH   5  10
ENDBRANCH   1   5
BRANCH   3  18
ATOM     18  C   UNL     1      -1.290   1.681   0.017  0.00  0.00    +0.178 C 
BRANCH  18  19
ATOM     19  C   UNL     1      -2.422   0.686   0.017  0.00  0.00    +0.123 A 
ATOM     20  C   UNL     1      -3.003   0.158   1.112  0.00  0.00    +0.047 A 
ATOM     21  C   UNL     1      -4.011  -0.718   0.661  0.00  0.00    +0.050 A 
ATOM     22  C   UNL     1      -3.984  -0.681  -0.697  0.00  0.00    +0.135 A 
ATOM     23  O   UNL     1      -3.015   0.175  -1.074  0.00  0.00    -0.458 OA
BRANCH  22  24
ATOM     24  C   UNL     1      -4.864  -1.448  -1.603  0.00  0.00    +0.017 A 
ATOM     25  C   UNL     1      -5.830  -2.309  -1.080  0.00  0.00    +0.013 A 
ATOM     26  C   UNL     1      -6.651  -3.019  -1.931  0.00  0.00    +0.021 A 
ATOM     27  C   UNL     1      -6.513  -2.885  -3.302  0.00  0.00    +0.041 A 
ATOM     28  C   UNL     1      -5.555  -2.036  -3.828  0.00  0.00    +0.021 A 
ATOM     29  C   UNL     1      -4.730  -1.317  -2.987  0.00  0.00    +0.013 A 
ATOM     30 CL   UNL     1      -7.547  -3.787  -4.367  0.00  0.00    -0.084 Cl
ENDBRANCH  22  24
ENDBRANCH  18  19
ENDBRANCH   3  18
TORSDOF 6
