REMARK  Name = ZINC14981919
REMARK  11 active torsions:
REMARK  status: ('A' for Active; 'I' for Inactive)
REMARK    1  A    between atoms: C_1  and  C_2
REMARK    2  A    between atoms: C_3  and  C_7
REMARK    3  A    between atoms: C_12  and  C_15
REMARK    4  A    between atoms: C_15  and  C_17
REMARK    5  A    between atoms: C_15  and  N_26
REMARK    6  A    between atoms: C_17  and  C_18
REMARK    7  A    between atoms: C_22  and  O_24
REMARK    8  A    between atoms: O_24  and  C_25
REMARK    9  A    between atoms: N_26  and  C_27
REMARK   10  A    between atoms: C_28  and  C_30
REMARK   11  A    between atoms: N_33  and  C_35
REMARK                            x       y       z     vdW  Elec       q    Type
REMARK                         _______ _______ _______ _____ _____    ______ ____
ROOT
ATOM      1  C   UNL     1      -4.155   4.067   2.232  0.00  0.00    +0.084 C 
ENDROOT
BRANCH   1   7
ATOM      2  C   UNL     1       0.043   1.403  -0.003  0.00  0.00    +0.270 C 
ATOM      3  O   UNL     1       1.095   2.011   0.004  0.00  0.00    -0.268 OA
ATOM      4  N   UNL     1      -1.124   2.076   0.005  0.00  0.00    -0.296 N 
ATOM      5  C   UNL     1      -2.401   1.360   0.123  0.00  0.00    +0.108 C 
ATOM      6  C   UNL     1      -3.192   1.960   1.296  0.00  0.00    +0.024 C 
ATOM      7  C   UNL     1      -3.336   3.469   1.086  0.00  0.00    +0.013 C 
ATOM      8  C   UNL     1      -1.949   4.117   1.059  0.00  0.00    +0.024 C 
ATOM      9  C   UNL     1      -1.144   3.541  -0.110  0.00  0.00    +0.108 C 
BRANCH   2  12
ATOM     10  C   UNL     1       2.655  -0.668  -0.267  0.00  0.00    +0.072 C 
ATOM     11  C   UNL     1       1.190  -1.000  -0.143  0.00  0.00    +0.114 A 
ATOM     12  C   UNL     1       0.044  -0.080  -0.028  0.00  0.00    +0.191 A 
ATOM     13  N   UNL     1      -0.979  -0.904   0.054  0.00  0.00    -0.044 NA
ATOM     14  O   UNL     1      -0.576  -2.043  -0.005  0.00  0.00    -0.242 OA
ATOM     15  N   UNL     1       0.620  -2.175  -0.112  0.00  0.00    -0.053 NA
ENDBRANCH   2  12
ENDBRANCH   1   7
BRANCH   1  16
ATOM     16  N   UNL     1      -4.390   5.490   1.974  0.00  0.00    -0.296 N 
ATOM     17  C   UNL     1      -3.996   6.490   2.969  0.00  0.00    +0.132 C 
ATOM     18  C   UNL     1      -4.969   5.879   0.821  0.00  0.00    +0.267 C 
ATOM     19  O   UNL     1      -5.382   5.046   0.037  0.00  0.00    -0.268 OA
BRANCH  18  20
ATOM     20  C   UNL     1      -5.102   7.316   0.509  0.00  0.00    +0.147 A 
ATOM     21  C   UNL     1      -5.765   7.878  -0.608  0.00  0.00    +0.054 A 
ATOM     22  C   UNL     1      -5.631   9.218  -0.472  0.00  0.00    +0.109 A 
ATOM     23  N   UNL     1      -4.921   9.437   0.656  0.00  0.00    -0.274 N 
ATOM     24  N   UNL     1      -4.620   8.320   1.215  0.00  0.00    -0.167 NA
ATOM     25  C   UNL     1      -4.547  10.757   1.167  0.00  0.00    +0.172 C 
ENDBRANCH  18  20
ENDBRANCH   1  16
BRANCH   1  26
ATOM     26  C   UNL     1      -5.496   3.339   2.334  0.00  0.00    +0.058 C 
BRANCH  26  27
ATOM     27  C   UNL     1      -6.296   3.917   3.473  0.00  0.00    -0.042 A 
ATOM     28  C   UNL     1      -6.178   3.381   4.742  0.00  0.00    +0.004 A 
ATOM     29  C   UNL     1      -6.907   3.913   5.790  0.00  0.00    +0.004 A 
ATOM     30  C   UNL     1      -7.763   4.974   5.569  0.00  0.00    +0.045 A 
ATOM     31  C   UNL     1      -7.888   5.509   4.295  0.00  0.00    +0.120 A 
ATOM     32  C   UNL     1      -7.152   4.977   3.246  0.00  0.00    +0.049 A 
BRANCH  31  33
ATOM     33  O   UNL     1      -8.731   6.552   4.075  0.00  0.00    -0.495 OA
ATOM     34  C   UNL     1      -9.457   7.048   5.201  0.00  0.00    +0.277 C 
ENDBRANCH  31  33
ENDBRANCH  26  27
ENDBRANCH   1  26
TORSDOF 7
