REMARK  Name = ZINC15678262
REMARK  8 active torsions:
REMARK  status: ('A' for Active; 'I' for Inactive)
REMARK    1  A    between atoms: C_1  and  C_2
REMARK    2  A    between atoms: C_8  and  C_9
REMARK    3  A    between atoms: C_8  and  N_78
REMARK    4  A    between atoms: C_9  and  N_10
REMARK    5  A    between atoms: C_16  and  C_32
REMARK    6  A    between atoms: C_19  and  C_20
REMARK    7  A    between atoms: C_19  and  C_21
REMARK    8  A    between atoms: N_23  and  C_24
REMARK                            x       y       z     vdW  Elec       q    Type
REMARK                         _______ _______ _______ _____ _____    ______ ____
ROOT
ATOM      1  N   UNL     1       1.207  -0.591   0.191  0.00  0.00    -0.282 N 
ATOM      2  C   UNL     1       0.002  -0.004   0.002  0.00  0.00    +0.264 C 
ATOM      3  O   UNL     1      -1.011  -0.658  -0.166  0.00  0.00    -0.268 OA
ATOM      4  C   UNL     1      -0.018   1.462   0.010  0.00  0.00    +0.105 A 
ATOM      5  C   UNL     1      -1.065   2.341   0.030  0.00  0.00    +0.033 A 
ATOM      6  C   UNL     1      -0.527   3.629   0.044  0.00  0.00    +0.032 A 
ATOM      7  C   UNL     1       0.854   3.511   0.033  0.00  0.00    +0.085 A 
ATOM      8  N   UNL     1       1.166   2.192   0.003  0.00  0.00    -0.331 N 
ATOM      9  C   UNL     1       2.475   1.533  -0.043  0.00  0.00    +0.157 C 
ATOM     10  C   UNL     1       2.373   0.166   0.632  0.00  0.00    +0.128 C 
ATOM     11  C   UNL     1       3.635  -0.637   0.311  0.00  0.00    +0.043 C 
ENDROOT
BRANCH   7  12
ATOM     12  C   UNL     1       1.814   4.623   0.051  0.00  0.00    +0.151 A 
ATOM     13  C   UNL     1       1.505   5.946   0.172  0.00  0.00    +0.051 A 
ATOM     14  C   UNL     1       2.723   6.650   0.144  0.00  0.00    +0.042 A 
ATOM     15  C   UNL     1       3.705   5.737   0.001  0.00  0.00    +0.196 A 
ATOM     16  O   UNL     1       3.153   4.515  -0.055  0.00  0.00    -0.461 OA
ENDBRANCH   7  12
BRANCH  10  17
ATOM     17  C   UNL     1       2.289   0.364   2.124  0.00  0.00    +0.238 C 
ATOM     18  O   UNL     1       3.300   0.363   2.793  0.00  0.00    -0.273 OA
ATOM     19  N   UNL     1       1.090   0.543   2.714  0.00  0.00    -0.311 N 
ATOM     20  H   UNL     1       0.282   0.544   2.178  0.00  0.00    +0.149 HD
BRANCH  19  21
ATOM     21  C   UNL     1       1.009   0.736   4.164  0.00  0.00    +0.073 C 
ATOM     22  C   UNL     1       0.984  -0.627   4.859  0.00  0.00    +0.022 C 
ATOM     23  C   UNL     1       1.297  -0.447   6.345  0.00  0.00    +0.002 C 
ATOM     24  C   UNL     1       2.472   0.520   6.506  0.00  0.00    +0.000 C 
ATOM     25  C   UNL     1       1.985   1.808   7.173  0.00  0.00    +0.000 C 
ATOM     26  C   UNL     1       1.220   2.653   6.152  0.00  0.00    +0.000 C 
ATOM     27  C   UNL     1      -0.169   2.052   5.931  0.00  0.00    +0.002 C 
ATOM     28  C   UNL     1      -0.268   1.506   4.505  0.00  0.00    +0.022 C 
ENDBRANCH  19  21
ENDBRANCH  10  17
BRANCH   1  29
ATOM     29  C   UNL     1       1.344  -2.029  -0.054  0.00  0.00    +0.091 C 
BRANCH  29  30
ATOM     30  C   UNL     1       1.738  -2.261  -1.514  0.00  0.00    -0.059 C 
BRANCH  30  37
ATOM     31  C   UNL     1       4.195  -3.531  -0.995  0.00  0.00    -0.013 C 
ATOM     32  C   UNL     1       2.877  -4.297  -0.865  0.00  0.00    -0.072 C 
ATOM     33  C   UNL     1       3.099  -5.763  -1.246  0.00  0.00    -0.016 C 
ATOM     34  C   UNL     1       1.773  -6.520  -1.134  0.00  0.00    -0.003 C 
ATOM     35  C   UNL     1       0.734  -5.852  -2.040  0.00  0.00    -0.019 C 
ATOM     36  C   UNL     1       0.581  -4.384  -1.636  0.00  0.00    -0.078 C 
ATOM     37  N   UNL     1       1.886  -3.706  -1.789  0.00  0.00    +0.382 N 
ATOM     38  H   UNL     1       2.214  -3.830  -2.754  0.00  0.00    -0.081 HD
ENDBRANCH  30  37
ENDBRANCH  29  30
ENDBRANCH   1  29
TORSDOF 6
