REMARK  Name = ZINC65951685
REMARK  5 active torsions:
REMARK  status: ('A' for Active; 'I' for Inactive)
REMARK    1  A    between atoms: C_9  and  N_10
REMARK    2  A    between atoms: N_10  and  C_11
REMARK    3  A    between atoms: N_10  and  C_27
REMARK    4  A    between atoms: C_11  and  C_12
REMARK    5  A    between atoms: C_20  and  C_22
REMARK                            x       y       z     vdW  Elec       q    Type
REMARK                         _______ _______ _______ _____ _____    ______ ____
ROOT
ATOM      1  C   UNL     1       5.144  -2.236   1.253  0.00  0.00    +0.020 C 
ENDROOT
BRANCH   1   2
ATOM      2  C   UNL     1       5.755  -2.493   2.606  0.00  0.00    +0.199 C 
ATOM      3  O   UNL     1       5.331  -1.911   3.583  0.00  0.00    -0.278 OA
ATOM      4  N   UNL     1       6.772  -3.368   2.732  0.00  0.00    -0.300 N 
ATOM      5  C   UNL     1       7.300  -4.075   1.557  0.00  0.00    +0.126 C 
ATOM      6  C   UNL     1       8.809  -3.817   1.467  0.00  0.00    +0.127 C 
ATOM      7  N   UNL     1       9.410  -4.080   2.781  0.00  0.00    -0.292 N 
ATOM      8  C   UNL     1       8.882  -3.373   3.957  0.00  0.00    +0.127 C 
ATOM      9  C   UNL     1       7.377  -3.627   4.046  0.00  0.00    +0.126 C 
ATOM     10  C   UNL     1      10.427  -4.956   2.907  0.00  0.00    +0.282 C 
ATOM     11  O   UNL     1      10.842  -5.252   4.013  0.00  0.00    -0.267 OA
BRANCH  10  12
ATOM     12  C   UNL     1      11.035  -5.551   1.712  0.00  0.00    +0.189 A 
ATOM     13  C   UNL     1      11.960  -6.555   1.698  0.00  0.00    +0.054 A 
ATOM     14  C   UNL     1      12.260  -6.808   0.350  0.00  0.00    +0.042 A 
ATOM     15  C   UNL     1      11.513  -5.959  -0.389  0.00  0.00    +0.196 A 
ATOM     16  O   UNL     1      10.773  -5.206   0.435  0.00  0.00    -0.458 OA
ENDBRANCH  10  12
ENDBRANCH   1   2
BRANCH   1  17
ATOM     17  N   UNL     1       3.991  -1.338   1.397  0.00  0.00    +0.392 N 
ATOM     18  H   UNL     1       3.530  -1.236   0.506  0.00  0.00    -0.080 HD
BRANCH  17  27
ATOM     19  C   UNL     1       1.341   2.890   1.641  0.00  0.00    +0.000 A 
ATOM     20  C   UNL     1       1.317   2.050   2.739  0.00  0.00    +0.000 A 
ATOM     21  C   UNL     1       2.289   1.079   2.885  0.00  0.00    +0.002 A 
ATOM     22  C   UNL     1       3.288   0.944   1.935  0.00  0.00    -0.058 A 
ATOM     23  C   UNL     1       3.312   1.784   0.838  0.00  0.00    -0.046 A 
ATOM     24  C   UNL     1       2.337   2.757   0.693  0.00  0.00    +0.004 A 
ATOM     25  C   UNL     1       4.492   1.439  -0.045  0.00  0.00    +0.034 C 
ATOM     26  C   UNL     1       5.430   0.596   0.845  0.00  0.00    -0.006 C 
ATOM     27  C   UNL     1       4.450  -0.023   1.865  0.00  0.00    -0.036 C 
ENDBRANCH  17  27
BRANCH  17  28
ATOM     28  C   UNL     1       3.050  -1.903   2.373  0.00  0.00    -0.067 C 
ATOM     29  C   UNL     1       1.609  -2.134   1.913  0.00  0.00    -0.017 C 
ATOM     30  C   UNL     1       2.544  -3.326   2.125  0.00  0.00    -0.017 C 
ENDBRANCH  17  28
ENDBRANCH   1  17
TORSDOF 5
