REMARK  Name = ZINC13183579
REMARK  13 active torsions:
REMARK  status: ('A' for Active; 'I' for Inactive)
REMARK    1  A    between atoms: C_1  and  C_2
REMARK    2  A    between atoms: C_2  and  O_3
REMARK    3  A    between atoms: O_3  and  C_4
REMARK    4  A    between atoms: C_5  and  O_33
REMARK    5  A    between atoms: C_7  and  C_11
REMARK    6  A    between atoms: C_12  and  C_13
REMARK    7  A    between atoms: C_20  and  O_31
REMARK    8  A    between atoms: C_21  and  O_29
REMARK    9  A    between atoms: C_24  and  C_26
REMARK   10  A    between atoms: C_26  and  C_27
REMARK   11  A    between atoms: O_29  and  C_30
REMARK   12  A    between atoms: O_31  and  C_32
REMARK   13  A    between atoms: O_33  and  C_34
REMARK                            x       y       z     vdW  Elec       q    Type
REMARK                         _______ _______ _______ _____ _____    ______ ____
ROOT
ATOM      1  C   UNL     1      -1.100   2.223   0.497  0.00  0.00    +0.240 C 
ATOM      2  O   UNL     1      -2.186   1.685   0.392  0.00  0.00    -0.271 OA
ATOM      3  N   UNL     1       0.026   1.518   0.269  0.00  0.00    -0.290 N 
ATOM      4  C   UNL     1       1.348   2.166   0.269  0.00  0.00    +0.113 C 
ATOM      5  C   UNL     1       2.159   1.579   1.423  0.00  0.00    +0.054 C 
ATOM      6  C   UNL     1       2.073   0.076   1.429  0.00  0.00    -0.037 A 
ATOM      7  C   UNL     1       3.053  -0.621   2.127  0.00  0.00    +0.053 A 
ATOM      8  C   UNL     1       3.022  -2.001   2.195  0.00  0.00    +0.162 A 
ATOM      9  C   UNL     1       1.998  -2.700   1.560  0.00  0.00    +0.162 A 
ATOM     10  C   UNL     1       1.028  -2.004   0.863  0.00  0.00    +0.055 A 
ATOM     11  C   UNL     1       1.067  -0.617   0.793  0.00  0.00    -0.020 A 
ATOM     12  C   UNL     1      -0.017   0.076   0.006  0.00  0.00    +0.118 C 
ENDROOT
BRANCH   1  14
ATOM     13  C   UNL     1      -2.142   4.369   0.991  0.00  0.00    +0.013 C 
ATOM     14  C   UNL     1      -1.016   3.635   0.870  0.00  0.00    +0.068 C 
BRANCH  13  18
ATOM     15  C   UNL     1      -1.894   8.466   2.075  0.00  0.00    +0.180 A 
ATOM     16  C   UNL     1      -3.140   7.883   1.844  0.00  0.00    +0.164 A 
ATOM     17  C   UNL     1      -3.225   6.551   1.491  0.00  0.00    +0.057 A 
ATOM     18  C   UNL     1      -2.058   5.788   1.366  0.00  0.00    -0.020 A 
ATOM     19  C   UNL     1      -0.812   6.378   1.603  0.00  0.00    +0.031 A 
ATOM     20  C   UNL     1      -0.735   7.710   1.951  0.00  0.00    +0.087 A 
ATOM     21 CL   UNL     1       0.812   8.443   2.239  0.00  0.00    -0.080 Cl
BRANCH  16  22
ATOM     22  O   UNL     1      -4.271   8.627   1.967  0.00  0.00    -0.491 OA
ATOM     23  C   UNL     1      -5.513   7.966   1.716  0.00  0.00    +0.277 C 
ENDBRANCH  16  22
BRANCH  15  24
ATOM     24  O   UNL     1      -1.814   9.777   2.422  0.00  0.00    -0.487 OA
BRANCH  24  26
ATOM     25  C   UNL     1      -1.751  11.597   4.011  0.00  0.00    +0.048 C 
ATOM     26  C   UNL     1      -1.853  10.082   3.818  0.00  0.00    +0.226 C 
ENDBRANCH  24  26
ENDBRANCH  15  24
ENDBRANCH  13  18
ENDBRANCH   1  14
BRANCH   9  27
ATOM     27  O   UNL     1       1.954  -4.057   1.625  0.00  0.00    -0.491 OA
ATOM     28  C   UNL     1       0.874  -4.704   0.948  0.00  0.00    +0.277 C 
ENDBRANCH   9  27
BRANCH   8  29
ATOM     29  O   UNL     1       3.985  -2.674   2.881  0.00  0.00    -0.491 OA
ATOM     30  C   UNL     1       5.003  -1.890   3.506  0.00  0.00    +0.277 C 
ENDBRANCH   8  29
BRANCH  12  31
ATOM     31  C   UNL     1      -1.381  -0.477   0.423  0.00  0.00    +0.152 C 
BRANCH  31  32
ATOM     32  C   UNL     1      -2.380  -0.234  -0.679  0.00  0.00    +0.358 C 
ATOM     33  O   UNL     1      -2.015   0.226  -1.735  0.00  0.00    -0.246 OA
ATOM     34  O   UNL     1      -3.675  -0.529  -0.488  0.00  0.00    -0.246 OA
ENDBRANCH  31  32
ENDBRANCH  12  31
TORSDOF 9
