REMARK  Name = ZINC14993478
REMARK  9 active torsions:
REMARK  status: ('A' for Active; 'I' for Inactive)
REMARK    1  A    between atoms: C_1  and  O_2
REMARK    2  A    between atoms: O_2  and  C_3
REMARK    3  A    between atoms: C_8  and  C_9
REMARK    4  A    between atoms: C_9  and  N_10
REMARK    5  A    between atoms: C_11  and  C_13
REMARK    6  A    between atoms: C_16  and  S_26
REMARK    7  A    between atoms: C_19  and  C_20
REMARK    8  A    between atoms: C_19  and  N_65
REMARK    9  A    between atoms: S_26  and  C_27
REMARK                            x       y       z     vdW  Elec       q    Type
REMARK                         _______ _______ _______ _____ _____    ______ ____
ROOT
ATOM      1  C   UNL     1       0.606  -2.171  -1.026  0.00  0.00    +0.020 C 
ATOM      2  C   UNL     1       1.413  -2.705   0.176  0.00  0.00    +0.006 C 
ATOM      3  C   UNL     1       2.163  -3.942  -0.362  0.00  0.00    +0.034 C 
ATOM      4  C   UNL     1       1.745  -4.051  -1.844  0.00  0.00    -0.063 C 
ATOM      5  N   UNL     1       1.336  -2.690  -2.188  0.00  0.00    +0.388 N 
ATOM      6  H   UNL     1       2.163  -2.111  -2.370  0.00  0.00    -0.081 HD
ENDROOT
BRANCH   1   8
ATOM      7  N   UNL     1       0.002  -0.004   0.002  0.00  0.00    -0.312 N 
ATOM      8  C   UNL     1       0.585  -0.664  -1.018  0.00  0.00    +0.200 C 
ATOM      9  O   UNL     1       1.093  -0.046  -1.929  0.00  0.00    -0.278 OA
ATOM     10  H   UNL     1      -0.404  -0.499   0.731  0.00  0.00    +0.149 HD
BRANCH   7  11
ATOM     11  C   UNL     1      -0.018   1.461   0.010  0.00  0.00    +0.143 C 
BRANCH  11  17
ATOM     12  C   UNL     1      -0.050   1.984   2.462  0.00  0.00    +0.125 A 
ATOM     13  C   UNL     1      -0.702   2.433   3.602  0.00  0.00    +0.046 A 
ATOM     14  C   UNL     1      -2.019   2.841   3.527  0.00  0.00    +0.004 A 
ATOM     15  C   UNL     1      -2.688   2.803   2.317  0.00  0.00    +0.001 A 
ATOM     16  C   UNL     1      -2.039   2.361   1.179  0.00  0.00    +0.009 A 
ATOM     17  C   UNL     1      -0.723   1.947   1.250  0.00  0.00    +0.011 A 
BRANCH  12  19
ATOM     18  C   UNL     1       1.877   1.648   3.814  0.00  0.00    +0.277 C 
ATOM     19  O   UNL     1       1.246   1.582   2.533  0.00  0.00    -0.495 OA
ENDBRANCH  12  19
ENDBRANCH  11  17
ENDBRANCH   7  11
ENDBRANCH   1   8
BRANCH   5  20
ATOM     20  C   UNL     1       0.457  -2.687  -3.401  0.00  0.00    -0.074 C 
BRANCH  20  21
ATOM     21  C   UNL     1       1.293  -2.967  -4.652  0.00  0.00    -0.028 C 
ATOM     22  C   UNL     1       2.267  -1.810  -4.884  0.00  0.00    +0.002 C 
ATOM     23  C   UNL     1       3.102  -2.090  -6.135  0.00  0.00    +0.000 C 
ATOM     24  C   UNL     1       2.177  -2.228  -7.346  0.00  0.00    +0.000 C 
ATOM     25  C   UNL     1       1.203  -3.385  -7.114  0.00  0.00    +0.000 C 
ATOM     26  C   UNL     1       0.368  -3.105  -5.863  0.00  0.00    +0.002 C 
ENDBRANCH  20  21
ENDBRANCH   5  20
BRANCH   3  27
ATOM     27  S   UNL     1       1.660  -5.428   0.548  0.00  0.00    -0.124 S 
BRANCH  27  28
ATOM     28  C   UNL     1       2.708  -6.693  -0.090  0.00  0.00    +0.008 A 
ATOM     29  C   UNL     1       3.640  -6.393  -1.076  0.00  0.00    +0.017 A 
ATOM     30  C   UNL     1       4.465  -7.385  -1.570  0.00  0.00    +0.039 A 
ATOM     31  C   UNL     1       4.355  -8.680  -1.091  0.00  0.00    +0.123 A 
ATOM     32  C   UNL     1       3.424  -8.982  -0.113  0.00  0.00    +0.039 A 
ATOM     33  C   UNL     1       2.601  -7.993   0.389  0.00  0.00    +0.017 A 
ATOM     34  F   UNL     1       5.159  -9.650  -1.581  0.00  0.00    -0.205 F 
ENDBRANCH  27  28
ENDBRANCH   3  27
TORSDOF 8
