REMARK  Name = ZINC44940691
REMARK  11 active torsions:
REMARK  status: ('A' for Active; 'I' for Inactive)
REMARK    1  A    between atoms: C_1  and  C_2
REMARK    2  A    between atoms: C_5  and  C_8
REMARK    3  A    between atoms: C_8  and  N_9
REMARK    4  A    between atoms: N_9  and  C_10
REMARK    5  A    between atoms: C_11  and  C_13
REMARK    6  A    between atoms: N_16  and  S_28
REMARK    7  A    between atoms: C_19  and  C_24
REMARK    8  A    between atoms: C_24  and  C_25
REMARK    9  A    between atoms: C_24  and  C_26
REMARK   10  A    between atoms: C_24  and  C_27
REMARK   11  A    between atoms: S_28  and  C_31
REMARK                            x       y       z     vdW  Elec       q    Type
REMARK                         _______ _______ _______ _____ _____    ______ ____
ROOT
ATOM      1  C   UNL     1       3.413  -5.594  -1.312  0.00  0.00    +0.278 C 
ATOM      2  C   UNL     1       4.376  -4.673  -0.550  0.00  0.00    +0.185 C 
ATOM      3  N   UNL     1       5.734  -5.223  -0.704  0.00  0.00    -0.200 N 
ATOM      4  C   UNL     1       6.104  -5.702  -1.971  0.00  0.00    +0.093 A 
ATOM      5  C   UNL     1       7.436  -5.962  -2.253  0.00  0.00    +0.032 A 
ATOM      6  C   UNL     1       7.796  -6.437  -3.501  0.00  0.00    -0.040 A 
ATOM      7  C   UNL     1       6.829  -6.652  -4.465  0.00  0.00    +0.008 A 
ATOM      8  C   UNL     1       5.499  -6.393  -4.189  0.00  0.00    +0.048 A 
ATOM      9  C   UNL     1       5.129  -5.915  -2.941  0.00  0.00    +0.144 A 
ATOM     10  O   UNL     1       3.819  -5.659  -2.682  0.00  0.00    -0.476 OA
ENDROOT
BRANCH   1  13
ATOM     11  N   UNL     1       1.315  -5.153  -0.079  0.00  0.00    -0.297 N 
ATOM     12  C   UNL     1       1.952  -5.716   1.115  0.00  0.00    +0.132 C 
ATOM     13  C   UNL     1       2.013  -5.044  -1.226  0.00  0.00    +0.258 C 
ATOM     14  O   UNL     1       1.514  -4.502  -2.190  0.00  0.00    -0.271 OA
BRANCH  11  15
ATOM     15  C   UNL     1      -0.080  -4.709  -0.024  0.00  0.00    +0.142 C 
BRANCH  15  20
ATOM     16  C   UNL     1      -0.275   0.856   1.522  0.00  0.00    +0.044 C 
ATOM     17  C   UNL     1      -0.224  -0.596   1.119  0.00  0.00    -0.050 A 
ATOM     18  C   UNL     1      -0.142  -0.939  -0.218  0.00  0.00    +0.003 A 
ATOM     19  C   UNL     1      -0.095  -2.270  -0.588  0.00  0.00    +0.005 A 
ATOM     20  C   UNL     1      -0.130  -3.258   0.379  0.00  0.00    -0.030 A 
ATOM     21  C   UNL     1      -0.211  -2.914   1.716  0.00  0.00    +0.005 A 
ATOM     22  C   UNL     1      -0.253  -1.583   2.086  0.00  0.00    +0.003 A 
ENDBRANCH  15  20
ENDBRANCH  11  15
ENDBRANCH   1  13
BRANCH   6  23
ATOM     23  C   UNL     1       9.244  -6.720  -3.810  0.00  0.00    -0.013 C 
ATOM     24  C   UNL     1       9.773  -7.781  -2.843  0.00  0.00    +0.015 C 
ATOM     25  C   UNL     1       9.368  -7.231  -5.246  0.00  0.00    +0.015 C 
ATOM     26  C   UNL     1      10.059  -5.435  -3.653  0.00  0.00    +0.015 C 
ENDBRANCH   6  23
BRANCH   3  27
ATOM     27  S   UNL     1       6.787  -5.275   0.573  0.00  0.00    +0.043 S 
ATOM     28  O   UNL     1       5.966  -5.145   1.726  0.00  0.00    -0.155 OA
ATOM     29  O   UNL     1       7.557  -6.451   0.361  0.00  0.00    -0.155 OA
ATOM     30  C   UNL     1       7.828  -3.803   0.379  0.00  0.00    +0.218 C 
ENDBRANCH   3  27
TORSDOF 5
