REMARK  Name = ZINC37152705
REMARK  4 active torsions:
REMARK  status: ('A' for Active; 'I' for Inactive)
REMARK    1  A    between atoms: C_6  and  C_7
REMARK    2  A    between atoms: C_9  and  N_11
REMARK    3  A    between atoms: N_11  and  C_12
REMARK    4  A    between atoms: C_15  and  C_18
REMARK                            x       y       z     vdW  Elec       q    Type
REMARK                         _______ _______ _______ _____ _____    ______ ____
ROOT
ATOM      1  N   UNL     1      -3.515  -2.605   0.108  0.00  0.00    +0.383 N 
ATOM      2  H   UNL     1      -3.779  -1.635   0.195  0.00  0.00    -0.085 HD
ATOM      3  H   UNL     1      -3.788  -2.948  -0.800  0.00  0.00    -0.085 HD
ENDROOT
BRANCH   1   4
ATOM      4  C   UNL     1      -4.190  -3.390   1.151  0.00  0.00    -0.071 C 
ATOM      5  C   UNL     1      -3.875  -2.793   2.524  0.00  0.00    -0.015 C 
ATOM      6  C   UNL     1      -4.577  -3.611   3.609  0.00  0.00    +0.011 C 
ATOM      7  C   UNL     1      -6.089  -3.579   3.374  0.00  0.00    +0.075 C 
ATOM      8  C   UNL     1      -6.404  -4.177   2.001  0.00  0.00    +0.011 C 
ATOM      9  C   UNL     1      -5.701  -3.359   0.915  0.00  0.00    -0.015 C 
BRANCH   7  10
ATOM     10  C   UNL     1      -6.780  -4.385   4.443  0.00  0.00    +0.214 C 
ATOM     11  O   UNL     1      -6.129  -4.930   5.309  0.00  0.00    -0.276 OA
ATOM     12  N   UNL     1      -8.123  -4.499   4.438  0.00  0.00    -0.329 N 
ATOM     13  H   UNL     1      -8.645  -4.062   3.746  0.00  0.00    +0.145 HD
ATOM     14  H   UNL     1      -8.569  -5.017   5.127  0.00  0.00    +0.145 HD
ENDBRANCH   7  10
ENDBRANCH   1   4
BRANCH   1  17
ATOM     15  C   UNL     1      -1.293  -0.775   0.010  0.00  0.00    +0.016 C 
ATOM     16  C   UNL     1      -1.259  -2.046  -0.855  0.00  0.00    -0.008 C 
ATOM     17  C   UNL     1      -2.060  -2.733   0.263  0.00  0.00    -0.070 C 
ATOM     18  C   UNL     1      -1.450  -1.702   1.227  0.00  0.00    -0.008 C 
BRANCH  15  24
ATOM     19  C   UNL     1      -0.017   1.378   0.010  0.00  0.00    +0.007 A 
ATOM     20  C   UNL     1       1.170   2.086   0.002  0.00  0.00    +0.038 A 
ATOM     21  C   UNL     1       2.379   1.410  -0.013  0.00  0.00    +0.123 A 
ATOM     22  C   UNL     1       2.396   0.026  -0.021  0.00  0.00    +0.038 A 
ATOM     23  C   UNL     1       1.208  -0.680  -0.013  0.00  0.00    +0.007 A 
ATOM     24  C   UNL     1       0.002  -0.004   0.002  0.00  0.00    -0.044 A 
ATOM     25  F   UNL     1       3.540   2.101  -0.021  0.00  0.00    -0.205 F 
ENDBRANCH  15  24
ENDBRANCH   1  17
TORSDOF 4
