REMARK  Name = ZINC65182377
REMARK  10 active torsions:
REMARK  status: ('A' for Active; 'I' for Inactive)
REMARK    1  A    between atoms: C_1  and  C_2
REMARK    2  A    between atoms: C_2  and  C_3
REMARK    3  A    between atoms: C_6  and  C_33
REMARK    4  A    between atoms: C_11  and  C_13
REMARK    5  A    between atoms: C_16  and  C_19
REMARK    6  A    between atoms: C_19  and  C_20
REMARK    7  A    between atoms: C_20  and  N_21
REMARK    8  A    between atoms: N_21  and  C_22
REMARK    9  A    between atoms: C_23  and  C_25
REMARK   10  A    between atoms: C_25  and  C_26
REMARK                            x       y       z     vdW  Elec       q    Type
REMARK                         _______ _______ _______ _____ _____    ______ ____
ROOT
ATOM      1  C   UNL     1      -0.382  -2.657  -1.821  0.00  0.00    +0.318 C 
ATOM      2  N   UNL     1      -0.153  -4.076  -2.139  0.00  0.00    -0.291 N 
ATOM      3  C   UNL     1      -0.704  -4.299  -3.379  0.00  0.00    +0.139 C 
ATOM      4  N   UNL     1      -1.231  -3.233  -3.860  0.00  0.00    -0.072 NA
ATOM      5  O   UNL     1      -1.087  -2.144  -2.962  0.00  0.00    -0.367 OA
ATOM      6  H   UNL     1       0.299  -4.728  -1.581  0.00  0.00    +0.151 HD
ENDROOT
BRANCH   1  15
ATOM      7  C   UNL     1       0.707  -0.490  -1.238  0.00  0.00    -0.033 C 
ATOM      8  C   UNL     1       1.257   0.271  -2.212  0.00  0.00    -0.000 A 
ATOM      9  C   UNL     1       1.357   1.723  -2.402  0.00  0.00    +0.013 A 
ATOM     10  C   UNL     1       1.979   2.199  -3.505  0.00  0.00    -0.050 A 
ATOM     11  C   UNL     1       2.529   1.342  -4.468  0.00  0.00    +0.005 A 
ATOM     12  C   UNL     1       2.477  -0.003  -4.363  0.00  0.00    +0.026 A 
ATOM     13  C   UNL     1       1.846  -0.612  -3.244  0.00  0.00    +0.043 A 
ATOM     14  N   UNL     1       1.668  -1.870  -2.920  0.00  0.00    -0.373 N 
ATOM     15  C   UNL     1       0.950  -1.927  -1.641  0.00  0.00    +0.169 C 
ATOM     16  C   UNL     1       2.083   3.689  -3.703  0.00  0.00    +0.044 C 
ATOM     17  H   UNL     1       1.966  -2.635  -3.437  0.00  0.00    +0.160 HD
BRANCH   7  19
ATOM     18  C   UNL     1      -0.019   1.526   0.010  0.00  0.00    +0.008 C 
ATOM     19  C   UNL     1       0.002  -0.004   0.002  0.00  0.00    +0.030 C 
ENDBRANCH   7  19
ENDBRANCH   1  15
BRANCH   3  20
ATOM     20  C   UNL     1      -0.689  -5.631  -4.085  0.00  0.00    +0.094 C 
BRANCH  20  21
ATOM     21  C   UNL     1      -1.392  -5.498  -5.438  0.00  0.00    +0.115 C 
BRANCH  21  22
ATOM     22  N   UNL     1      -1.378  -6.792  -6.124  0.00  0.00    -0.304 N 
ATOM     23  C   UNL     1      -2.477  -7.740  -5.923  0.00  0.00    +0.132 C 
ATOM     24  C   UNL     1      -0.355  -7.110  -6.942  0.00  0.00    +0.220 C 
ATOM     25  O   UNL     1       0.554  -6.325  -7.109  0.00  0.00    -0.275 OA
BRANCH  24  26
ATOM     26  C   UNL     1      -0.341  -8.441  -7.648  0.00  0.00    +0.131 C 
BRANCH  26  27
ATOM     27  C   UNL     1       0.902  -8.548  -8.494  0.00  0.00    -0.036 A 
ATOM     28  C   UNL     1       0.886  -8.107  -9.804  0.00  0.00    +0.004 A 
ATOM     29  C   UNL     1       2.025  -8.204 -10.581  0.00  0.00    +0.003 A 
ATOM     30  C   UNL     1       3.181  -8.742 -10.049  0.00  0.00    +0.038 A 
ATOM     31  C   UNL     1       3.199  -9.184  -8.737  0.00  0.00    +0.124 A 
ATOM     32  C   UNL     1       2.059  -9.081  -7.957  0.00  0.00    +0.042 A 
ATOM     33  F   UNL     1       4.329  -9.710  -8.216  0.00  0.00    -0.205 F 
ENDBRANCH  26  27
ENDBRANCH  24  26
ENDBRANCH  21  22
ENDBRANCH  20  21
ENDBRANCH   3  20
TORSDOF 7
