REMARK  Name = ZINC39324513
REMARK  14 active torsions:
REMARK  status: ('A' for Active; 'I' for Inactive)
REMARK    1  A    between atoms: C_1  and  C_2
REMARK    2  A    between atoms: C_2  and  N_3
REMARK    3  A    between atoms: C_6  and  C_7
REMARK    4  A    between atoms: C_12  and  O_13
REMARK    5  A    between atoms: O_13  and  C_14
REMARK    6  A    between atoms: C_14  and  C_15
REMARK    7  A    between atoms: C_14  and  C_16
REMARK    8  A    between atoms: C_20  and  C_28
REMARK    9  A    between atoms: C_22  and  C_26
REMARK   10  A    between atoms: C_23  and  N_25
REMARK   11  A    between atoms: C_33  and  O_34
REMARK   12  A    between atoms: O_34  and  C_35
REMARK   13  A    between atoms: C_35  and  C_36
REMARK   14  A    between atoms: C_35  and  C_37
REMARK                            x       y       z     vdW  Elec       q    Type
REMARK                         _______ _______ _______ _____ _____    ______ ____
ROOT
ATOM      1  N   UNL     1      -1.901  -0.003   3.042  0.00  0.00    -0.294 NA
ATOM      2  C   UNL     1      -2.774   0.256   4.202  0.00  0.00    +0.123 C 
ATOM      3  C   UNL     1      -4.168  -0.190   3.812  0.00  0.00    +0.010 C 
ATOM      4  C   UNL     1      -5.251   0.532   4.151  0.00  0.00    +0.020 C 
ATOM      5  C   UNL     1      -4.294  -1.447   3.046  0.00  0.00    +0.136 C 
ATOM      6  C   UNL     1      -3.201  -2.029   2.548  0.00  0.00    -0.000 C 
ATOM      7  C   UNL     1      -1.831  -1.437   2.757  0.00  0.00    +0.120 C 
ATOM      8  C   UNL     1      -3.314  -3.308   1.755  0.00  0.00    +0.099 C 
ATOM      9  C   UNL     1      -4.634  -3.974   2.018  0.00  0.00    +0.098 C 
ATOM     10  C   UNL     1      -5.665  -3.277   2.559  0.00  0.00    +0.199 C 
ATOM     11  O   UNL     1      -5.529  -1.977   2.872  0.00  0.00    -0.441 OA
ENDROOT
BRANCH   4  12
ATOM     12  C   UNL     1      -5.111   1.699   5.038  0.00  0.00    +0.017 A 
ATOM     13  C   UNL     1      -4.158   1.694   6.060  0.00  0.00    +0.011 A 
ATOM     14  C   UNL     1      -4.031   2.791   6.886  0.00  0.00    +0.001 A 
ATOM     15  C   UNL     1      -4.845   3.897   6.708  0.00  0.00    +0.004 A 
ATOM     16  C   UNL     1      -5.791   3.914   5.701  0.00  0.00    +0.046 A 
ATOM     17  C   UNL     1      -5.928   2.824   4.858  0.00  0.00    +0.128 A 
BRANCH  17  18
ATOM     18  O   UNL     1      -6.854   2.843   3.864  0.00  0.00    -0.489 OA
BRANCH  18  19
ATOM     19  C   UNL     1      -7.648   4.024   3.739  0.00  0.00    +0.167 C 
ATOM     20  C   UNL     1      -6.880   5.070   2.928  0.00  0.00    +0.051 C 
ATOM     21  C   UNL     1      -8.958   3.685   3.025  0.00  0.00    +0.051 C 
ENDBRANCH  18  19
ENDBRANCH  17  18
ENDBRANCH   4  12
BRANCH   8  22
ATOM     22  C   UNL     1      -3.202  -2.995   0.285  0.00  0.00    +0.007 A 
ATOM     23  C   UNL     1      -4.112  -2.144  -0.311  0.00  0.00    +0.008 A 
ATOM     24  C   UNL     1      -4.011  -1.857  -1.660  0.00  0.00    +0.001 A 
ATOM     25  C   UNL     1      -2.998  -2.420  -2.415  0.00  0.00    +0.004 A 
ATOM     26  C   UNL     1      -2.086  -3.271  -1.823  0.00  0.00    +0.046 A 
ATOM     27  C   UNL     1      -2.182  -3.557  -0.469  0.00  0.00    +0.125 A 
BRANCH  27  28
ATOM     28  O   UNL     1      -1.282  -4.389   0.117  0.00  0.00    -0.489 OA
BRANCH  28  29
ATOM     29  C   UNL     1      -0.307  -4.994  -0.736  0.00  0.00    +0.167 C 
ATOM     30  C   UNL     1       0.851  -4.019  -0.958  0.00  0.00    +0.051 C 
ATOM     31  C   UNL     1       0.221  -6.272  -0.081  0.00  0.00    +0.051 C 
ENDBRANCH  28  29
ENDBRANCH  27  28
ENDBRANCH   8  22
BRANCH  10  32
ATOM     32  N   UNL     1      -6.862  -3.908   2.789  0.00  0.00    -0.328 N 
ATOM     33  H   UNL     1      -6.967  -4.846   2.566  0.00  0.00    +0.145 HD
ATOM     34  H   UNL     1      -7.604  -3.415   3.175  0.00  0.00    +0.145 HD
ENDBRANCH  10  32
BRANCH   1  36
ATOM     35  C   UNL     1      -0.645   2.084   3.305  0.00  0.00    +0.020 C 
ATOM     36  C   UNL     1      -0.560   0.557   3.258  0.00  0.00    +0.082 C 
ENDBRANCH   1  36
BRANCH   9  37
ATOM     37  C   UNL     1      -4.807  -5.358   1.695  0.00  0.00    +0.101 C 
ATOM     38  N   UNL     1      -4.944  -6.457   1.439  0.00  0.00    -0.191 NA
ENDBRANCH   9  37
TORSDOF 9
