REMARK  Name = ZINC36584091
REMARK  20 active torsions:
REMARK  status: ('A' for Active; 'I' for Inactive)
REMARK    1  A    between atoms: C_1  and  C_2
REMARK    2  A    between atoms: C_2  and  C_3
REMARK    3  A    between atoms: C_2  and  C_4
REMARK    4  A    between atoms: C_2  and  C_5
REMARK    5  A    between atoms: C_5  and  C_6
REMARK    6  A    between atoms: C_6  and  C_7
REMARK    7  A    between atoms: C_6  and  C_8
REMARK    8  A    between atoms: C_6  and  N_9
REMARK    9  A    between atoms: C_10  and  C_12
REMARK   10  A    between atoms: C_12  and  C_14
REMARK   11  A    between atoms: C_12  and  N_23
REMARK   12  A    between atoms: C_15  and  O_22
REMARK   13  A    between atoms: C_17  and  O_21
REMARK   14  A    between atoms: C_19  and  O_20
REMARK   15  A    between atoms: N_23  and  C_33
REMARK   16  A    between atoms: C_24  and  C_26
REMARK   17  A    between atoms: C_31  and  O_32
REMARK   18  A    between atoms: C_33  and  C_34
REMARK   19  A    between atoms: C_33  and  C_35
REMARK   20  A    between atoms: C_33  and  C_36
REMARK                            x       y       z     vdW  Elec       q    Type
REMARK                         _______ _______ _______ _____ _____    ______ ____
ROOT
ATOM      1  C   UNL     1       3.966  -0.788  -2.087  0.00  0.00    +0.200 C 
ENDROOT
BRANCH   1   2
ATOM      2  C   UNL     1       2.935  -0.305  -3.075  0.00  0.00    +0.065 A 
ATOM      3  C   UNL     1       3.107   0.913  -3.715  0.00  0.00    +0.129 A 
ATOM      4  C   UNL     1       2.158   1.357  -4.625  0.00  0.00    +0.091 A 
ATOM      5  C   UNL     1       1.040   0.583  -4.894  0.00  0.00    +0.124 A 
ATOM      6  C   UNL     1       0.869  -0.635  -4.254  0.00  0.00    +0.091 A 
ATOM      7  C   UNL     1       1.819  -1.081  -3.348  0.00  0.00    +0.129 A 
BRANCH   7   8
ATOM      8  O   UNL     1       1.654  -2.277  -2.724  0.00  0.00    -0.506 OA
ATOM      9  H   UNL     1       1.168  -2.223  -1.890  0.00  0.00    +0.292 HD
ENDBRANCH   7   8
BRANCH   5  10
ATOM     10  O   UNL     1       0.110   1.019  -5.784  0.00  0.00    -0.507 OA
ATOM     11  H   UNL     1       0.278   0.742  -6.695  0.00  0.00    +0.292 HD
ENDBRANCH   5  10
BRANCH   3  12
ATOM     12  O   UNL     1       4.203   1.671  -3.452  0.00  0.00    -0.506 OA
ATOM     13  H   UNL     1       4.930   1.542  -4.076  0.00  0.00    +0.292 HD
ENDBRANCH   3  12
ENDBRANCH   1   2
BRANCH   1  15
ATOM     14  N   UNL     1       2.421  -0.714  -0.156  0.00  0.00    -0.308 N 
ATOM     15  C   UNL     1       3.590  -0.325  -0.703  0.00  0.00    +0.239 C 
ATOM     16  O   UNL     1       4.340   0.398  -0.081  0.00  0.00    -0.273 OA
ATOM     17  H   UNL     1       1.821  -1.291  -0.654  0.00  0.00    +0.149 HD
BRANCH  14  18
ATOM     18  C   UNL     1       2.056  -0.263   1.189  0.00  0.00    +0.030 C 
ATOM     19  C   UNL     1       1.991   1.265   1.216  0.00  0.00    +0.031 C 
ATOM     20  C   UNL     1       3.106  -0.747   2.191  0.00  0.00    +0.031 C 
BRANCH  18  21
ATOM     21  C   UNL     1       0.689  -0.838   1.566  0.00  0.00    +0.031 C 
BRANCH  21  23
ATOM     22  C   UNL     1      -0.133  -1.482  -0.704  0.00  0.00    +0.010 C 
ATOM     23  C   UNL     1      -0.322  -0.513   0.464  0.00  0.00    -0.036 C 
ATOM     24  C   UNL     1      -0.103   0.921  -0.022  0.00  0.00    +0.010 C 
ATOM     25  C   UNL     1      -1.742  -0.652   1.018  0.00  0.00    +0.010 C 
ENDBRANCH  21  23
ENDBRANCH  18  21
ENDBRANCH  14  18
ENDBRANCH   1  15
BRANCH   1  26
ATOM     26  N   UNL     1       5.278  -0.244  -2.444  0.00  0.00    -0.277 N 
ATOM     27  C   UNL     1       5.734  -0.360  -3.707  0.00  0.00    +0.251 C 
ATOM     28  O   UNL     1       6.750   0.219  -4.042  0.00  0.00    -0.270 OA
BRANCH  27  29
ATOM     29  C   UNL     1       5.002  -1.189  -4.683  0.00  0.00    +0.078 A 
ATOM     30  C   UNL     1       3.960  -2.018  -4.259  0.00  0.00    +0.017 A 
ATOM     31  C   UNL     1       3.280  -2.790  -5.175  0.00  0.00    +0.001 A 
ATOM     32  C   UNL     1       3.623  -2.747  -6.517  0.00  0.00    +0.004 A 
ATOM     33  C   UNL     1       4.650  -1.933  -6.949  0.00  0.00    +0.046 A 
ATOM     34  C   UNL     1       5.342  -1.145  -6.042  0.00  0.00    +0.129 A 
BRANCH  34  35
ATOM     35  O   UNL     1       6.348  -0.340  -6.466  0.00  0.00    -0.506 OA
ATOM     36  H   UNL     1       7.218  -0.763  -6.465  0.00  0.00    +0.292 HD
ENDBRANCH  34  35
ENDBRANCH  27  29
BRANCH  26  37
ATOM     37  C   UNL     1       6.094   0.427  -1.429  0.00  0.00    +0.030 C 
ATOM     38  C   UNL     1       6.211  -0.470  -0.195  0.00  0.00    +0.031 C 
ATOM     39  C   UNL     1       7.489   0.700  -1.995  0.00  0.00    +0.031 C 
ATOM     40  C   UNL     1       5.435   1.750  -1.037  0.00  0.00    +0.031 C 
ENDBRANCH  26  37
ENDBRANCH   1  26
TORSDOF 12
