REMARK  Name = ZINC46747379
REMARK  6 active torsions:
REMARK  status: ('A' for Active; 'I' for Inactive)
REMARK    1  A    between atoms: C_1  and  O_2
REMARK    2  A    between atoms: O_2  and  C_3
REMARK    3  A    between atoms: C_3  and  C_5
REMARK    4  A    between atoms: C_7  and  C_11
REMARK    5  A    between atoms: C_17  and  C_19
REMARK    6  A    between atoms: C_19  and  N_20
REMARK                            x       y       z     vdW  Elec       q    Type
REMARK                         _______ _______ _______ _____ _____    ______ ____
ROOT
ATOM      1  C   UNL     1       1.530  -5.327  -2.588  0.00  0.00    +0.082 A 
ATOM      2  C   UNL     1       1.302  -6.610  -2.177  0.00  0.00    +0.077 A 
ATOM      3  S   UNL     1       2.072  -7.526  -3.503  0.00  0.00    -0.060 S 
ATOM      4  C   UNL     1       2.592  -6.217  -4.423  0.00  0.00    +0.165 A 
ATOM      5  N   UNL     1       2.181  -5.177  -3.734  0.00  0.00    -0.225 NA
ATOM      6  N   UNL     1       3.285  -6.233  -5.628  0.00  0.00    -0.263 N 
ATOM      7  C   UNL     1       3.620  -7.407  -6.197  0.00  0.00    +0.236 C 
ATOM      8  O   UNL     1       3.317  -8.451  -5.658  0.00  0.00    -0.274 OA
ATOM      9  H   UNL     1       3.527  -5.398  -6.059  0.00  0.00    +0.157 HD
ENDROOT
BRANCH   1  12
ATOM     10  C   UNL     1       0.659  -2.065  -1.123  0.00  0.00    +0.125 A 
ATOM     11  C   UNL     1       1.241  -2.804  -2.129  0.00  0.00    +0.044 A 
ATOM     12  C   UNL     1       1.065  -4.160  -1.795  0.00  0.00    +0.019 A 
ATOM     13  C   UNL     1       0.389  -4.207  -0.610  0.00  0.00    +0.093 A 
ATOM     14  N   UNL     1       0.146  -2.946  -0.197  0.00  0.00    -0.355 N 
ATOM     15  H   UNL     1      -0.318  -2.700   0.619  0.00  0.00    +0.166 HD
BRANCH  10  16
ATOM     16  C   UNL     1       0.601  -0.603  -1.048  0.00  0.00    +0.355 C 
ATOM     17  O   UNL     1       1.094   0.071  -1.932  0.00  0.00    -0.243 OA
BRANCH  16  19
ATOM     18  C   UNL     1      -0.017   1.425   0.010  0.00  0.00    +0.280 C 
ATOM     19  O   UNL     1       0.002  -0.004   0.002  0.00  0.00    -0.463 OA
ENDBRANCH  16  19
ENDBRANCH  10  16
ENDBRANCH   1  12
BRANCH   7  20
ATOM     20  C   UNL     1       4.372  -7.425  -7.503  0.00  0.00    +0.209 C 
BRANCH  20  21
ATOM     21  N   UNL     1       4.615  -8.811  -7.909  0.00  0.00    -0.257 N 
ATOM     22  C   UNL     1       5.777  -9.480  -7.498  0.00  0.00    +0.079 A 
ATOM     23  C   UNL     1       6.552  -8.982  -6.464  0.00  0.00    +0.028 A 
ATOM     24  C   UNL     1       7.696  -9.656  -6.075  0.00  0.00    +0.017 A 
ATOM     25  C   UNL     1       8.066 -10.825  -6.716  0.00  0.00    +0.021 A 
ATOM     26  C   UNL     1       7.295 -11.328  -7.750  0.00  0.00    +0.062 A 
ATOM     27  C   UNL     1       6.149 -10.659  -8.143  0.00  0.00    +0.144 A 
ATOM     28  O   UNL     1       5.378 -11.140  -9.155  0.00  0.00    -0.481 OA
ATOM     29  C   UNL     1       3.971 -10.904  -9.058  0.00  0.00    +0.325 C 
ATOM     30  C   UNL     1       3.720  -9.467  -8.679  0.00  0.00    +0.258 C 
ATOM     31  O   UNL     1       2.720  -8.901  -9.067  0.00  0.00    -0.271 OA
ATOM     32 BR   UNL     1       9.632 -11.739  -6.178  0.00  0.00    -0.050 Br
ENDBRANCH  20  21
ENDBRANCH   7  20
TORSDOF 5
