REMARK  Name = ZINC36027781
REMARK  14 active torsions:
REMARK  status: ('A' for Active; 'I' for Inactive)
REMARK    1  A    between atoms: C_1  and  C_2
REMARK    2  A    between atoms: C_2  and  C_3
REMARK    3  A    between atoms: C_3  and  C_5
REMARK    4  A    between atoms: C_3  and  C_6
REMARK    5  A    between atoms: N_10  and  C_28
REMARK    6  A    between atoms: C_18  and  C_20
REMARK    7  A    between atoms: C_24  and  O_26
REMARK    8  A    between atoms: O_26  and  C_27
REMARK    9  A    between atoms: C_28  and  C_29
REMARK   10  A    between atoms: C_29  and  C_30
REMARK   11  A    between atoms: C_33  and  O_38
REMARK   12  A    between atoms: C_34  and  O_36
REMARK   13  A    between atoms: O_36  and  C_37
REMARK   14  A    between atoms: O_38  and  C_39
REMARK                            x       y       z     vdW  Elec       q    Type
REMARK                         _______ _______ _______ _____ _____    ______ ____
ROOT
ATOM      1  C   UNL     1       1.034  -1.448  -1.700  0.00  0.00    +0.022 C 
ATOM      2  C   UNL     1      -0.211  -2.306  -1.623  0.00  0.00    +0.201 C 
ATOM      3  O   UNL     1      -1.191  -2.073  -0.947  0.00  0.00    -0.277 OA
ATOM      4  N   UNL     1      -0.046  -3.373  -2.432  0.00  0.00    -0.313 N 
ATOM      5  C   UNL     1       1.270  -3.303  -3.072  0.00  0.00    +0.006 C 
ATOM      6  N   UNL     1       1.736  -1.907  -2.923  0.00  0.00    +0.401 N 
ATOM      7  C   UNL     1       2.247  -4.248  -2.375  0.00  0.00    +0.025 C 
ATOM      8  C   UNL     1       1.737  -5.688  -2.498  0.00  0.00    +0.108 C 
ATOM      9  N   UNL     1       1.504  -5.986  -3.918  0.00  0.00    -0.298 N 
ATOM     10  C   UNL     1       0.637  -5.090  -4.696  0.00  0.00    +0.108 C 
ATOM     11  C   UNL     1       1.156  -3.656  -4.554  0.00  0.00    +0.025 C 
ATOM     12  C   UNL     1       2.075  -7.062  -4.496  0.00  0.00    +0.247 C 
ATOM     13  O   UNL     1       1.957  -7.243  -5.692  0.00  0.00    -0.270 OA
ATOM     14  H   UNL     1       1.462  -1.353  -3.721  0.00  0.00    -0.082 HD
ATOM     15  H   UNL     1       2.736  -1.875  -2.793  0.00  0.00    -0.082 HD
ENDROOT
BRANCH  12  16
ATOM     16  C   UNL     1       2.843  -8.021  -3.675  0.00  0.00    +0.040 A 
ATOM     17  C   UNL     1       4.045  -8.547  -4.153  0.00  0.00    +0.013 A 
ATOM     18  C   UNL     1       4.759  -9.443  -3.384  0.00  0.00    +0.004 A 
ATOM     19  C   UNL     1       4.289  -9.822  -2.140  0.00  0.00    +0.045 A 
ATOM     20  C   UNL     1       3.096  -9.304  -1.656  0.00  0.00    +0.121 A 
ATOM     21  C   UNL     1       2.373  -8.400  -2.417  0.00  0.00    +0.058 A 
BRANCH  20  22
ATOM     22  O   UNL     1       2.638  -9.681  -0.433  0.00  0.00    -0.495 OA
ATOM     23  C   UNL     1       3.436 -10.613   0.300  0.00  0.00    +0.277 C 
ENDBRANCH  20  22
ENDBRANCH  12  16
BRANCH   1  24
ATOM     24  C   UNL     1       0.656   0.029  -1.825  0.00  0.00    -0.020 C 
ATOM     25  C   UNL     1      -0.334   0.207  -2.978  0.00  0.00    +0.006 C 
BRANCH  24  27
ATOM     26  C   UNL     1      -0.254   2.007  -0.600  0.00  0.00    +0.004 C 
ATOM     27  C   UNL     1       0.010   0.502  -0.521  0.00  0.00    -0.001 C 
ENDBRANCH  24  27
ENDBRANCH   1  24
BRANCH   4  28
ATOM     28  C   UNL     1      -1.031  -4.438  -2.638  0.00  0.00    +0.110 C 
BRANCH  28  29
ATOM     29  C   UNL     1      -1.983  -4.040  -3.768  0.00  0.00    +0.054 C 
BRANCH  29  30
ATOM     30  C   UNL     1      -2.970  -5.153  -4.009  0.00  0.00    -0.042 A 
ATOM     31  C   UNL     1      -2.672  -6.154  -4.915  0.00  0.00    +0.007 A 
ATOM     32  C   UNL     1      -3.573  -7.178  -5.140  0.00  0.00    +0.049 A 
ATOM     33  C   UNL     1      -4.778  -7.203  -4.456  0.00  0.00    +0.161 A 
ATOM     34  C   UNL     1      -5.077  -6.196  -3.543  0.00  0.00    +0.162 A 
ATOM     35  C   UNL     1      -4.167  -5.175  -3.319  0.00  0.00    +0.053 A 
BRANCH  34  36
ATOM     36  O   UNL     1      -6.258  -6.216  -2.869  0.00  0.00    -0.491 OA
ATOM     37  C   UNL     1      -6.498  -5.151  -1.948  0.00  0.00    +0.277 C 
ENDBRANCH  34  36
BRANCH  33  38
ATOM     38  O   UNL     1      -5.666  -8.209  -4.676  0.00  0.00    -0.491 OA
ATOM     39  C   UNL     1      -5.292  -9.207  -5.628  0.00  0.00    +0.277 C 
ENDBRANCH  33  38
ENDBRANCH  29  30
ENDBRANCH  28  29
ENDBRANCH   4  28
TORSDOF 9
