REMARK  Name = ZINC42334852
REMARK  5 active torsions:
REMARK  status: ('A' for Active; 'I' for Inactive)
REMARK    1  A    between atoms: C_1  and  C_2
REMARK    2  A    between atoms: C_5  and  S_9
REMARK    3  A    between atoms: C_6  and  N_8
REMARK    4  A    between atoms: S_9  and  C_10
REMARK    5  A    between atoms: C_10  and  C_18
REMARK                            x       y       z     vdW  Elec       q    Type
REMARK                         _______ _______ _______ _____ _____    ______ ____
ROOT
ATOM      1  S   UNL     1       0.165  -4.388  -0.092  0.00  0.00    -0.105 S 
ENDROOT
BRANCH   1   2
ATOM      2  C   UNL     1      -0.095  -4.962  -1.793  0.00  0.00    +0.125 C 
ATOM      3  C   UNL     1       1.107  -4.566  -2.646  0.00  0.00    +0.052 C 
ATOM      4  C   UNL     1       0.796  -4.797  -4.127  0.00  0.00    +0.168 C 
ATOM      5  S   UNL     1       0.516  -6.572  -4.399  0.00  0.00    -0.031 S 
ATOM      6  O   UNL     1      -0.041  -6.749  -5.694  0.00  0.00    -0.174 OA
ATOM      7  O   UNL     1       1.701  -7.275  -4.053  0.00  0.00    -0.174 OA
ATOM      8  C   UNL     1      -0.763  -6.947  -3.164  0.00  0.00    +0.168 C 
ATOM      9  C   UNL     1      -0.279  -6.477  -1.790  0.00  0.00    +0.052 C 
BRANCH   2  10
ATOM     10  C   UNL     1      -1.335  -4.313  -2.352  0.00  0.00    +0.372 C 
ATOM     11  O   UNL     1      -1.993  -3.557  -1.658  0.00  0.00    -0.245 OA
ATOM     12  O   UNL     1      -1.680  -4.544  -3.499  0.00  0.00    -0.245 OA
ENDBRANCH   2  10
ENDBRANCH   1   2
BRANCH   1  17
ATOM     13  C   UNL     1       0.772   1.595  -0.651  0.00  0.00    +0.044 C 
ATOM     14  C   UNL     1       0.622   0.102  -0.508  0.00  0.00    -0.049 A 
ATOM     15  C   UNL     1       0.277  -0.663  -1.606  0.00  0.00    +0.004 A 
ATOM     16  C   UNL     1       0.137  -2.033  -1.482  0.00  0.00    +0.017 A 
ATOM     17  C   UNL     1       0.343  -2.643  -0.254  0.00  0.00    +0.030 A 
ATOM     18  C   UNL     1       0.691  -1.870   0.854  0.00  0.00    +0.038 A 
ATOM     19  C   UNL     1       0.835  -0.497   0.719  0.00  0.00    +0.027 A 
BRANCH  18  20
ATOM     20  N   UNL     1       0.900  -2.479   2.098  0.00  0.00    -0.357 N 
ATOM     21  H   UNL     1       0.803  -3.439   2.190  0.00  0.00    +0.142 HD
ATOM     22  H   UNL     1       1.143  -1.940   2.867  0.00  0.00    +0.142 HD
ENDBRANCH  18  20
ENDBRANCH   1  17
TORSDOF 4
