REMARK  Name = ZINC05307208
REMARK  9 active torsions:
REMARK  status: ('A' for Active; 'I' for Inactive)
REMARK    1  A    between atoms: C_1  and  C_2
REMARK    2  A    between atoms: C_2  and  C_4
REMARK    3  A    between atoms: C_2  and  O_18
REMARK    4  A    between atoms: N_6  and  C_7
REMARK    5  A    between atoms: C_9  and  N_15
REMARK    6  A    between atoms: C_12  and  O_13
REMARK    7  A    between atoms: O_13  and  C_14
REMARK    8  A    between atoms: O_18  and  C_19
REMARK    9  A    between atoms: C_19  and  C_21
REMARK                            x       y       z     vdW  Elec       q    Type
REMARK                         _______ _______ _______ _____ _____    ______ ____
ROOT
ATOM      1  C   UNL     1      -4.893  -0.156  -0.078  0.00  0.00    +0.258 C 
ATOM      2  O   UNL     1      -3.837  -0.752  -0.087  0.00  0.00    -0.271 OA
ATOM      3  N   UNL     1      -4.908   1.187   0.032  0.00  0.00    -0.279 N 
ATOM      4  H   UNL     1      -5.752   1.657   0.120  0.00  0.00    +0.155 HD
ENDROOT
BRANCH   3   5
ATOM      5  C   UNL     1      -3.705   1.904   0.019  0.00  0.00    +0.078 A 
ATOM      6  C   UNL     1      -2.582   1.369  -0.596  0.00  0.00    +0.059 A 
ATOM      7  C   UNL     1      -1.397   2.079  -0.608  0.00  0.00    +0.128 A 
ATOM      8  C   UNL     1      -1.324   3.320  -0.002  0.00  0.00    +0.036 A 
ATOM      9  C   UNL     1      -2.439   3.862   0.609  0.00  0.00    +0.050 A 
ATOM     10  C   UNL     1      -3.632   3.157   0.625  0.00  0.00    +0.141 A 
BRANCH   7  11
ATOM     11  N   UNL     1      -0.200   1.506  -1.264  0.00  0.00    +0.056 N 
ATOM     12  O   UNL     1      -0.261   0.411  -1.794  0.00  0.00    -0.126 OA
ATOM     13  O   UNL     1       0.845   2.133  -1.280  0.00  0.00    -0.126 OA
ENDBRANCH   7  11
BRANCH  10  14
ATOM     14  O   UNL     1      -4.729   3.686   1.230  0.00  0.00    -0.493 OA
ATOM     15  C   UNL     1      -4.580   4.974   1.829  0.00  0.00    +0.277 C 
ENDBRANCH  10  14
ENDBRANCH   3   5
BRANCH   1  17
ATOM     16  C   UNL     1      -7.042  -0.658   1.053  0.00  0.00    +0.062 C 
ATOM     17  C   UNL     1      -6.189  -0.918  -0.190  0.00  0.00    +0.259 C 
BRANCH  17  18
ATOM     18  O   UNL     1      -5.908  -2.338  -0.296  0.00  0.00    -0.448 OA
BRANCH  18  19
ATOM     19  C   UNL     1      -6.787  -3.086  -0.995  0.00  0.00    +0.347 C 
ATOM     20  O   UNL     1      -7.762  -2.564  -1.501  0.00  0.00    -0.244 OA
BRANCH  19  21
ATOM     21  C   UNL     1      -6.568  -4.526  -1.144  0.00  0.00    +0.097 A 
ATOM     22  C   UNL     1      -7.338  -5.461  -1.811  0.00  0.00    +0.026 A 
ATOM     23  C   UNL     1      -6.914  -6.780  -1.808  0.00  0.00    -0.036 A 
ATOM     24  C   UNL     1      -5.755  -7.052  -1.136  0.00  0.00    -0.006 A 
ATOM     25  S   UNL     1      -5.233  -5.532  -0.517  0.00  0.00    -0.086 S 
ATOM     26  C   UNL     1      -5.092  -8.386  -0.985  0.00  0.00    +0.043 C 
ATOM     27  C   UNL     1      -6.098  -9.475  -1.382  0.00  0.00    +0.005 C 
ATOM     28  C   UNL     1      -6.745  -9.086  -2.714  0.00  0.00    +0.005 C 
ATOM     29  C   UNL     1      -7.682  -7.896  -2.511  0.00  0.00    +0.036 C 
ENDBRANCH  19  21
ENDBRANCH  18  19
ENDBRANCH  17  18
ENDBRANCH   1  17
TORSDOF 7
