REMARK  Name = ZINC20206278
REMARK  10 active torsions:
REMARK  status: ('A' for Active; 'I' for Inactive)
REMARK    1  A    between atoms: C_1  and  O_2
REMARK    2  A    between atoms: O_2  and  C_3
REMARK    3  A    between atoms: C_5  and  C_20
REMARK    4  A    between atoms: C_7  and  C_17
REMARK    5  A    between atoms: C_8  and  O_9
REMARK    6  A    between atoms: O_9  and  C_10
REMARK    7  A    between atoms: C_10  and  C_11
REMARK    8  A    between atoms: C_17  and  C_18
REMARK    9  A    between atoms: C_31  and  S_32
REMARK   10  A    between atoms: S_32  and  C_35
REMARK                            x       y       z     vdW  Elec       q    Type
REMARK                         _______ _______ _______ _____ _____    ______ ____
ROOT
ATOM      1  C   UNL     1       1.521  -0.538  -0.673  0.00  0.00    +0.162 A 
ATOM      2  C   UNL     1       2.347   0.254  -1.445  0.00  0.00    +0.057 A 
ATOM      3  C   UNL     1       2.916  -0.267  -2.616  0.00  0.00    -0.020 A 
ATOM      4  C   UNL     1       2.642  -1.589  -2.996  0.00  0.00    +0.015 A 
ATOM      5  C   UNL     1       1.816  -2.369  -2.219  0.00  0.00    +0.002 A 
ATOM      6  C   UNL     1       1.258  -1.854  -1.055  0.00  0.00    +0.166 A 
ENDROOT
BRANCH   3   7
ATOM      7  C   UNL     1       3.793   0.567  -3.441  0.00  0.00    +0.024 C 
ATOM      8  C   UNL     1       4.933   0.030  -3.995  0.00  0.00    +0.078 C 
ATOM      9  C   UNL     1       5.754   0.779  -4.989  0.00  0.00    +0.117 C 
ATOM     10  N   UNL     1       5.888   2.077  -4.979  0.00  0.00    -0.386 N 
ATOM     11  N   UNL     1       6.372  -0.058  -5.941  0.00  0.00    -0.203 N 
ATOM     12  C   UNL     1       6.583  -1.380  -5.613  0.00  0.00    +0.183 C 
ATOM     13  N   UNL     1       6.176  -1.992  -4.524  0.00  0.00    -0.152 NA
ATOM     14  C   UNL     1       5.417  -1.325  -3.631  0.00  0.00    +0.273 C 
ATOM     15  O   UNL     1       5.130  -1.823  -2.555  0.00  0.00    -0.268 OA
ATOM     16  S   UNL     1       7.436  -1.965  -6.921  0.00  0.00    +0.049 S 
ATOM     17  N   UNL     1       7.421  -0.598  -7.889  0.00  0.00    -0.174 NA
ATOM     18  C   UNL     1       6.806   0.293  -7.175  0.00  0.00    +0.257 C 
ATOM     19  H   UNL     1       5.425   2.607  -4.311  0.00  0.00    +0.157 HD
ATOM     20  H   UNL     1       6.450   2.512  -5.639  0.00  0.00    +0.157 HD
BRANCH  18  21
ATOM     21  S   UNL     1       6.540   1.921  -7.795  0.00  0.00    +0.026 S 
ATOM     22  O   UNL     1       6.681   1.800  -9.203  0.00  0.00    -0.167 OA
ATOM     23  O   UNL     1       5.306   2.330  -7.223  0.00  0.00    -0.167 OA
ATOM     24  C   UNL     1       7.902   2.907  -7.113  0.00  0.00    +0.203 C 
ENDBRANCH  18  21
ENDBRANCH   3   7
BRANCH   1  26
ATOM     25  C   UNL     1       1.279   1.318   0.794  0.00  0.00    +0.277 C 
ATOM     26  O   UNL     1       0.967  -0.036   0.463  0.00  0.00    -0.491 OA
ENDBRANCH   1  26
BRANCH   6  27
ATOM     27  O   UNL     1       0.450  -2.631  -0.290  0.00  0.00    -0.483 OA
BRANCH  27  28
ATOM     28  C   UNL     1       1.056  -3.311   0.811  0.00  0.00    +0.264 C 
BRANCH  28  29
ATOM     29  C   UNL     1      -0.007  -4.020   1.610  0.00  0.00    -0.010 A 
ATOM     30  C   UNL     1      -0.639  -3.368   2.652  0.00  0.00    +0.007 A 
ATOM     31  C   UNL     1      -1.614  -4.019   3.385  0.00  0.00    +0.000 A 
ATOM     32  C   UNL     1      -1.957  -5.322   3.075  0.00  0.00    +0.000 A 
ATOM     33  C   UNL     1      -1.325  -5.974   2.033  0.00  0.00    +0.000 A 
ATOM     34  C   UNL     1      -0.353  -5.322   1.297  0.00  0.00    +0.007 A 
ENDBRANCH  28  29
ENDBRANCH  27  28
ENDBRANCH   6  27
BRANCH   5  35
ATOM     35  C   UNL     1       1.522  -3.790  -2.627  0.00  0.00    +0.065 C 
BRANCH  35  36
ATOM     36  C   UNL     1       0.246  -3.829  -3.427  0.00  0.00    -0.030 C 
ATOM     37  C   UNL     1       0.243  -4.341  -4.633  0.00  0.00    +0.004 C 
ENDBRANCH  35  36
ENDBRANCH   5  35
TORSDOF 8
