REMARK  Name = ZINC20689735
REMARK  6 active torsions:
REMARK  status: ('A' for Active; 'I' for Inactive)
REMARK    1  A    between atoms: C_1  and  C_2
REMARK    2  A    between atoms: C_5  and  C_7
REMARK    3  A    between atoms: C_18  and  S_23
REMARK    4  A    between atoms: S_23  and  N_26
REMARK    5  A    between atoms: N_26  and  C_27
REMARK    6  A    between atoms: C_27  and  C_28
REMARK                            x       y       z     vdW  Elec       q    Type
REMARK                         _______ _______ _______ _____ _____    ______ ____
ROOT
ATOM      1  C   UNL     1      -1.155  -0.969   0.007  0.00  0.00    +0.111 C 
ATOM      2  C   UNL     1      -1.413  -1.487  -1.396  0.00  0.00    +0.029 C 
ATOM      3  C   UNL     1      -1.932  -0.480  -2.431  0.00  0.00    +0.033 C 
ATOM      4  C   UNL     1      -2.745  -1.383  -3.360  0.00  0.00    -0.030 C 
ATOM      5  C   UNL     1      -3.162  -2.456  -2.698  0.00  0.00    -0.023 C 
ATOM      6  C   UNL     1      -2.687  -2.377  -1.283  0.00  0.00    +0.049 C 
ATOM      7  C   UNL     1      -2.336  -3.571  -0.483  0.00  0.00    -0.018 A 
ATOM      8  C   UNL     1      -2.875  -4.814  -0.733  0.00  0.00    +0.034 A 
ATOM      9  C   UNL     1      -2.525  -5.897   0.052  0.00  0.00    +0.106 A 
ATOM     10  C   UNL     1      -1.631  -5.734   1.095  0.00  0.00    +0.030 A 
ATOM     11  C   UNL     1      -1.081  -4.495   1.350  0.00  0.00    +0.025 A 
ATOM     12  C   UNL     1      -1.421  -3.401   0.562  0.00  0.00    +0.031 A 
ATOM     13  N   UNL     1      -0.823  -2.161   0.818  0.00  0.00    -0.336 N 
ATOM     14  H   UNL     1      -0.095  -2.083   1.638  0.00  0.00    +0.147 HD
ENDROOT
BRANCH   1  19
ATOM     15  C   UNL     1       3.761   1.845  -0.025  0.00  0.00    +0.051 C 
ATOM     16  C   UNL     1       2.343   1.336  -0.013  0.00  0.00    -0.013 A 
ATOM     17  C   UNL     1       1.183   2.038   0.002  0.00  0.00    +0.011 A 
ATOM     18  C   UNL     1      -0.016   1.351   0.009  0.00  0.00    +0.013 A 
ATOM     19  C   UNL     1       0.002  -0.004   0.002  0.00  0.00    +0.010 A 
ATOM     20  S   UNL     1       1.754  -0.349  -0.017  0.00  0.00    -0.097 S 
ENDBRANCH   1  19
BRANCH   9  21
ATOM     21  S   UNL     1      -3.219  -7.483  -0.274  0.00  0.00    +0.058 S 
ATOM     22  O   UNL     1      -3.149  -8.215   0.942  0.00  0.00    -0.153 OA
ATOM     23  O   UNL     1      -4.444  -7.258  -0.959  0.00  0.00    -0.153 OA
BRANCH  21  24
ATOM     24  N   UNL     1      -2.212  -8.247  -1.345  0.00  0.00    -0.187 NA
ATOM     25  H   UNL     1      -2.517  -8.338  -2.398  0.00  0.00    +0.148 HD
BRANCH  24  26
ATOM     26  C   UNL     1      -0.848  -8.598  -0.944  0.00  0.00    +0.137 C 
BRANCH  26  27
ATOM     27  C   UNL     1      -0.265  -9.600  -1.942  0.00  0.00    +0.134 C 
ATOM     28  C   UNL     1       1.167 -10.012  -1.517  0.00  0.00    +0.035 C 
ATOM     29  C   UNL     1       1.287 -11.403  -2.199  0.00  0.00    +0.031 C 
ATOM     30  C   UNL     1      -0.157 -11.942  -2.104  0.00  0.00    +0.160 C 
ATOM     31  O   UNL     1      -1.027 -10.818  -1.928  0.00  0.00    -0.375 OA
ENDBRANCH  26  27
ENDBRANCH  24  26
ENDBRANCH  21  24
ENDBRANCH   9  21
TORSDOF 5
