REMARK  Name = ZINC06661438
REMARK  6 active torsions:
REMARK  status: ('A' for Active; 'I' for Inactive)
REMARK    1  A    between atoms: C_1  and  C_2
REMARK    2  A    between atoms: C_2  and  C_25
REMARK    3  A    between atoms: C_7  and  N_12
REMARK    4  A    between atoms: C_8  and  C_9
REMARK    5  A    between atoms: N_15  and  C_16
REMARK    6  A    between atoms: C_16  and  C_17
REMARK                            x       y       z     vdW  Elec       q    Type
REMARK                         _______ _______ _______ _____ _____    ______ ____
ROOT
ATOM      1  C   UNL     1      -4.635   5.829  10.422  0.00  0.00    +0.041 C 
ATOM      2  C   UNL     1      -5.701   4.739  10.550  0.00  0.00    +0.068 C 
ATOM      3  C   UNL     1      -5.137   3.413  10.031  0.00  0.00    +0.071 C 
ATOM      4  C   UNL     1      -4.988   3.524   8.518  0.00  0.00    -0.018 A 
ATOM      5  C   UNL     1      -5.646   4.497   7.847  0.00  0.00    +0.021 A 
ATOM      6  S   UNL     1      -5.189   4.266   6.155  0.00  0.00    -0.075 S 
ATOM      7  C   UNL     1      -4.148   2.892   6.331  0.00  0.00    +0.086 A 
ATOM      8  C   UNL     1      -4.172   2.648   7.699  0.00  0.00    +0.069 A 
ATOM      9  C   UNL     1      -6.551   5.525   8.449  0.00  0.00    +0.203 C 
ATOM     10  O   UNL     1      -6.855   5.114   9.791  0.00  0.00    -0.368 OA
ATOM     11  C   UNL     1      -6.090   4.584  12.021  0.00  0.00    +0.041 C 
ENDROOT
BRANCH   7  12
ATOM     12  N   UNL     1      -3.454   2.205   5.346  0.00  0.00    -0.263 N 
ATOM     13  C   UNL     1      -3.554   2.590   4.059  0.00  0.00    +0.304 C 
ATOM     14  O   UNL     1      -4.252   3.539   3.760  0.00  0.00    -0.252 OA
ATOM     15  N   UNL     1      -2.880   1.922   3.102  0.00  0.00    -0.297 N 
ATOM     16  H   UNL     1      -2.897   1.447   5.584  0.00  0.00    +0.157 HD
ATOM     17  H   UNL     1      -2.322   1.165   3.340  0.00  0.00    +0.150 HD
BRANCH  15  18
ATOM     18  C   UNL     1      -2.988   2.341   1.702  0.00  0.00    +0.137 C 
BRANCH  18  19
ATOM     19  C   UNL     1      -2.131   1.423   0.827  0.00  0.00    +0.135 C 
ATOM     20  C   UNL     1      -2.230   1.847  -0.655  0.00  0.00    +0.035 C 
ATOM     21  C   UNL     1      -0.804   1.620  -1.206  0.00  0.00    +0.031 C 
ATOM     22  C   UNL     1      -0.013   1.086   0.008  0.00  0.00    +0.160 C 
ATOM     23  O   UNL     1      -0.731   1.573   1.163  0.00  0.00    -0.375 OA
ENDBRANCH  18  19
ENDBRANCH  15  18
ENDBRANCH   7  12
BRANCH   8  24
ATOM     24  C   UNL     1      -3.404   1.549   8.290  0.00  0.00    +0.244 C 
ATOM     25  O   UNL     1      -2.261   1.739   8.666  0.00  0.00    -0.270 OA
ATOM     26  N   UNL     1      -3.962   0.329   8.418  0.00  0.00    -0.325 N 
ATOM     27  H   UNL     1      -4.872   0.178   8.119  0.00  0.00    +0.145 HD
ATOM     28  H   UNL     1      -3.453  -0.398   8.810  0.00  0.00    +0.145 HD
ENDBRANCH   8  24
TORSDOF 4
