REMARK  Name = ZINC63294962
REMARK  3 active torsions:
REMARK  status: ('A' for Active; 'I' for Inactive)
REMARK    1  A    between atoms: C_7  and  C_10
REMARK    2  A    between atoms: C_10  and  C_11
REMARK    3  A    between atoms: C_14  and  C_18
REMARK                            x       y       z     vdW  Elec       q    Type
REMARK                         _______ _______ _______ _____ _____    ______ ____
ROOT
ATOM      1  C   UNL     1       0.457  -3.653  -1.462  0.00  0.00    +0.154 C 
ATOM      2  N   UNL     1      -0.540  -4.750  -1.487  0.00  0.00    -0.265 NA
ATOM      3  C   UNL     1      -0.031  -5.674  -2.534  0.00  0.00    +0.297 C 
ATOM      4  O   UNL     1       1.402  -5.632  -2.347  0.00  0.00    -0.270 OA
ATOM      5  N   UNL     1       1.700  -4.224  -2.021  0.00  0.00    -0.181 NA
ATOM      6  H   UNL     1      -0.592  -5.212  -0.591  0.00  0.00    +0.126 HD
ATOM      7  H   UNL     1       1.994  -3.716  -2.842  0.00  0.00    +0.156 HD
ENDROOT
BRANCH   3   8
ATOM      8  C   UNL     1      -0.559  -7.068  -2.314  0.00  0.00    +0.261 C 
ATOM      9  O   UNL     1      -1.376  -7.535  -3.079  0.00  0.00    -0.271 OA
ATOM     10  N   UNL     1      -0.123  -7.796  -1.267  0.00  0.00    -0.298 N 
ATOM     11  C   UNL     1       0.861  -7.242  -0.328  0.00  0.00    +0.108 C 
ATOM     12  C   UNL     1       0.307  -7.363   1.095  0.00  0.00    +0.019 C 
ATOM     13  C   UNL     1      -0.071  -8.820   1.369  0.00  0.00    +0.003 C 
ATOM     14  C   UNL     1      -1.161  -9.259   0.388  0.00  0.00    +0.019 C 
ATOM     15  C   UNL     1      -0.628  -9.157  -1.040  0.00  0.00    +0.108 C 
ENDBRANCH   3   8
BRANCH   1  16
ATOM     16  C   UNL     1       0.691  -3.186  -0.024  0.00  0.00    +0.070 C 
BRANCH  16  23
ATOM     17  C   UNL     1      -0.016   1.348   0.009  0.00  0.00    +0.001 A 
ATOM     18  C   UNL     1       1.166   2.101   0.002  0.00  0.00    +0.002 A 
ATOM     19  C   UNL     1       2.391   1.535  -0.013  0.00  0.00    +0.026 A 
ATOM     20  C   UNL     1       2.529   0.120  -0.022  0.00  0.00    +0.043 A 
ATOM     21  N   UNL     1       3.587  -0.654  -0.037  0.00  0.00    -0.380 N 
ATOM     22  C   UNL     1       3.143  -2.053  -0.041  0.00  0.00    +0.144 C 
ATOM     23  C   UNL     1       1.631  -2.008  -0.025  0.00  0.00    -0.039 C 
ATOM     24  C   UNL     1       1.295  -0.698  -0.014  0.00  0.00    -0.001 A 
ATOM     25  C   UNL     1       0.002  -0.004   0.002  0.00  0.00    +0.010 A 
ATOM     26  H   UNL     1       4.509  -0.353  -0.045  0.00  0.00    +0.160 HD
ENDBRANCH  16  23
ENDBRANCH   1  16
TORSDOF 3
