REMARK  Name = ZINC04171989
REMARK  9 active torsions:
REMARK  status: ('A' for Active; 'I' for Inactive)
REMARK    1  A    between atoms: C_1  and  C_2
REMARK    2  A    between atoms: C_5  and  C_8
REMARK    3  A    between atoms: C_8  and  O_9
REMARK    4  A    between atoms: O_9  and  C_10
REMARK    5  A    between atoms: C_13  and  C_16
REMARK    6  A    between atoms: C_18  and  C_27
REMARK    7  A    between atoms: C_19  and  C_26
REMARK    8  A    between atoms: C_27  and  O_29
REMARK    9  A    between atoms: O_29  and  C_30
REMARK                            x       y       z     vdW  Elec       q    Type
REMARK                         _______ _______ _______ _____ _____    ______ ____
ROOT
ATOM      1  C   UNL     1       1.374  -6.198   0.240  0.00  0.00    +0.121 A 
ATOM      2  C   UNL     1       0.337  -7.097   0.038  0.00  0.00    +0.046 A 
ATOM      3  C   UNL     1       0.608  -8.445  -0.092  0.00  0.00    +0.009 A 
ATOM      4  C   UNL     1       1.912  -8.899  -0.021  0.00  0.00    -0.018 A 
ATOM      5  C   UNL     1       2.948  -8.005   0.181  0.00  0.00    +0.009 A 
ATOM      6  C   UNL     1       2.682  -6.655   0.306  0.00  0.00    +0.046 A 
ENDROOT
BRANCH   4   7
ATOM      7  C   UNL     1       2.205 -10.370  -0.163  0.00  0.00    +0.181 C 
ATOM      8  C   UNL     1       2.882 -10.870   1.087  0.00  0.00    +0.082 C 
ATOM      9  C   UNL     1       4.182 -11.201   1.134  0.00  0.00    +0.020 C 
ATOM     10  N   UNL     1       5.000 -11.119   0.035  0.00  0.00    -0.286 N 
ATOM     11  C   UNL     1       4.393 -10.929  -1.198  0.00  0.00    +0.240 A 
ATOM     12  N   UNL     1       3.084 -10.583  -1.307  0.00  0.00    -0.201 N 
ATOM     13  N   UNL     1       2.832 -10.492  -2.675  0.00  0.00    -0.042 NA
ATOM     14  N   UNL     1       3.946 -10.769  -3.272  0.00  0.00    -0.021 NA
ATOM     15  N   UNL     1       4.869 -11.025  -2.407  0.00  0.00    -0.092 NA
ATOM     16  C   UNL     1       4.764 -11.678   2.440  0.00  0.00    +0.061 C 
ATOM     17  H   UNL     1       5.964 -11.190   0.117  0.00  0.00    +0.155 HD
BRANCH   8  18
ATOM     18  C   UNL     1       2.112 -10.997   2.264  0.00  0.00    +0.339 C 
ATOM     19  O   UNL     1       1.407 -11.976   2.428  0.00  0.00    -0.245 OA
BRANCH  18  20
ATOM     20  O   UNL     1       2.158 -10.034   3.208  0.00  0.00    -0.465 OA
ATOM     21  C   UNL     1       1.353 -10.227   4.373  0.00  0.00    +0.280 C 
ENDBRANCH  18  20
ENDBRANCH   8  18
ENDBRANCH   4   7
BRANCH   1  22
ATOM     22  O   UNL     1       1.109  -4.871   0.368  0.00  0.00    -0.487 OA
BRANCH  22  23
ATOM     23  C   UNL     1      -0.261  -4.472   0.291  0.00  0.00    +0.264 C 
BRANCH  23  28
ATOM     24  C   UNL     1      -0.640   1.260   0.912  0.00  0.00    +0.044 C 
ATOM     25  C   UNL     1      -0.541  -0.234   0.750  0.00  0.00    -0.050 A 
ATOM     26  C   UNL     1      -0.388  -0.785  -0.509  0.00  0.00    +0.004 A 
ATOM     27  C   UNL     1      -0.297  -2.156  -0.657  0.00  0.00    +0.007 A 
ATOM     28  C   UNL     1      -0.359  -2.977   0.453  0.00  0.00    -0.010 A 
ATOM     29  C   UNL     1      -0.511  -2.427   1.712  0.00  0.00    +0.007 A 
ATOM     30  C   UNL     1      -0.597  -1.056   1.861  0.00  0.00    +0.004 A 
ENDBRANCH  23  28
ENDBRANCH  22  23
ENDBRANCH   1  22
TORSDOF 6
