REMARK  Name = ZINC26542329
REMARK  5 active torsions:
REMARK  status: ('A' for Active; 'I' for Inactive)
REMARK    1  A    between atoms: C_1  and  S_2
REMARK    2  A    between atoms: S_2  and  C_5
REMARK    3  A    between atoms: C_9  and  N_11
REMARK    4  A    between atoms: N_11  and  S_12
REMARK    5  A    between atoms: S_12  and  C_15
REMARK                            x       y       z     vdW  Elec       q    Type
REMARK                         _______ _______ _______ _____ _____    ______ ____
ROOT
ATOM      1  N   UNL     1       2.354   3.893   0.001  0.00  0.00    -0.095 NA
ENDROOT
BRANCH   1   6
ATOM      2  C   UNL     1      -1.150   2.869   0.438  0.00  0.00    +0.090 A 
ATOM      3  C   UNL     1      -1.014   1.495   0.518  0.00  0.00    +0.030 A 
ATOM      4  C   UNL     1       0.238   0.915   0.435  0.00  0.00    +0.042 A 
ATOM      5  C   UNL     1       1.358   1.706   0.262  0.00  0.00    +0.148 A 
ATOM      6  C   UNL     1       1.224   3.088   0.176  0.00  0.00    +0.111 A 
ATOM      7  C   UNL     1      -0.035   3.667   0.264  0.00  0.00    +0.056 A 
ATOM      8  F   UNL     1       2.581   1.139   0.176  0.00  0.00    -0.203 F 
BRANCH   2  10
ATOM      9  C   UNL     1      -3.351   3.672  -1.159  0.00  0.00    +0.200 C 
ATOM     10  S   UNL     1      -2.748   3.603   0.550  0.00  0.00    -0.006 S 
ATOM     11  O   UNL     1      -3.519   2.679   1.305  0.00  0.00    -0.170 OA
ATOM     12  O   UNL     1      -2.510   4.917   1.038  0.00  0.00    -0.170 OA
ENDBRANCH   2  10
ENDBRANCH   1   6
BRANCH   1  13
ATOM     13  S   UNL     1       2.432   5.380   0.725  0.00  0.00    +0.092 S 
ATOM     14  O   UNL     1       3.736   5.887   0.472  0.00  0.00    -0.148 OA
ATOM     15  O   UNL     1       1.256   6.080   0.344  0.00  0.00    -0.148 OA
BRANCH  13  16
ATOM     16  C   UNL     1       2.321   5.119   2.464  0.00  0.00    +0.116 A 
ATOM     17  C   UNL     1       1.087   5.115   3.084  0.00  0.00    +0.067 A 
ATOM     18  C   UNL     1       0.998   4.904   4.450  0.00  0.00    +0.128 A 
ATOM     19  C   UNL     1       2.148   4.708   5.196  0.00  0.00    +0.076 A 
ATOM     20  C   UNL     1       3.384   4.718   4.574  0.00  0.00    +0.128 A 
ATOM     21  C   UNL     1       3.470   4.923   3.207  0.00  0.00    +0.067 A 
ATOM     22  F   UNL     1       4.507   4.527   5.301  0.00  0.00    -0.205 F 
ATOM     23  F   UNL     1      -0.210   4.895   5.056  0.00  0.00    -0.205 F 
ENDBRANCH  13  16
ENDBRANCH   1  13
TORSDOF 4
