REMARK  Name = ZINC35296327
REMARK  6 active torsions:
REMARK  status: ('A' for Active; 'I' for Inactive)
REMARK    1  A    between atoms: C_4  and  S_7
REMARK    2  A    between atoms: S_7  and  C_8
REMARK    3  A    between atoms: C_13  and  N_14
REMARK    4  A    between atoms: C_15  and  C_17
REMARK    5  A    between atoms: C_17  and  N_18
REMARK    6  A    between atoms: C_27  and  C_29
REMARK                            x       y       z     vdW  Elec       q    Type
REMARK                         _______ _______ _______ _____ _____    ______ ____
ROOT
ATOM      1  N   UNL     1       5.990  -2.527  -0.197  0.00  0.00    -0.283 N 
ATOM      2  C   UNL     1       6.840  -3.568  -0.098  0.00  0.00    +0.231 C 
ATOM      3  O   UNL     1       6.407  -4.697   0.004  0.00  0.00    -0.274 OA
ATOM      4  H   UNL     1       6.334  -1.620  -0.206  0.00  0.00    +0.155 HD
ENDROOT
BRANCH   1  10
ATOM      5  C   UNL     1       3.807  -1.895  -1.037  0.00  0.00    +0.034 A 
ATOM      6  C   UNL     1       2.442  -2.129  -1.125  0.00  0.00    +0.017 A 
ATOM      7  C   UNL     1       1.882  -3.207  -0.466  0.00  0.00    +0.001 A 
ATOM      8  C   UNL     1       2.678  -4.055   0.283  0.00  0.00    +0.002 A 
ATOM      9  C   UNL     1       4.039  -3.829   0.377  0.00  0.00    +0.024 A 
ATOM     10  C   UNL     1       4.611  -2.754  -0.286  0.00  0.00    +0.047 A 
BRANCH   5  11
ATOM     11  S   UNL     1       4.525  -0.522  -1.877  0.00  0.00    -0.088 S 
BRANCH  11  15
ATOM     12  C   UNL     1       0.968   1.688  -3.603  0.00  0.00    +0.000 A 
ATOM     13  C   UNL     1       1.367   1.933  -2.301  0.00  0.00    +0.001 A 
ATOM     14  C   UNL     1       2.451   1.261  -1.772  0.00  0.00    +0.015 A 
ATOM     15  C   UNL     1       3.141   0.337  -2.548  0.00  0.00    +0.013 A 
ATOM     16  C   UNL     1       2.737   0.094  -3.855  0.00  0.00    +0.015 A 
ATOM     17  C   UNL     1       1.652   0.770  -4.378  0.00  0.00    +0.001 A 
ENDBRANCH  11  15
ENDBRANCH   5  11
ENDBRANCH   1  10
BRANCH   2  18
ATOM     18  C   UNL     1       8.328  -3.331  -0.114  0.00  0.00    +0.181 C 
BRANCH  18  19
ATOM     19  N   UNL     1       9.030  -4.616   0.007  0.00  0.00    -0.278 NA
ATOM     20  C   UNL     1       8.947  -5.380  -1.242  0.00  0.00    +0.121 C 
ATOM     21  C   UNL     1       9.752  -6.649  -1.138  0.00  0.00    -0.030 A 
ATOM     22  C   UNL     1       9.505  -7.663  -2.052  0.00  0.00    +0.005 A 
ATOM     23  C   UNL     1      10.221  -8.842  -1.996  0.00  0.00    +0.000 A 
ATOM     24  C   UNL     1      11.191  -9.013  -1.026  0.00  0.00    +0.000 A 
ATOM     25  C   UNL     1      11.436  -8.005  -0.115  0.00  0.00    +0.004 A 
ATOM     26  C   UNL     1      10.715  -6.822  -0.168  0.00  0.00    -0.041 A 
ATOM     27  C   UNL     1      11.010  -5.754   0.853  0.00  0.00    +0.063 C 
ATOM     28  C   UNL     1      10.437  -4.415   0.389  0.00  0.00    +0.148 C 
BRANCH  28  29
ATOM     29  C   UNL     1      10.518  -3.413   1.512  0.00  0.00    +0.228 C 
ATOM     30  O   UNL     1       9.630  -3.352   2.336  0.00  0.00    -0.274 OA
ATOM     31  N   UNL     1      11.577  -2.584   1.600  0.00  0.00    -0.328 N 
ATOM     32  H   UNL     1      12.287  -2.633   0.941  0.00  0.00    +0.145 HD
ATOM     33  H   UNL     1      11.630  -1.939   2.323  0.00  0.00    +0.145 HD
ENDBRANCH  28  29
ENDBRANCH  18  19
ENDBRANCH   2  18
TORSDOF 6
