REMARK  Name = ZINC27571059
REMARK  11 active torsions:
REMARK  status: ('A' for Active; 'I' for Inactive)
REMARK    1  A    between atoms: C_1  and  C_2
REMARK    2  A    between atoms: C_2  and  C_38
REMARK    3  A    between atoms: C_7  and  C_18
REMARK    4  A    between atoms: N_10  and  C_11
REMARK    5  A    between atoms: N_20  and  C_21
REMARK    6  A    between atoms: C_21  and  C_23
REMARK    7  A    between atoms: C_21  and  C_31
REMARK    8  A    between atoms: C_23  and  C_24
REMARK    9  A    between atoms: C_27  and  O_30
REMARK   10  A    between atoms: C_31  and  O_33
REMARK   11  A    between atoms: O_33  and  C_34
REMARK                            x       y       z     vdW  Elec       q    Type
REMARK                         _______ _______ _______ _____ _____    ______ ____
ROOT
ATOM      1  C   UNL     1      -0.250   5.509  -1.797  0.00  0.00    +0.011 C 
ATOM      2  C   UNL     1       0.024   5.542  -0.292  0.00  0.00    -0.023 C 
ATOM      3  C   UNL     1       0.095   4.115   0.245  0.00  0.00    +0.061 C 
ATOM      4  C   UNL     1      -1.234   3.415   0.125  0.00  0.00    +0.038 A 
ATOM      5  C   UNL     1      -2.419   4.127   0.042  0.00  0.00    +0.038 A 
ATOM      6  C   UNL     1      -3.657   3.455  -0.056  0.00  0.00    +0.031 A 
ATOM      7  C   UNL     1      -3.667   2.067  -0.080  0.00  0.00    +0.102 A 
ATOM      8  C   UNL     1      -2.384   1.364  -0.002  0.00  0.00    +0.268 A 
ATOM      9  O   UNL     1      -2.353   0.147  -0.022  0.00  0.00    -0.266 OA
ATOM     10  N   UNL     1      -1.242   2.066   0.093  0.00  0.00    -0.280 N 
ATOM     11  C   UNL     1      -2.406   5.599   0.054  0.00  0.00    +0.165 C 
ATOM     12  O   UNL     1      -3.401   6.237  -0.219  0.00  0.00    -0.292 OA
ATOM     13  C   UNL     1      -1.110   6.293   0.419  0.00  0.00    +0.086 C 
ATOM     14  C   UNL     1       1.352   6.255  -0.029  0.00  0.00    +0.011 C 
ENDROOT
BRANCH  10  15
ATOM     15  C   UNL     1      -0.025   1.377   0.165  0.00  0.00    +0.050 A 
ATOM     16  C   UNL     1       0.541   1.093   1.401  0.00  0.00    +0.028 A 
ATOM     17  C   UNL     1       1.745   0.420   1.470  0.00  0.00    +0.022 A 
ATOM     18  C   UNL     1       2.386   0.025   0.308  0.00  0.00    +0.041 A 
ATOM     19  C   UNL     1       1.823   0.306  -0.924  0.00  0.00    +0.022 A 
ATOM     20  C   UNL     1       0.620   0.980  -0.999  0.00  0.00    +0.028 A 
ATOM     21 CL   UNL     1       3.898  -0.822   0.398  0.00  0.00    -0.084 Cl
ENDBRANCH  10  15
BRANCH   7  22
ATOM     22  C   UNL     1      -4.932   1.322  -0.179  0.00  0.00    +0.250 C 
ATOM     23  O   UNL     1      -5.987   1.922  -0.259  0.00  0.00    -0.270 OA
ATOM     24  N   UNL     1      -4.922  -0.026  -0.183  0.00  0.00    -0.298 N 
ATOM     25  H   UNL     1      -3.978  -0.569  -0.025  0.00  0.00    +0.150 HD
BRANCH  24  26
ATOM     26  C   UNL     1      -6.167  -0.767  -0.398  0.00  0.00    +0.186 C 
BRANCH  26  27
ATOM     27  C   UNL     1      -6.893  -0.920   0.914  0.00  0.00    +0.328 C 
ATOM     28  O   UNL     1      -6.419  -0.457   1.925  0.00  0.00    -0.249 OA
BRANCH  27  29
ATOM     29  O   UNL     1      -8.066  -1.570   0.960  0.00  0.00    -0.467 OA
ATOM     30  C   UNL     1      -8.709  -1.679   2.258  0.00  0.00    +0.280 C 
ENDBRANCH  27  29
ENDBRANCH  26  27
BRANCH  26  31
ATOM     31  C   UNL     1      -5.846  -2.151  -0.967  0.00  0.00    +0.069 C 
BRANCH  31  32
ATOM     32  C   UNL     1      -5.230  -2.001  -2.334  0.00  0.00    -0.045 A 
ATOM     33  C   UNL     1      -6.038  -1.987  -3.456  0.00  0.00    +0.007 A 
ATOM     34  C   UNL     1      -5.477  -1.844  -4.711  0.00  0.00    +0.045 A 
ATOM     35  C   UNL     1      -4.101  -1.725  -4.844  0.00  0.00    +0.117 A 
ATOM     36  C   UNL     1      -3.293  -1.744  -3.717  0.00  0.00    +0.045 A 
ATOM     37  C   UNL     1      -3.859  -1.883  -2.465  0.00  0.00    +0.007 A 
BRANCH  35  38
ATOM     38  O   UNL     1      -3.546  -1.589  -6.078  0.00  0.00    -0.507 OA
ATOM     39  H   UNL     1      -2.455  -1.495  -6.183  0.00  0.00    +0.292 HD
ENDBRANCH  35  38
ENDBRANCH  31  32
ENDBRANCH  26  31
ENDBRANCH  24  26
ENDBRANCH   7  22
TORSDOF 8
