REMARK  Name = ZINC45673515
REMARK  8 active torsions:
REMARK  status: ('A' for Active; 'I' for Inactive)
REMARK    1  A    between atoms: C_1  and  C_2
REMARK    2  A    between atoms: C_2  and  C_3
REMARK    3  A    between atoms: C_2  and  C_4
REMARK    4  A    between atoms: C_4  and  C_6
REMARK    5  A    between atoms: C_4  and  N_16
REMARK    6  A    between atoms: C_17  and  C_19
REMARK    7  A    between atoms: C_19  and  S_20
REMARK    8  A    between atoms: S_20  and  C_21
REMARK                            x       y       z     vdW  Elec       q    Type
REMARK                         _______ _______ _______ _____ _____    ______ ____
ROOT
ATOM      1  C   UNL     1      -1.433  -0.534   0.013  0.00  0.00    +0.141 C 
ENDROOT
BRANCH   1   2
ATOM      2  C   UNL     1      -2.125  -0.137  -1.266  0.00  0.00    +0.129 A 
ATOM      3  N   UNL     1      -2.737  -1.000  -2.121  0.00  0.00    -0.340 N 
ATOM      4  H   UNL     1      -2.804  -1.962  -2.016  0.00  0.00    +0.167 HD
ATOM      5  C   UNL     1      -3.245  -0.254  -3.165  0.00  0.00    +0.066 A 
ATOM      6  C   UNL     1      -3.956  -0.560  -4.317  0.00  0.00    +0.028 A 
ATOM      7  C   UNL     1      -4.324   0.448  -5.181  0.00  0.00    +0.002 A 
ATOM      8  C   UNL     1      -3.989   1.767  -4.907  0.00  0.00    +0.002 A 
ATOM      9  C   UNL     1      -3.290   2.087  -3.778  0.00  0.00    +0.030 A 
ATOM     10  C   UNL     1      -2.906   1.081  -2.888  0.00  0.00    +0.089 A 
ATOM     11  N   UNL     1      -2.228   1.081  -1.711  0.00  0.00    -0.231 NA
ENDBRANCH   1   2
BRANCH   1  12
ATOM     12  N   UNL     1      -2.155   0.035   1.154  0.00  0.00    -0.305 N 
ATOM     13  C   UNL     1      -2.067  -0.550   2.366  0.00  0.00    +0.224 C 
ATOM     14  O   UNL     1      -1.391  -1.546   2.511  0.00  0.00    -0.275 OA
ATOM     15  H   UNL     1      -2.696   0.831   1.038  0.00  0.00    +0.149 HD
BRANCH  13  16
ATOM     16  C   UNL     1      -2.809   0.034   3.540  0.00  0.00    +0.170 C 
BRANCH  16  17
ATOM     17  S   UNL     1      -2.493  -0.971   5.016  0.00  0.00    -0.113 S 
BRANCH  17  18
ATOM     18  C   UNL     1      -3.417  -0.169   6.284  0.00  0.00    +0.044 A 
ATOM     19  C   UNL     1      -4.160   0.968   5.991  0.00  0.00    +0.017 A 
ATOM     20  C   UNL     1      -4.883   1.594   6.987  0.00  0.00    +0.001 A 
ATOM     21  C   UNL     1      -4.869   1.092   8.276  0.00  0.00    +0.003 A 
ATOM     22  C   UNL     1      -4.130  -0.039   8.573  0.00  0.00    +0.039 A 
ATOM     23  C   UNL     1      -3.408  -0.675   7.580  0.00  0.00    +0.137 A 
ATOM     24  F   UNL     1      -2.692  -1.783   7.869  0.00  0.00    -0.204 F 
ENDBRANCH  17  18
ENDBRANCH  16  17
ENDBRANCH  13  16
ENDBRANCH   1  12
BRANCH   1  26
ATOM     25  C   UNL     1      -0.019   1.526   0.010  0.00  0.00    +0.009 C 
ATOM     26  C   UNL     1       0.002  -0.004   0.002  0.00  0.00    +0.011 C 
ATOM     27  C   UNL     1       0.742  -0.511   1.242  0.00  0.00    +0.009 C 
ENDBRANCH   1  26
TORSDOF 6
