REMARK  Name = ZINC02319632
REMARK  10 active torsions:
REMARK  status: ('A' for Active; 'I' for Inactive)
REMARK    1  A    between atoms: C_1  and  C_2
REMARK    2  A    between atoms: C_2  and  C_34
REMARK    3  A    between atoms: C_6  and  C_16
REMARK    4  A    between atoms: C_8  and  C_12
REMARK    5  A    between atoms: C_9  and  N_11
REMARK    6  A    between atoms: C_12  and  O_14
REMARK    7  A    between atoms: O_14  and  C_15
REMARK    8  A    between atoms: C_21  and  O_22
REMARK    9  A    between atoms: O_22  and  C_23
REMARK   10  A    between atoms: C_23  and  C_24
REMARK                            x       y       z     vdW  Elec       q    Type
REMARK                         _______ _______ _______ _____ _____    ______ ____
ROOT
ATOM      1  C   UNL     1       3.214  10.053  -3.518  0.00  0.00    +0.012 C 
ATOM      2  C   UNL     1       1.719  10.359  -3.634  0.00  0.00    -0.021 C 
ATOM      3  C   UNL     1       1.254  11.132  -2.398  0.00  0.00    +0.081 C 
ATOM      4  C   UNL     1       1.476  10.293  -1.161  0.00  0.00    +0.115 C 
ATOM      5  C   UNL     1       1.397   8.951  -1.218  0.00  0.00    +0.045 C 
ATOM      6  C   UNL     1       1.599   8.116   0.023  0.00  0.00    +0.101 C 
ATOM      7  C   UNL     1       1.437   8.967   1.251  0.00  0.00    +0.105 C 
ATOM      8  C   UNL     1       1.520  10.320   1.164  0.00  0.00    +0.195 C 
ATOM      9  O   UNL     1       1.751  10.931  -0.007  0.00  0.00    -0.446 OA
ATOM     10  C   UNL     1       1.125   8.285  -2.429  0.00  0.00    +0.164 C 
ATOM     11  O   UNL     1       1.047   7.073  -2.438  0.00  0.00    -0.292 OA
ATOM     12  C   UNL     1       0.930   9.047  -3.712  0.00  0.00    +0.086 C 
ATOM     13  C   UNL     1       1.461  11.190  -4.893  0.00  0.00    +0.012 C 
ENDROOT
BRANCH   6  14
ATOM     14  C   UNL     1       2.983   7.522   0.005  0.00  0.00    +0.007 A 
ATOM     15  C   UNL     1       4.090   8.349  -0.006  0.00  0.00    +0.008 A 
ATOM     16  C   UNL     1       5.361   7.805  -0.029  0.00  0.00    +0.001 A 
ATOM     17  C   UNL     1       5.528   6.432  -0.033  0.00  0.00    +0.004 A 
ATOM     18  C   UNL     1       4.425   5.601  -0.015  0.00  0.00    +0.046 A 
ATOM     19  C   UNL     1       3.148   6.144   0.006  0.00  0.00    +0.125 A 
BRANCH  19  20
ATOM     20  O   UNL     1       2.061   5.329   0.024  0.00  0.00    -0.487 OA
BRANCH  20  21
ATOM     21  C   UNL     1       2.307   3.921   0.018  0.00  0.00    +0.266 C 
BRANCH  21  22
ATOM     22  C   UNL     1       0.993   3.182   0.039  0.00  0.00    +0.008 A 
ATOM     23  C   UNL     1      -0.196   3.887   0.060  0.00  0.00    +0.008 A 
ATOM     24  C   UNL     1      -1.401   3.210   0.080  0.00  0.00    +0.000 A 
ATOM     25  C   UNL     1      -1.417   1.827   0.073  0.00  0.00    +0.001 A 
ATOM     26  C   UNL     1      -0.229   1.122   0.057  0.00  0.00    +0.020 A 
ATOM     27  C   UNL     1       0.977   1.799   0.037  0.00  0.00    +0.047 A 
ATOM     28 CL   UNL     1       2.470   0.914   0.010  0.00  0.00    -0.083 Cl
ENDBRANCH  21  22
ENDBRANCH  20  21
ENDBRANCH  19  20
ENDBRANCH   6  14
BRANCH   8  29
ATOM     29  N   UNL     1       1.366  11.075   2.296  0.00  0.00    -0.329 N 
ATOM     30  H   UNL     1       1.274  10.643   3.159  0.00  0.00    +0.145 HD
ATOM     31  H   UNL     1       1.348  12.043   2.234  0.00  0.00    +0.145 HD
ENDBRANCH   8  29
BRANCH   7  32
ATOM     32  C   UNL     1       1.198   8.361   2.494  0.00  0.00    +0.341 C 
ATOM     33  O   UNL     1       0.081   7.963   2.773  0.00  0.00    -0.245 OA
BRANCH  32  34
ATOM     34  O   UNL     1       2.207   8.218   3.381  0.00  0.00    -0.465 OA
ATOM     35  C   UNL     1       1.892   7.592   4.626  0.00  0.00    +0.280 C 
ENDBRANCH  32  34
ENDBRANCH   7  32
TORSDOF 7
