REMARK  Name = ZINC39699737
REMARK  3 active torsions:
REMARK  status: ('A' for Active; 'I' for Inactive)
REMARK    1  A    between atoms: C_3  and  O_25
REMARK    2  A    between atoms: C_6  and  C_7
REMARK    3  A    between atoms: N_8  and  N_9
REMARK                            x       y       z     vdW  Elec       q    Type
REMARK                         _______ _______ _______ _____ _____    ______ ____
ROOT
ATOM      1  N   UNL     1      -2.445  -2.778   0.011  0.00  0.00    -0.206 N 
ATOM      2  C   UNL     1      -2.424  -4.158   0.004  0.00  0.00    +0.227 C 
ATOM      3  N   UNL     1      -1.258  -4.758  -0.006  0.00  0.00    -0.220 NA
ATOM      4  C   UNL     1      -1.244  -6.218   0.067  0.00  0.00    +0.253 C 
ATOM      5  C   UNL     1      -2.547  -6.690  -0.561  0.00  0.00    +0.115 C 
ATOM      6  C   UNL     1      -2.195  -7.661  -1.449  0.00  0.00    +0.026 A 
ATOM      7  C   UNL     1      -2.962  -8.541  -2.250  0.00  0.00    +0.027 A 
ATOM      8  C   UNL     1      -2.286  -9.402  -3.059  0.00  0.00    +0.019 A 
ATOM      9  C   UNL     1      -0.890  -9.468  -3.145  0.00  0.00    +0.017 A 
ATOM     10  C   UNL     1      -0.057  -8.678  -2.419  0.00  0.00    +0.027 A 
ATOM     11  C   UNL     1      -0.702  -7.717  -1.508  0.00  0.00    +0.046 A 
ATOM     12  N   UNL     1      -0.176  -6.859  -0.687  0.00  0.00    -0.358 N 
ATOM     13 BR   UNL     1      -3.296 -10.584  -4.135  0.00  0.00    -0.050 Br
ATOM     14  N   UNL     1      -3.704  -6.072  -0.304  0.00  0.00    -0.171 NA
ATOM     15  N   UNL     1      -3.609  -4.815   0.012  0.00  0.00    -0.247 N 
ATOM     16  H   UNL     1      -3.293  -2.306   0.022  0.00  0.00    +0.177 HD
ATOM     17  H   UNL     1      -4.412  -4.330   0.258  0.00  0.00    +0.192 HD
ATOM     18  H   UNL     1       0.771  -6.675  -0.593  0.00  0.00    +0.162 HD
ENDROOT
BRANCH   1  20
ATOM     19  C   UNL     1      -1.263  -0.761   0.011  0.00  0.00    +0.138 C 
ATOM     20  N   UNL     1      -1.243  -2.059   0.003  0.00  0.00    -0.188 NA
BRANCH  19  26
ATOM     21  C   UNL     1      -0.017   1.393   0.010  0.00  0.00    +0.013 A 
ATOM     22  C   UNL     1       1.168   2.096   0.002  0.00  0.00    +0.046 A 
ATOM     23  C   UNL     1       2.380   1.418  -0.013  0.00  0.00    +0.117 A 
ATOM     24  C   UNL     1       2.404   0.030  -0.021  0.00  0.00    +0.046 A 
ATOM     25  C   UNL     1       1.224  -0.682  -0.014  0.00  0.00    +0.013 A 
ATOM     26  C   UNL     1       0.002  -0.004   0.002  0.00  0.00    -0.005 A 
BRANCH  23  27
ATOM     27  O   UNL     1       3.546   2.116  -0.020  0.00  0.00    -0.507 OA
ATOM     28  H   UNL     1       3.892   2.313   0.861  0.00  0.00    +0.292 HD
ENDBRANCH  23  27
ENDBRANCH  19  26
ENDBRANCH   1  20
TORSDOF 3
