REMARK  Name = ZINC33937263
REMARK  12 active torsions:
REMARK  status: ('A' for Active; 'I' for Inactive)
REMARK    1  A    between atoms: C_1  and  C_2
REMARK    2  A    between atoms: C_2  and  C_3
REMARK    3  A    between atoms: C_3  and  C_4
REMARK    4  A    between atoms: C_4  and  C_6
REMARK    5  A    between atoms: C_4  and  N_18
REMARK    6  A    between atoms: N_10  and  C_11
REMARK    7  A    between atoms: C_11  and  C_12
REMARK    8  A    between atoms: N_18  and  C_19
REMARK    9  A    between atoms: N_18  and  C_27
REMARK   10  A    between atoms: C_19  and  C_20
REMARK   11  A    between atoms: C_27  and  C_28
REMARK   12  A    between atoms: C_33  and  C_40
REMARK                            x       y       z     vdW  Elec       q    Type
REMARK                         _______ _______ _______ _____ _____    ______ ____
ROOT
ATOM      1  N   UNL     1      -0.541  -2.605  -1.962  0.00  0.00    +0.392 N 
ATOM      2  H   UNL     1      -1.139  -2.216  -2.675  0.00  0.00    -0.080 HD
ENDROOT
BRANCH   1   3
ATOM      3  C   UNL     1      -0.949  -2.094  -0.646  0.00  0.00    +0.003 C 
BRANCH   3   4
ATOM      4  C   UNL     1      -0.034  -2.650   0.414  0.00  0.00    +0.138 A 
ATOM      5  N   UNL     1       0.399  -3.884   0.506  0.00  0.00    -0.115 NA
ATOM      6  N   UNL     1       1.157  -3.963   1.545  0.00  0.00    -0.023 NA
ATOM      7  N   UNL     1       1.219  -2.812   2.118  0.00  0.00    -0.044 NA
ATOM      8  N   UNL     1       0.502  -1.974   1.448  0.00  0.00    -0.228 N 
BRANCH   8   9
ATOM      9  C   UNL     1       0.306  -0.556   1.756  0.00  0.00    +0.178 C 
BRANCH   9  10
ATOM     10  C   UNL     1      -0.802  -0.409   2.800  0.00  0.00    +0.140 C 
ATOM     11  C   UNL     1      -0.964   1.077   3.208  0.00  0.00    +0.035 C 
ATOM     12  C   UNL     1      -2.438   1.090   3.695  0.00  0.00    +0.031 C 
ATOM     13  C   UNL     1      -3.103   0.062   2.756  0.00  0.00    +0.160 C 
ATOM     14  O   UNL     1      -2.069  -0.787   2.240  0.00  0.00    -0.375 OA
ENDBRANCH   9  10
ENDBRANCH   8   9
ENDBRANCH   3   4
BRANCH   3  15
ATOM     15  C   UNL     1      -2.388  -2.525  -0.355  0.00  0.00    -0.008 C 
BRANCH  15  17
ATOM     16  C   UNL     1      -4.748  -2.419  -1.168  0.00  0.00    +0.004 C 
ATOM     17  C   UNL     1      -3.326  -1.901  -1.391  0.00  0.00    -0.005 C 
ENDBRANCH  15  17
ENDBRANCH   3  15
ENDBRANCH   1   3
BRANCH   1  18
ATOM     18  C   UNL     1       0.851  -2.220  -2.227  0.00  0.00    -0.042 C 
BRANCH  18  19
ATOM     19  C   UNL     1       0.939  -0.722  -2.369  0.00  0.00    -0.064 A 
ATOM     20  C   UNL     1       0.649  -0.125  -3.582  0.00  0.00    +0.004 A 
ATOM     21  C   UNL     1       0.729   1.248  -3.714  0.00  0.00    +0.038 A 
ATOM     22  C   UNL     1       1.100   2.027  -2.630  0.00  0.00    +0.123 A 
ATOM     23  C   UNL     1       1.391   1.428  -1.416  0.00  0.00    +0.038 A 
ATOM     24  C   UNL     1       1.305   0.055  -1.286  0.00  0.00    +0.004 A 
ATOM     25  F   UNL     1       1.179   3.369  -2.758  0.00  0.00    -0.205 F 
ENDBRANCH  18  19
ENDBRANCH   1  18
BRANCH   1  26
ATOM     26  C   UNL     1      -0.654  -4.070  -1.974  0.00  0.00    -0.036 C 
BRANCH  26  27
ATOM     27  C   UNL     1      -0.381  -4.583  -3.365  0.00  0.00    +0.001 A 
ATOM     28  C   UNL     1       0.859  -5.026  -3.690  0.00  0.00    +0.017 A 
ATOM     29  C   UNL     1       1.092  -5.518  -5.049  0.00  0.00    -0.001 A 
ATOM     30  C   UNL     1       2.349  -5.988  -5.442  0.00  0.00    +0.010 A 
ATOM     31  C   UNL     1       2.534  -6.441  -6.718  0.00  0.00    +0.004 A 
ATOM     32  C   UNL     1       1.485  -6.439  -7.627  0.00  0.00    -0.048 A 
ATOM     33  C   UNL     1       0.238  -5.981  -7.261  0.00  0.00    +0.029 A 
ATOM     34  C   UNL     1       0.026  -5.515  -5.967  0.00  0.00    +0.049 A 
ATOM     35  N   UNL     1      -1.212  -5.052  -5.574  0.00  0.00    -0.322 N 
ATOM     36  H   UNL     1      -1.945  -5.050  -6.209  0.00  0.00    +0.169 HD
ATOM     37  C   UNL     1      -1.417  -4.606  -4.322  0.00  0.00    +0.251 A 
ATOM     38  O   UNL     1      -2.526  -4.208  -4.008  0.00  0.00    -0.268 OA
ATOM     39  C   UNL     1       1.712  -6.944  -9.029  0.00  0.00    +0.044 C 
ENDBRANCH  26  27
ENDBRANCH   1  26
TORSDOF 10
