REMARK  Name = ZINC20094999
REMARK  7 active torsions:
REMARK  status: ('A' for Active; 'I' for Inactive)
REMARK    1  A    between atoms: C_4  and  C_7
REMARK    2  A    between atoms: C_9  and  C_33
REMARK    3  A    between atoms: C_10  and  N_32
REMARK    4  A    between atoms: C_11  and  C_24
REMARK    5  A    between atoms: N_13  and  S_14
REMARK    6  A    between atoms: S_14  and  C_17
REMARK    7  A    between atoms: C_24  and  C_26
REMARK                            x       y       z     vdW  Elec       q    Type
REMARK                         _______ _______ _______ _____ _____    ______ ____
ROOT
ATOM      1  C   UNL     1      -1.289   7.006  -2.373  0.00  0.00    +0.153 C 
ATOM      2  C   UNL     1      -0.805   7.440  -3.732  0.00  0.00    +0.071 C 
ATOM      3  C   UNL     1       0.538   7.458  -3.744  0.00  0.00    +0.044 C 
ATOM      4  C   UNL     1       1.059   7.044  -2.393  0.00  0.00    +0.196 C 
ATOM      5  N   UNL     1      -0.104   6.756  -1.543  0.00  0.00    -0.148 NA
ENDROOT
BRANCH   1   9
ATOM      6  C   UNL     1      -3.596   3.427  -2.722  0.00  0.00    +0.000 A 
ATOM      7  C   UNL     1      -4.230   4.645  -2.561  0.00  0.00    +0.000 A 
ATOM      8  C   UNL     1      -3.483   5.803  -2.448  0.00  0.00    +0.005 A 
ATOM      9  C   UNL     1      -2.103   5.743  -2.496  0.00  0.00    -0.024 A 
ATOM     10  C   UNL     1      -1.469   4.526  -2.662  0.00  0.00    +0.005 A 
ATOM     11  C   UNL     1      -2.216   3.367  -2.770  0.00  0.00    +0.000 A 
ENDBRANCH   1   9
BRANCH   5  12
ATOM     12  S   UNL     1      -0.083   6.258   0.036  0.00  0.00    +0.063 S 
ATOM     13  O   UNL     1      -1.329   6.644   0.601  0.00  0.00    -0.153 OA
ATOM     14  O   UNL     1       1.162   6.678   0.578  0.00  0.00    -0.153 OA
BRANCH  12  15
ATOM     15  C   UNL     1      -0.059   4.497   0.026  0.00  0.00    +0.106 A 
ATOM     16  C   UNL     1       1.148   3.822   0.012  0.00  0.00    +0.030 A 
ATOM     17  C   UNL     1       1.167   2.440   0.004  0.00  0.00    +0.022 A 
ATOM     18  C   UNL     1      -0.021   1.732   0.012  0.00  0.00    +0.041 A 
ATOM     19  C   UNL     1      -1.229   2.407   0.021  0.00  0.00    +0.022 A 
ATOM     20  C   UNL     1      -1.247   3.789   0.034  0.00  0.00    +0.030 A 
ATOM     21 CL   UNL     1       0.002  -0.004   0.002  0.00  0.00    -0.084 Cl
ENDBRANCH  12  15
ENDBRANCH   5  12
BRANCH   3  22
ATOM     22  N   UNL     1       1.315   7.806  -4.818  0.00  0.00    -0.359 N 
ATOM     23  H   UNL     1       2.411   7.791  -4.732  0.00  0.00    +0.142 HD
ATOM     24  H   UNL     1       0.842   8.101  -5.766  0.00  0.00    +0.142 HD
ENDBRANCH   3  22
BRANCH   4  25
ATOM     25  C   UNL     1       1.870   8.161  -1.789  0.00  0.00    +0.187 C 
ATOM     26  O   UNL     1       1.393   8.853  -0.914  0.00  0.00    -0.290 OA
BRANCH  25  27
ATOM     27  C   UNL     1       3.241   8.412  -2.260  0.00  0.00    +0.019 A 
ATOM     28  C   UNL     1       3.797   7.613  -3.265  0.00  0.00    +0.011 A 
ATOM     29  C   UNL     1       5.080   7.859  -3.705  0.00  0.00    +0.001 A 
ATOM     30  C   UNL     1       5.823   8.885  -3.148  0.00  0.00    +0.000 A 
ATOM     31  C   UNL     1       5.282   9.677  -2.150  0.00  0.00    +0.001 A 
ATOM     32  C   UNL     1       3.998   9.448  -1.703  0.00  0.00    +0.011 A 
ENDBRANCH  25  27
ENDBRANCH   4  25
BRANCH   2  33
ATOM     33  C   UNL     1      -1.646   7.781  -4.839  0.00  0.00    +0.098 C 
ATOM     34  N   UNL     1      -2.314   8.052  -5.717  0.00  0.00    -0.191 NA
ENDBRANCH   2  33
TORSDOF 7
