REMARK  Name = ZINC05879365
REMARK  7 active torsions:
REMARK  status: ('A' for Active; 'I' for Inactive)
REMARK    1  A    between atoms: C_1  and  N_49
REMARK    2  A    between atoms: C_8  and  O_25
REMARK    3  A    between atoms: C_10  and  C_12
REMARK    4  A    between atoms: C_13  and  O_24
REMARK    5  A    between atoms: N_18  and  C_21
REMARK    6  A    between atoms: C_21  and  C_22
REMARK    7  A    between atoms: O_25  and  C_26
REMARK                            x       y       z     vdW  Elec       q    Type
REMARK                         _______ _______ _______ _____ _____    ______ ____
ROOT
ATOM      1  C   UNL     1      -4.900   1.291  -0.282  0.00  0.00    -0.095 C 
ATOM      2  C   UNL     1      -3.700   3.271   0.435  0.00  0.00    -0.073 C 
ATOM      3  C   UNL     1      -2.545   4.183   0.030  0.00  0.00    +0.017 C 
ATOM      4  C   UNL     1      -1.251   3.410   0.028  0.00  0.00    -0.040 A 
ATOM      5  C   UNL     1      -0.059   4.119   0.024  0.00  0.00    +0.053 A 
ATOM      6  C   UNL     1       1.155   3.453   0.010  0.00  0.00    +0.170 A 
ATOM      7  C   UNL     1       1.178   2.062   0.002  0.00  0.00    +0.208 A 
ATOM      8  C   UNL     1      -0.016   1.356   0.009  0.00  0.00    +0.167 A 
ATOM      9  C   UNL     1      -1.233   2.031   0.019  0.00  0.00    -0.008 A 
ATOM     10  C   UNL     1      -2.502   1.220   0.029  0.00  0.00    +0.007 C 
ATOM     11  O   UNL     1       2.479   1.647  -0.013  0.00  0.00    -0.449 OA
ATOM     12  C   UNL     1       3.244   2.795  -0.424  0.00  0.00    +0.467 C 
ATOM     13  O   UNL     1       2.441   3.911   0.002  0.00  0.00    -0.452 OA
ATOM     14  N   UNL     1      -3.637   2.054  -0.400  0.00  0.00    +0.386 N 
ATOM     15  H   UNL     1      -3.502   2.326  -1.381  0.00  0.00    -0.081 HD
ENDROOT
BRANCH  10  16
ATOM     16  C   UNL     1      -2.360   0.061  -0.924  0.00  0.00    +0.067 A 
ATOM     17  C   UNL     1      -2.358  -1.220  -0.460  0.00  0.00    +0.199 A 
ATOM     18  N   UNL     1      -2.233  -2.259  -1.346  0.00  0.00    -0.306 N 
ATOM     19  H   UNL     1      -2.238  -3.202  -1.011  0.00  0.00    +0.171 HD
ATOM     20  C   UNL     1      -2.102  -2.019  -2.664  0.00  0.00    +0.163 A 
ATOM     21  S   UNL     1      -1.940  -3.334  -3.748  0.00  0.00    -0.013 S 
ATOM     22  N   UNL     1      -2.096  -0.762  -3.142  0.00  0.00    -0.284 N 
ATOM     23  C   UNL     1      -2.222   0.288  -2.306  0.00  0.00    +0.260 A 
ATOM     24  O   UNL     1      -2.216   1.425  -2.744  0.00  0.00    -0.267 OA
BRANCH  17  25
ATOM     25  O   UNL     1      -2.484  -1.465   0.862  0.00  0.00    -0.493 OA
ATOM     26  H   UNL     1      -2.471  -2.405   1.091  0.00  0.00    +0.294 HD
ENDBRANCH  17  25
BRANCH  22  27
ATOM     27  C   UNL     1      -1.952  -0.531  -4.581  0.00  0.00    +0.154 C 
BRANCH  27  28
ATOM     28  C   UNL     1      -0.491  -0.402  -4.926  0.00  0.00    -0.013 C 
ATOM     29  C   UNL     1       0.037  -1.174  -5.843  0.00  0.00    +0.005 C 
ENDBRANCH  27  28
ENDBRANCH  22  27
ENDBRANCH  10  16
BRANCH   8  30
ATOM     30  O   UNL     1       0.002  -0.004   0.002  0.00  0.00    -0.491 OA
ATOM     31  C   UNL     1       0.023  -0.660   1.272  0.00  0.00    +0.277 C 
ENDBRANCH   8  30
TORSDOF 5
