REMARK  Name = ZINC16426700
REMARK  7 active torsions:
REMARK  status: ('A' for Active; 'I' for Inactive)
REMARK    1  A    between atoms: C_1  and  C_2
REMARK    2  A    between atoms: C_2  and  O_3
REMARK    3  A    between atoms: O_3  and  C_4
REMARK    4  A    between atoms: C_6  and  C_14
REMARK    5  A    between atoms: C_8  and  N_11
REMARK    6  A    between atoms: C_9  and  O_10
REMARK    7  A    between atoms: C_19  and  C_24
REMARK                            x       y       z     vdW  Elec       q    Type
REMARK                         _______ _______ _______ _____ _____    ______ ____
ROOT
ATOM      1  C   UNL     1       0.202   6.490  -0.471  0.00  0.00    +0.136 C 
ATOM      2  C   UNL     1      -0.881   6.823  -1.469  0.00  0.00    +0.036 C 
ATOM      3  C   UNL     1      -1.490   8.010  -1.610  0.00  0.00    +0.017 C 
ATOM      4  C   UNL     1      -2.558   8.210  -2.672  0.00  0.00    +0.060 C 
ATOM      5  C   UNL     1      -3.322   6.906  -2.897  0.00  0.00    +0.039 C 
ATOM      6  C   UNL     1      -2.311   5.845  -3.347  0.00  0.00    +0.088 C 
ATOM      7  C   UNL     1      -1.240   5.734  -2.304  0.00  0.00    +0.163 C 
ATOM      8  O   UNL     1      -0.661   4.674  -2.169  0.00  0.00    -0.292 OA
ATOM      9  N   UNL     1      -1.214   9.110  -0.864  0.00  0.00    -0.316 N 
ATOM     10  C   UNL     1      -1.081   9.121   0.519  0.00  0.00    +0.052 A 
ATOM     11  C   UNL     1      -1.923   9.854   1.337  0.00  0.00    +0.025 A 
ATOM     12  C   UNL     1      -1.665   9.916   2.696  0.00  0.00    +0.002 A 
ATOM     13  C   UNL     1      -0.576   9.251   3.230  0.00  0.00    +0.002 A 
ATOM     14  C   UNL     1       0.253   8.499   2.417  0.00  0.00    +0.025 A 
ATOM     15  C   UNL     1      -0.013   8.420   1.059  0.00  0.00    +0.049 A 
ATOM     16  N   UNL     1       0.765   7.638   0.207  0.00  0.00    -0.331 N 
ATOM     17  H   UNL     1      -1.078  10.086  -1.353  0.00  0.00    +0.152 HD
ATOM     18  H   UNL     1       1.821   7.903   0.054  0.00  0.00    +0.147 HD
ENDROOT
BRANCH   1  21
ATOM     19  C   UNL     1      -0.420   3.409   1.625  0.00  0.00    +0.164 A 
ATOM     20  C   UNL     1       0.107   4.267   0.673  0.00  0.00    +0.055 A 
ATOM     21  C   UNL     1      -0.374   5.559   0.564  0.00  0.00    -0.017 A 
ATOM     22  C   UNL     1      -1.381   5.997   1.403  0.00  0.00    +0.042 A 
ATOM     23  C   UNL     1      -1.912   5.147   2.355  0.00  0.00    +0.171 A 
ATOM     24  C   UNL     1      -1.438   3.849   2.466  0.00  0.00    +0.189 A 
BRANCH  23  25
ATOM     25  N   UNL     1      -2.990   5.620   3.252  0.00  0.00    +0.060 N 
ATOM     26  O   UNL     1      -3.410   6.759   3.151  0.00  0.00    -0.126 OA
ATOM     27  O   UNL     1      -3.458   4.870   4.090  0.00  0.00    -0.126 OA
ENDBRANCH  23  25
BRANCH  24  28
ATOM     28  O   UNL     1      -1.964   3.009   3.397  0.00  0.00    -0.502 OA
ATOM     29  H   UNL     1      -2.768   3.358   4.061  0.00  0.00    +0.292 HD
ENDBRANCH  24  28
BRANCH  19  30
ATOM     30  O   UNL     1       0.052   2.139   1.734  0.00  0.00    -0.488 OA
BRANCH  30  32
ATOM     31  C   UNL     1       1.492   0.302   1.105  0.00  0.00    +0.048 C 
ATOM     32  C   UNL     1       1.093   1.754   0.834  0.00  0.00    +0.226 C 
ENDBRANCH  30  32
ENDBRANCH  19  30
ENDBRANCH   1  21
BRANCH   5  33
ATOM     33  C   UNL     1      -4.365   7.104  -3.966  0.00  0.00    -0.006 A 
ATOM     34  C   UNL     1      -5.710   6.959  -3.884  0.00  0.00    +0.011 A 
ATOM     35  C   UNL     1      -6.481   7.197  -5.006  0.00  0.00    +0.008 A 
ATOM     36  C   UNL     1      -5.868   7.569  -6.157  0.00  0.00    +0.045 A 
ATOM     37  S   UNL     1      -4.151   7.598  -5.668  0.00  0.00    -0.101 S 
ENDBRANCH   5  33
TORSDOF 6
