REMARK  Name = ZINC63194709
REMARK  6 active torsions:
REMARK  status: ('A' for Active; 'I' for Inactive)
REMARK    1  A    between atoms: C_1  and  C_2
REMARK    2  A    between atoms: C_2  and  C_4
REMARK    3  A    between atoms: C_2  and  N_25
REMARK    4  A    between atoms: N_10  and  C_11
REMARK    5  A    between atoms: C_11  and  C_12
REMARK    6  A    between atoms: N_14  and  C_15
REMARK                            x       y       z     vdW  Elec       q    Type
REMARK                         _______ _______ _______ _____ _____    ______ ____
ROOT
ATOM      1  C   UNL     1       1.992   1.709   1.329  0.00  0.00    +0.180 C 
ENDROOT
BRANCH   1   7
ATOM      2  C   UNL     1       0.804  -0.363   1.722  0.00  0.00    +0.042 C 
ATOM      3  C   UNL     1       0.986  -1.851   2.028  0.00  0.00    +0.017 C 
ATOM      4  C   UNL     1       1.628  -2.009   3.409  0.00  0.00    +0.003 C 
ATOM      5  C   UNL     1       2.964  -1.260   3.431  0.00  0.00    +0.015 C 
ATOM      6  C   UNL     1       2.724   0.211   3.084  0.00  0.00    +0.085 C 
ATOM      7  N   UNL     1       2.110   0.308   1.754  0.00  0.00    -0.293 NA
BRANCH   2   9
ATOM      8  C   UNL     1      -1.155  -0.944   0.285  0.00  0.00    -0.013 C 
ATOM      9  C   UNL     1       0.181  -0.201   0.334  0.00  0.00    -0.061 C 
BRANCH   9  10
ATOM     10  N   UNL     1       1.089  -0.757  -0.678  0.00  0.00    +0.381 N 
ATOM     11  H   UNL     1       1.970  -0.267  -0.645  0.00  0.00    -0.090 HD
ATOM     12  H   UNL     1       1.242  -1.737  -0.491  0.00  0.00    -0.090 HD
ATOM     13  H   UNL     1       0.678  -0.650  -1.593  0.00  0.00    -0.090 HD
ENDBRANCH   9  10
ENDBRANCH   2   9
ENDBRANCH   1   7
BRANCH   1  14
ATOM     14  C   UNL     1       3.360   2.251   1.003  0.00  0.00    +0.227 C 
ATOM     15  O   UNL     1       4.336   1.541   1.113  0.00  0.00    -0.274 OA
ATOM     16  N   UNL     1       3.498   3.526   0.588  0.00  0.00    -0.308 N 
ATOM     17  H   UNL     1       2.717   4.095   0.500  0.00  0.00    +0.149 HD
BRANCH  16  18
ATOM     18  C   UNL     1       4.827   4.054   0.271  0.00  0.00    +0.113 C 
ATOM     19  C   UNL     1       4.871   5.548   0.662  0.00  0.00    +0.189 C 
ATOM     20  S   UNL     1       5.918   6.244  -0.690  0.00  0.00    -0.028 S 
ATOM     21  O   UNL     1       7.288   6.026  -0.384  0.00  0.00    -0.174 OA
ATOM     22  O   UNL     1       5.465   7.552  -1.009  0.00  0.00    -0.174 OA
ATOM     23  C   UNL     1       5.395   5.074  -2.019  0.00  0.00    +0.187 C 
ATOM     24  C   UNL     1       5.113   3.797  -1.201  0.00  0.00    +0.123 C 
ATOM     25 CL   UNL     1       3.692   2.954  -1.924  0.00  0.00    -0.118 Cl
ENDBRANCH  16  18
ENDBRANCH   1  14
TORSDOF 5
