REMARK  Name = ZINC60932751
REMARK  10 active torsions:
REMARK  status: ('A' for Active; 'I' for Inactive)
REMARK    1  A    between atoms: C_1  and  C_2
REMARK    2  A    between atoms: C_3  and  C_12
REMARK    3  A    between atoms: N_5  and  C_7
REMARK    4  A    between atoms: C_7  and  C_8
REMARK    5  A    between atoms: C_8  and  C_9
REMARK    6  A    between atoms: C_8  and  C_10
REMARK    7  A    between atoms: C_13  and  C_14
REMARK    8  A    between atoms: N_16  and  C_17
REMARK    9  A    between atoms: C_17  and  C_18
REMARK   10  A    between atoms: C_17  and  C_19
REMARK                            x       y       z     vdW  Elec       q    Type
REMARK                         _______ _______ _______ _____ _____    ______ ____
ROOT
ATOM      1  C   UNL     1       0.882  -0.439  -4.772  0.00  0.00    +0.237 C 
ATOM      2  O   UNL     1       0.061   0.382  -5.139  0.00  0.00    -0.271 OA
ATOM      3  N   UNL     1       1.779  -0.933  -5.648  0.00  0.00    -0.302 N 
ATOM      4  H   UNL     1       2.433  -1.587  -5.355  0.00  0.00    +0.150 HD
ENDROOT
BRANCH   1   6
ATOM      5  C   UNL     1      -0.005  -0.378  -2.545  0.00  0.00    +0.018 C 
ATOM      6  C   UNL     1       0.894  -0.874  -3.423  0.00  0.00    +0.068 C 
BRANCH   5   9
ATOM      7  C   UNL     1      -0.018   1.503   0.010  0.00  0.00    +0.068 C 
ATOM      8  C   UNL     1       0.002  -0.004   0.002  0.00  0.00    +0.069 A 
ATOM      9  C   UNL     1       0.008  -0.829  -1.147  0.00  0.00    +0.034 A 
ATOM     10  C   UNL     1       0.028  -2.142  -0.706  0.00  0.00    +0.134 A 
ATOM     11  N   UNL     1       0.034  -2.112   0.638  0.00  0.00    -0.252 N 
ATOM     12  N   UNL     1       0.023  -0.776   1.053  0.00  0.00    -0.175 NA
ATOM     13 CL   UNL     1       0.042  -3.562  -1.704  0.00  0.00    -0.062 Cl
BRANCH  11  14
ATOM     14  C   UNL     1       0.053  -3.281   1.520  0.00  0.00    +0.148 C 
BRANCH  14  15
ATOM     15  C   UNL     1       1.503  -3.669   1.820  0.00  0.00    +0.004 C 
ATOM     16  C   UNL     1       2.175  -2.550   2.618  0.00  0.00    +0.009 C 
ATOM     17  C   UNL     1       1.526  -4.962   2.638  0.00  0.00    +0.009 C 
ENDBRANCH  14  15
ENDBRANCH  11  14
ENDBRANCH   5   9
ENDBRANCH   1   6
BRANCH   3  18
ATOM     18  C   UNL     1       1.766  -0.484  -7.042  0.00  0.00    +0.136 C 
ATOM     19  C   UNL     1       0.754  -1.312  -7.836  0.00  0.00    +0.036 C 
BRANCH  18  20
ATOM     20  C   UNL     1       3.138  -0.660  -7.640  0.00  0.00    +0.128 A 
ATOM     21  N   UNL     1       3.632   0.058  -8.684  0.00  0.00    -0.340 N 
ATOM     22  H   UNL     1       3.171   0.761  -9.167  0.00  0.00    +0.167 HD
ATOM     23  C   UNL     1       4.911  -0.401  -8.930  0.00  0.00    +0.066 A 
ATOM     24  C   UNL     1       5.897  -0.068  -9.848  0.00  0.00    +0.028 A 
ATOM     25  C   UNL     1       7.103  -0.736  -9.828  0.00  0.00    +0.002 A 
ATOM     26  C   UNL     1       7.335  -1.739  -8.897  0.00  0.00    +0.002 A 
ATOM     27  C   UNL     1       6.376  -2.080  -7.986  0.00  0.00    +0.030 A 
ATOM     28  C   UNL     1       5.147  -1.415  -7.987  0.00  0.00    +0.089 A 
ATOM     29  N   UNL     1       4.026  -1.518  -7.228  0.00  0.00    -0.231 NA
ENDBRANCH  18  20
ENDBRANCH   3  18
TORSDOF 6
