REMARK  Name = ZINC39778871
REMARK  9 active torsions:
REMARK  status: ('A' for Active; 'I' for Inactive)
REMARK    1  A    between atoms: C_1  and  C_2
REMARK    2  A    between atoms: C_2  and  N_3
REMARK    3  A    between atoms: C_6  and  N_9
REMARK    4  A    between atoms: C_10  and  C_12
REMARK    5  A    between atoms: C_12  and  S_13
REMARK    6  A    between atoms: S_13  and  C_14
REMARK    7  A    between atoms: C_18  and  C_27
REMARK    8  A    between atoms: N_19  and  C_20
REMARK    9  A    between atoms: C_20  and  C_21
REMARK                            x       y       z     vdW  Elec       q    Type
REMARK                         _______ _______ _______ _____ _____    ______ ____
ROOT
ATOM      1  C   UNL     1       3.162  -6.236   8.263  0.00  0.00    +0.237 C 
ATOM      2  N   UNL     1       4.572  -5.976   7.928  0.00  0.00    -0.237 N 
ATOM      3  N   UNL     1       5.008  -4.968   8.796  0.00  0.00    -0.169 NA
ATOM      4  C   UNL     1       4.052  -4.591   9.603  0.00  0.00    +0.147 C 
ATOM      5  N   UNL     1       2.871  -5.305   9.366  0.00  0.00    -0.283 N 
ATOM      6  H   UNL     1       5.096  -6.416   7.241  0.00  0.00    +0.171 HD
ENDROOT
BRANCH   4   7
ATOM      7  C   UNL     1       4.191  -3.597  10.585  0.00  0.00    +0.022 C 
ATOM      8  C   UNL     1       5.333  -2.848  10.870  0.00  0.00    +0.006 A 
ATOM      9  C   UNL     1       6.629  -2.835  10.312  0.00  0.00    +0.010 A 
ATOM     10  C   UNL     1       7.564  -1.979  10.799  0.00  0.00    +0.001 A 
ATOM     11  C   UNL     1       7.277  -1.101  11.847  0.00  0.00    +0.002 A 
ATOM     12  C   UNL     1       6.053  -1.060  12.430  0.00  0.00    +0.026 A 
ATOM     13  C   UNL     1       5.025  -1.925  11.975  0.00  0.00    +0.043 A 
ATOM     14  N   UNL     1       3.775  -2.075  12.366  0.00  0.00    -0.380 N 
ATOM     15  C   UNL     1       3.133  -3.111  11.551  0.00  0.00    +0.152 C 
ATOM     16  H   UNL     1       3.346  -1.576  13.079  0.00  0.00    +0.160 HD
ENDBRANCH   4   7
BRANCH   1  17
ATOM     17  S   UNL     1       2.096  -5.884   6.838  0.00  0.00    -0.109 S 
BRANCH  17  18
ATOM     18  C   UNL     1       2.463  -4.155   6.431  0.00  0.00    +0.168 C 
BRANCH  18  20
ATOM     19  N   UNL     1       1.738  -2.477   4.765  0.00  0.00    -0.312 N 
ATOM     20  C   UNL     1       1.632  -3.730   5.248  0.00  0.00    +0.223 C 
ATOM     21  O   UNL     1       0.867  -4.517   4.731  0.00  0.00    -0.275 OA
ATOM     22  H   UNL     1       2.350  -1.848   5.179  0.00  0.00    +0.149 HD
BRANCH  19  26
ATOM     23  N   UNL     1       0.713  -0.491   1.192  0.00  0.00    +0.380 N 
ATOM     24  C   UNL     1      -0.036  -0.111   2.396  0.00  0.00    -0.077 C 
ATOM     25  C   UNL     1       0.741  -0.544   3.642  0.00  0.00    +0.003 C 
ATOM     26  C   UNL     1       0.930  -2.063   3.615  0.00  0.00    +0.069 C 
ATOM     27  C   UNL     1       1.646  -2.456   2.319  0.00  0.00    +0.003 C 
ATOM     28  C   UNL     1       0.836  -1.952   1.123  0.00  0.00    -0.077 C 
ATOM     29  H   UNL     1       1.632  -0.077   1.226  0.00  0.00    -0.082 HD
BRANCH  23  31
ATOM     30  C   UNL     1      -0.019   1.526   0.010  0.00  0.00    -0.017 C 
ATOM     31  C   UNL     1       0.002  -0.004   0.002  0.00  0.00    -0.082 C 
ENDBRANCH  23  31
ENDBRANCH  19  26
ENDBRANCH  18  20
ENDBRANCH  17  18
ENDBRANCH   1  17
BRANCH   5  32
ATOM     32  C   UNL     1       1.597  -5.157  10.074  0.00  0.00    +0.140 C 
BRANCH  32  33
ATOM     33  C   UNL     1       1.567  -6.106  11.274  0.00  0.00    +0.136 C 
ATOM     34  C   UNL     1       0.212  -5.990  12.017  0.00  0.00    +0.035 C 
ATOM     35  C   UNL     1       0.132  -7.381  12.702  0.00  0.00    +0.031 C 
ATOM     36  C   UNL     1       0.816  -8.298  11.665  0.00  0.00    +0.160 C 
ATOM     37  O   UNL     1       1.639  -7.471  10.832  0.00  0.00    -0.375 OA
ENDBRANCH  32  33
ENDBRANCH   5  32
TORSDOF 8
