REMARK  Name = ZINC20786908
REMARK  7 active torsions:
REMARK  status: ('A' for Active; 'I' for Inactive)
REMARK    1  A    between atoms: C_1  and  C_2
REMARK    2  A    between atoms: C_3  and  C_15
REMARK    3  A    between atoms: N_5  and  C_7
REMARK    4  A    between atoms: N_16  and  N_17
REMARK    5  A    between atoms: C_18  and  C_20
REMARK    6  A    between atoms: C_20  and  O_21
REMARK    7  A    between atoms: O_21  and  C_22
REMARK                            x       y       z     vdW  Elec       q    Type
REMARK                         _______ _______ _______ _____ _____    ______ ____
ROOT
ATOM      1  C   UNL     1       4.087   8.624   0.008  0.00  0.00    +0.143 C 
ATOM      2  N   UNL     1       3.067   7.821   0.013  0.00  0.00    -0.187 NA
ENDROOT
BRANCH   1   5
ATOM      3  C   UNL     1       6.368  10.827  -0.003  0.00  0.00    +0.068 C 
ATOM      4  C   UNL     1       4.882  11.076   0.013  0.00  0.00    +0.070 A 
ATOM      5  C   UNL     1       3.876  10.084   0.017  0.00  0.00    +0.054 A 
ATOM      6  C   UNL     1       2.659  10.735   0.026  0.00  0.00    +0.142 A 
ATOM      7  N   UNL     1       2.913  12.062   0.036  0.00  0.00    -0.221 N 
ATOM      8  N   UNL     1       4.300  12.245   0.024  0.00  0.00    -0.170 NA
ATOM      9 CL   UNL     1       1.092   9.988   0.028  0.00  0.00    -0.061 Cl
BRANCH   7  10
ATOM     10  C   UNL     1       1.951  13.081   0.050  0.00  0.00    +0.067 A 
ATOM     11  C   UNL     1       0.754  12.917  -0.635  0.00  0.00    +0.030 A 
ATOM     12  C   UNL     1      -0.195  13.920  -0.616  0.00  0.00    +0.040 A 
ATOM     13  C   UNL     1       0.051  15.094   0.076  0.00  0.00    +0.124 A 
ATOM     14  C   UNL     1       1.247  15.262   0.754  0.00  0.00    +0.040 A 
ATOM     15  C   UNL     1       2.196  14.259   0.742  0.00  0.00    +0.030 A 
ATOM     16  F   UNL     1      -0.876  16.077   0.089  0.00  0.00    -0.205 F 
ENDBRANCH   7  10
ENDBRANCH   1   5
BRANCH   2  17
ATOM     17  N   UNL     1       3.268   6.435   0.004  0.00  0.00    -0.204 N 
ATOM     18  C   UNL     1       2.209   5.601   0.010  0.00  0.00    +0.270 C 
ATOM     19  O   UNL     1       1.082   6.051   0.023  0.00  0.00    -0.270 OA
ATOM     20  H   UNL     1       4.289   6.027  -0.007  0.00  0.00    +0.177 HD
BRANCH  18  21
ATOM     21  C   UNL     1       2.425   4.109   0.001  0.00  0.00    +0.326 C 
BRANCH  21  22
ATOM     22  O   UNL     1       1.159   3.445   0.009  0.00  0.00    -0.483 OA
BRANCH  22  23
ATOM     23  C   UNL     1       1.176   2.086   0.002  0.00  0.00    +0.121 A 
ATOM     24  C   UNL     1      -0.017   1.377   0.010  0.00  0.00    +0.047 A 
ATOM     25  C   UNL     1       0.002  -0.004   0.002  0.00  0.00    +0.023 A 
ATOM     26  C   UNL     1       1.209  -0.680  -0.013  0.00  0.00    +0.041 A 
ATOM     27  C   UNL     1       2.399   0.025  -0.020  0.00  0.00    +0.023 A 
ATOM     28  C   UNL     1       2.385   1.406  -0.012  0.00  0.00    +0.047 A 
ATOM     29 CL   UNL     1       1.230  -2.416  -0.023  0.00  0.00    -0.084 Cl
ENDBRANCH  22  23
ENDBRANCH  21  22
ENDBRANCH  18  21
ENDBRANCH   2  17
TORSDOF 6
