REMARK  Name = ZINC20574069
REMARK  7 active torsions:
REMARK  status: ('A' for Active; 'I' for Inactive)
REMARK    1  A    between atoms: C_1  and  C_2
REMARK    2  A    between atoms: C_2  and  C_3
REMARK    3  A    between atoms: C_7  and  C_35
REMARK    4  A    between atoms: C_8  and  N_9
REMARK    5  A    between atoms: C_10  and  C_12
REMARK    6  A    between atoms: C_12  and  N_13
REMARK    7  A    between atoms: N_23  and  C_28
REMARK                            x       y       z     vdW  Elec       q    Type
REMARK                         _______ _______ _______ _____ _____    ______ ____
ROOT
ATOM      1  N   UNL     1      -1.306  -4.439   2.987  0.00  0.00    -0.259 N 
ATOM      2  C   UNL     1      -1.150  -3.773   4.205  0.00  0.00    +0.043 A 
ATOM      3  C   UNL     1      -0.810  -2.452   4.483  0.00  0.00    +0.024 A 
ATOM      4  C   UNL     1      -0.715  -2.019   5.789  0.00  0.00    +0.002 A 
ATOM      5  C   UNL     1      -0.956  -2.892   6.834  0.00  0.00    +0.000 A 
ATOM      6  C   UNL     1      -1.304  -4.205   6.567  0.00  0.00    +0.009 A 
ATOM      7  C   UNL     1      -1.397  -4.644   5.265  0.00  0.00    +0.017 A 
ATOM      8  C   UNL     1      -1.724  -5.961   4.634  0.00  0.00    +0.192 C 
ATOM      9  C   UNL     1      -1.640  -5.736   3.155  0.00  0.00    +0.259 C 
ATOM     10  O   UNL     1      -1.834  -6.555   2.283  0.00  0.00    -0.272 OA
ATOM     11  N   UNL     1      -3.007  -6.508   5.064  0.00  0.00    -0.243 N 
ATOM     12  C   UNL     1      -3.072  -7.792   5.416  0.00  0.00    +0.231 C 
ATOM     13  O   UNL     1      -4.112  -8.290   5.790  0.00  0.00    -0.274 OA
ATOM     14  C   UNL     1      -1.790  -8.609   5.331  0.00  0.00    +0.168 C 
ATOM     15  S   UNL     1      -0.541  -7.258   5.167  0.00  0.00    -0.111 S 
ENDROOT
BRANCH  11  16
ATOM     16  C   UNL     1      -4.149  -5.699   5.105  0.00  0.00    +0.039 A 
ATOM     17  C   UNL     1      -4.501  -5.054   6.283  0.00  0.00    +0.026 A 
ATOM     18  C   UNL     1      -5.625  -4.252   6.320  0.00  0.00    +0.040 A 
ATOM     19  C   UNL     1      -6.407  -4.101   5.187  0.00  0.00    +0.124 A 
ATOM     20  C   UNL     1      -6.060  -4.748   4.013  0.00  0.00    +0.040 A 
ATOM     21  C   UNL     1      -4.934  -5.546   3.970  0.00  0.00    +0.026 A 
ATOM     22  F   UNL     1      -7.509  -3.320   5.227  0.00  0.00    -0.205 F 
ENDBRANCH  11  16
BRANCH   1  23
ATOM     23  C   UNL     1      -1.122  -3.805   1.679  0.00  0.00    +0.209 C 
BRANCH  23  25
ATOM     24  N   UNL     1      -2.508  -2.601   0.021  0.00  0.00    -0.284 N 
ATOM     25  C   UNL     1      -2.436  -3.236   1.208  0.00  0.00    +0.235 C 
ATOM     26  O   UNL     1      -3.428  -3.348   1.897  0.00  0.00    -0.274 OA
ATOM     27  H   UNL     1      -1.632  -2.575  -0.643  0.00  0.00    +0.155 HD
BRANCH  24  33
ATOM     28  C   UNL     1      -3.702  -0.624  -0.686  0.00  0.00    -0.026 A 
ATOM     29  C   UNL     1      -4.879  -0.008  -1.063  0.00  0.00    +0.005 A 
ATOM     30  C   UNL     1      -6.051  -0.738  -1.134  0.00  0.00    +0.001 A 
ATOM     31  C   UNL     1      -6.051  -2.084  -0.815  0.00  0.00    +0.005 A 
ATOM     32  C   UNL     1      -4.878  -2.705  -0.432  0.00  0.00    -0.029 A 
ATOM     33  C   UNL     1      -3.698  -1.975  -0.366  0.00  0.00    +0.040 A 
ATOM     34  C   UNL     1      -4.879  -4.171  -0.085  0.00  0.00    +0.045 C 
BRANCH  28  36
ATOM     35  C   UNL     1      -1.652   0.013  -1.928  0.00  0.00    +0.009 C 
ATOM     36  C   UNL     1      -2.423   0.171  -0.617  0.00  0.00    +0.033 C 
ENDBRANCH  28  36
ENDBRANCH  24  33
ENDBRANCH  23  25
ENDBRANCH   1  23
TORSDOF 5
