REMARK  Name = ZINC55022395
REMARK  6 active torsions:
REMARK  status: ('A' for Active; 'I' for Inactive)
REMARK    1  A    between atoms: C_4  and  C_7
REMARK    2  A    between atoms: C_7  and  C_9
REMARK    3  A    between atoms: C_7  and  O_14
REMARK    4  A    between atoms: C_9  and  C_10
REMARK    5  A    between atoms: N_11  and  O_12
REMARK    6  A    between atoms: O_14  and  C_15
REMARK                            x       y       z     vdW  Elec       q    Type
REMARK                         _______ _______ _______ _____ _____    ______ ____
ROOT
ATOM      1  C   UNL     1       3.931  -0.771  -0.010  0.00  0.00    +0.211 C 
ENDROOT
BRANCH   1   5
ATOM      2  C   UNL     1       0.644   1.950   0.187  0.00  0.00    +0.000 A 
ATOM      3  C   UNL     1       1.940   2.432   0.169  0.00  0.00    +0.000 A 
ATOM      4  C   UNL     1       3.003   1.551   0.105  0.00  0.00    +0.007 A 
ATOM      5  C   UNL     1       2.772   0.189   0.060  0.00  0.00    -0.007 A 
ATOM      6  C   UNL     1       1.476  -0.292   0.080  0.00  0.00    +0.007 A 
ATOM      7  C   UNL     1       0.412   0.588   0.142  0.00  0.00    +0.000 A 
ENDBRANCH   1   5
BRANCH   1   8
ATOM      8  C   UNL     1       4.206  -1.342   1.382  0.00  0.00    +0.124 C 
BRANCH   8   9
ATOM      9  C   UNL     1       5.440  -2.206   1.336  0.00  0.00    +0.135 C 
ATOM     10  N   UNL     1       6.080  -2.360   0.225  0.00  0.00    -0.077 NA
ATOM     11  N   UNL     1       5.886  -2.831   2.479  0.00  0.00    -0.344 N 
ATOM     12  H   UNL     1       5.405  -2.716   3.314  0.00  0.00    +0.144 HD
ATOM     13  H   UNL     1       6.680  -3.387   2.450  0.00  0.00    +0.144 HD
BRANCH  10  14
ATOM     14  O   UNL     1       7.239  -3.171   0.182  0.00  0.00    -0.408 OA
ATOM     15  H   UNL     1       7.649  -3.226  -0.693  0.00  0.00    +0.328 HD
ENDBRANCH  10  14
ENDBRANCH   8   9
ENDBRANCH   1   8
BRANCH   1  16
ATOM     16  O   UNL     1       3.614  -1.836  -0.908  0.00  0.00    -0.484 OA
BRANCH  16  17
ATOM     17  C   UNL     1       3.841  -1.617  -2.230  0.00  0.00    +0.124 A 
ATOM     18  C   UNL     1       3.656  -2.643  -3.146  0.00  0.00    +0.065 A 
ATOM     19  C   UNL     1       3.887  -2.418  -4.490  0.00  0.00    +0.046 A 
ATOM     20  C   UNL     1       4.303  -1.171  -4.923  0.00  0.00    +0.040 A 
ATOM     21  C   UNL     1       4.488  -0.147  -4.011  0.00  0.00    +0.046 A 
ATOM     22  C   UNL     1       4.251  -0.366  -2.666  0.00  0.00    +0.065 A 
ATOM     23 CL   UNL     1       5.010   1.417  -4.556  0.00  0.00    -0.083 Cl
ATOM     24 CL   UNL     1       3.657  -3.701  -5.636  0.00  0.00    -0.083 Cl
ENDBRANCH  16  17
ENDBRANCH   1  16
TORSDOF 6
