REMARK  Name = ZINC20882914
REMARK  7 active torsions:
REMARK  status: ('A' for Active; 'I' for Inactive)
REMARK    1  A    between atoms: C_1  and  C_2
REMARK    2  A    between atoms: C_2  and  C_3
REMARK    3  A    between atoms: C_2  and  O_4
REMARK    4  A    between atoms: O_4  and  C_5
REMARK    5  A    between atoms: C_8  and  C_11
REMARK    6  A    between atoms: C_16  and  C_26
REMARK    7  A    between atoms: C_31  and  O_32
REMARK                            x       y       z     vdW  Elec       q    Type
REMARK                         _______ _______ _______ _____ _____    ______ ____
ROOT
ATOM      1  C   UNL     1      -2.942   4.969  -4.215  0.00  0.00    +0.032 C 
ATOM      2  C   UNL     1      -4.191   4.571  -3.431  0.00  0.00    +0.059 C 
ATOM      3  C   UNL     1      -3.824   4.258  -1.990  0.00  0.00    +0.017 C 
ATOM      4  C   UNL     1      -2.805   4.898  -1.391  0.00  0.00    +0.037 C 
ATOM      5  C   UNL     1      -2.342   4.689   0.031  0.00  0.00    +0.139 C 
ATOM      6  N   UNL     1      -3.244   3.906   0.849  0.00  0.00    -0.331 N 
ATOM      7  C   UNL     1      -3.496   2.566   0.560  0.00  0.00    +0.049 A 
ATOM      8  C   UNL     1      -3.064   1.552   1.399  0.00  0.00    +0.025 A 
ATOM      9  C   UNL     1      -3.237   0.233   1.016  0.00  0.00    +0.002 A 
ATOM     10  C   UNL     1      -3.834  -0.072  -0.194  0.00  0.00    +0.002 A 
ATOM     11  C   UNL     1      -4.286   0.939  -1.024  0.00  0.00    +0.025 A 
ATOM     12  C   UNL     1      -4.131   2.258  -0.634  0.00  0.00    +0.052 A 
ATOM     13  N   UNL     1      -4.604   3.320  -1.395  0.00  0.00    -0.316 N 
ATOM     14  C   UNL     1      -2.056   5.866  -2.100  0.00  0.00    +0.163 C 
ATOM     15  O   UNL     1      -1.153   6.444  -1.528  0.00  0.00    -0.292 OA
ATOM     16  C   UNL     1      -2.338   6.204  -3.534  0.00  0.00    +0.088 C 
ATOM     17  H   UNL     1      -3.742   4.368   1.714  0.00  0.00    +0.147 HD
ATOM     18  H   UNL     1      -5.698   3.369  -1.499  0.00  0.00    +0.152 HD
ENDROOT
BRANCH   5  19
ATOM     19  C   UNL     1      -1.004   3.996  -0.000  0.00  0.00    +0.020 A 
ATOM     20  C   UNL     1      -0.582   3.358  -1.151  0.00  0.00    +0.029 A 
ATOM     21  C   UNL     1       0.644   2.718  -1.179  0.00  0.00    +0.042 A 
ATOM     22  C   UNL     1       1.456   2.725  -0.058  0.00  0.00    +0.023 A 
ATOM     23  C   UNL     1       1.040   3.367   1.093  0.00  0.00    +0.047 A 
ATOM     24  C   UNL     1      -0.192   4.004   1.124  0.00  0.00    +0.122 A 
ATOM     25 CL   UNL     1       1.169   1.912  -2.624  0.00  0.00    -0.084 Cl
BRANCH  24  26
ATOM     26  O   UNL     1      -0.602   4.636   2.255  0.00  0.00    -0.506 OA
ATOM     27  H   UNL     1       0.042   4.642   3.147  0.00  0.00    +0.292 HD
ENDBRANCH  24  26
ENDBRANCH   5  19
BRANCH   1  31
ATOM     28  C   UNL     1      -3.999   5.911  -8.246  0.00  0.00    +0.121 A 
ATOM     29  C   UNL     1      -3.078   4.908  -7.986  0.00  0.00    +0.046 A 
ATOM     30  C   UNL     1      -2.737   4.605  -6.682  0.00  0.00    +0.007 A 
ATOM     31  C   UNL     1      -3.315   5.301  -5.636  0.00  0.00    -0.043 A 
ATOM     32  C   UNL     1      -4.238   6.298  -5.893  0.00  0.00    +0.007 A 
ATOM     33  C   UNL     1      -4.577   6.608  -7.196  0.00  0.00    +0.046 A 
BRANCH  28  34
ATOM     34  O   UNL     1      -4.336   6.211  -9.529  0.00  0.00    -0.489 OA
BRANCH  34  36
ATOM     35  C   UNL     1      -4.797   5.264 -11.704  0.00  0.00    +0.051 C 
ATOM     36  C   UNL     1      -3.794   5.375 -10.554  0.00  0.00    +0.167 C 
ATOM     37  C   UNL     1      -2.490   5.984 -11.072  0.00  0.00    +0.051 C 
ENDBRANCH  34  36
ENDBRANCH  28  34
ENDBRANCH   1  31
TORSDOF 5
