REMARK  Name = ZINC25002014
REMARK  7 active torsions:
REMARK  status: ('A' for Active; 'I' for Inactive)
REMARK    1  A    between atoms: C_1  and  C_2
REMARK    2  A    between atoms: C_2  and  C_3
REMARK    3  A    between atoms: C_3  and  C_5
REMARK    4  A    between atoms: C_3  and  N_6
REMARK    5  A    between atoms: C_7  and  C_9
REMARK    6  A    between atoms: C_14  and  N_15
REMARK    7  A    between atoms: C_16  and  C_18
REMARK                            x       y       z     vdW  Elec       q    Type
REMARK                         _______ _______ _______ _____ _____    ______ ____
ROOT
ATOM      1  N   UNL     1      -3.619  -0.751  -3.516  0.00  0.00    -0.284 N 
ATOM      2  C   UNL     1      -4.079  -1.222  -4.692  0.00  0.00    +0.225 C 
ATOM      3  O   UNL     1      -5.040  -1.961  -4.715  0.00  0.00    -0.275 OA
ATOM      4  H   UNL     1      -2.799  -0.018  -3.500  0.00  0.00    +0.155 HD
ENDROOT
BRANCH   2   5
ATOM      5  C   UNL     1      -3.399  -0.830  -5.979  0.00  0.00    +0.116 C 
ATOM      6  C   UNL     1      -3.454   0.689  -6.142  0.00  0.00    +0.113 C 
ATOM      7  C   UNL     1      -4.861   1.120  -6.458  0.00  0.00    +0.218 C 
ATOM      8  O   UNL     1      -5.278   2.172  -6.022  0.00  0.00    -0.275 OA
ATOM      9  N   UNL     1      -5.662   0.351  -7.218  0.00  0.00    -0.285 N 
ATOM     10  C   UNL     1      -5.205  -0.874  -7.715  0.00  0.00    +0.037 A 
ATOM     11  C   UNL     1      -4.101  -1.487  -7.138  0.00  0.00    -0.014 A 
ATOM     12  C   UNL     1      -3.650  -2.697  -7.628  0.00  0.00    +0.006 A 
ATOM     13  C   UNL     1      -4.298  -3.298  -8.692  0.00  0.00    +0.000 A 
ATOM     14  C   UNL     1      -5.397  -2.690  -9.269  0.00  0.00    +0.002 A 
ATOM     15  C   UNL     1      -5.853  -1.479  -8.784  0.00  0.00    +0.023 A 
ATOM     16  H   UNL     1      -6.684   0.684  -7.453  0.00  0.00    +0.155 HD
ENDBRANCH   2   5
BRANCH   1  22
ATOM     17  C   UNL     1      -3.361  -1.505  -1.228  0.00  0.00    +0.058 A 
ATOM     18  C   UNL     1      -3.938  -1.952  -0.037  0.00  0.00    +0.015 A 
ATOM     19  C   UNL     1      -5.307  -2.071   0.061  0.00  0.00    +0.001 A 
ATOM     20  C   UNL     1      -6.116  -1.761  -1.021  0.00  0.00    +0.002 A 
ATOM     21  C   UNL     1      -5.560  -1.324  -2.206  0.00  0.00    +0.024 A 
ATOM     22  C   UNL     1      -4.182  -1.192  -2.321  0.00  0.00    +0.046 A 
BRANCH  17  24
ATOM     23  N   UNL     1      -1.111  -1.666  -0.284  0.00  0.00    -0.309 N 
ATOM     24  C   UNL     1      -1.896  -1.370  -1.338  0.00  0.00    +0.246 C 
ATOM     25  O   UNL     1      -1.397  -0.992  -2.381  0.00  0.00    -0.270 OA
ATOM     26  H   UNL     1      -1.562  -2.008   0.659  0.00  0.00    +0.149 HD
BRANCH  23  27
ATOM     27  C   UNL     1       0.344  -1.532  -0.393  0.00  0.00    +0.070 C 
ATOM     28  C   UNL     1       0.746  -0.085  -0.100  0.00  0.00    +0.028 C 
BRANCH  27  30
ATOM     29  C   UNL     1       0.718  -3.917   0.249  0.00  0.00    +0.005 C 
ATOM     30  C   UNL     1       1.019  -2.463   0.616  0.00  0.00    +0.018 C 
ENDBRANCH  27  30
ENDBRANCH  23  27
ENDBRANCH  17  24
ENDBRANCH   1  22
TORSDOF 5
