REMARK  Name = ZINC08725883
REMARK  15 active torsions:
REMARK  status: ('A' for Active; 'I' for Inactive)
REMARK    1  A    between atoms: C_1  and  C_2
REMARK    2  A    between atoms: C_3  and  C_32
REMARK    3  A    between atoms: C_4  and  C_31
REMARK    4  A    between atoms: C_7  and  C_8
REMARK    5  A    between atoms: C_8  and  C_10
REMARK    6  A    between atoms: C_10  and  C_12
REMARK    7  A    between atoms: C_10  and  S_13
REMARK    8  A    between atoms: S_13  and  C_14
REMARK    9  A    between atoms: C_17  and  C_26
REMARK   10  A    between atoms: N_18  and  C_19
REMARK   11  A    between atoms: C_26  and  C_28
REMARK   12  A    between atoms: C_26  and  N_60
REMARK   13  A    between atoms: C_29  and  N_60
REMARK   14  A    between atoms: C_30  and  N_60
REMARK   15  A    between atoms: C_32  and  C_34
REMARK                            x       y       z     vdW  Elec       q    Type
REMARK                         _______ _______ _______ _____ _____    ______ ____
ROOT
ATOM      1  C   UNL     1      -1.473  10.208   3.051  0.00  0.00    +0.197 A 
ATOM      2  N   UNL     1      -0.485  10.346   2.198  0.00  0.00    -0.122 NA
ATOM      3  N   UNL     1      -0.300  11.592   1.940  0.00  0.00    -0.135 NA
ATOM      4  C   UNL     1      -1.145  12.320   2.614  0.00  0.00    +0.125 A 
ATOM      5  N   UNL     1      -1.924  11.465   3.347  0.00  0.00    -0.275 N 
ENDROOT
BRANCH   5   6
ATOM      6  C   UNL     1      -2.968  11.808   4.220  0.00  0.00    +0.050 A 
ATOM      7  C   UNL     1      -4.115  12.415   3.728  0.00  0.00    +0.028 A 
ATOM      8  C   UNL     1      -5.143  12.746   4.588  0.00  0.00    +0.022 A 
ATOM      9  C   UNL     1      -5.026  12.484   5.942  0.00  0.00    +0.041 A 
ATOM     10  C   UNL     1      -3.881  11.884   6.436  0.00  0.00    +0.022 A 
ATOM     11  C   UNL     1      -2.852  11.546   5.578  0.00  0.00    +0.028 A 
ATOM     12 CL   UNL     1      -6.317  12.908   7.022  0.00  0.00    -0.084 Cl
ENDBRANCH   5   6
BRANCH   4  13
ATOM     13  C   UNL     1      -1.246  13.823   2.590  0.00  0.00    -0.003 C 
ATOM     14  C   UNL     1      -0.090  14.425   3.393  0.00  0.00    -0.005 C 
BRANCH  13  17
ATOM     15  C   UNL     1      -1.389  15.748   1.128  0.00  0.00    -0.096 C 
ATOM     16  C   UNL     1       0.102  13.921   0.581  0.00  0.00    -0.096 C 
ATOM     17  N   UNL     1      -1.196  14.284   1.186  0.00  0.00    +0.382 N 
ATOM     18  H   UNL     1      -1.950  13.827   0.658  0.00  0.00    -0.082 HD
ENDBRANCH  13  17
ENDBRANCH   4  13
BRANCH   1  19
ATOM     19  S   UNL     1      -2.096   8.692   3.697  0.00  0.00    -0.074 S 
BRANCH  19  20
ATOM     20  C   UNL     1      -1.010   7.519   2.848  0.00  0.00    +0.124 C 
ATOM     21  C   UNL     1       0.431   7.724   3.321  0.00  0.00    +0.028 C 
BRANCH  20  22
ATOM     22  C   UNL     1      -1.447   6.112   3.163  0.00  0.00    +0.192 C 
ATOM     23  O   UNL     1      -2.056   5.880   4.187  0.00  0.00    -0.289 OA
BRANCH  22  30
ATOM     24  C   UNL     1      -2.237   3.137   3.591  0.00  0.00    +0.047 C 
ATOM     25  C   UNL     1      -1.484   3.734   2.430  0.00  0.00    -0.012 A 
ATOM     26  C   UNL     1      -0.989   3.043   1.301  0.00  0.00    +0.041 A 
ATOM     27  C   UNL     1      -0.361   3.979   0.492  0.00  0.00    +0.024 A 
ATOM     28  N   UNL     1      -0.463   5.183   1.072  0.00  0.00    -0.355 N 
ATOM     29  H   UNL     1      -0.109   6.011   0.711  0.00  0.00    +0.166 HD
ATOM     30  C   UNL     1      -1.146   5.059   2.265  0.00  0.00    +0.087 A 
ATOM     31  C   UNL     1       0.320   3.691  -0.821  0.00  0.00    +0.064 C 
BRANCH  26  32
ATOM     32  C   UNL     1      -1.110   1.605   1.037  0.00  0.00    +0.162 C 
ATOM     33  O   UNL     1      -0.243   0.844   1.413  0.00  0.00    -0.292 OA
ATOM     34  C   UNL     1      -2.312   1.073   0.300  0.00  0.00    +0.091 C 
ENDBRANCH  26  32
ENDBRANCH  22  30
ENDBRANCH  20  22
ENDBRANCH  19  20
ENDBRANCH   1  19
TORSDOF 8
