REMARK  Name = ZINC38963770
REMARK  7 active torsions:
REMARK  status: ('A' for Active; 'I' for Inactive)
REMARK    1  A    between atoms: C_1  and  C_2
REMARK    2  A    between atoms: C_2  and  C_3
REMARK    3  A    between atoms: C_2  and  C_4
REMARK    4  A    between atoms: C_2  and  N_5
REMARK    5  A    between atoms: N_5  and  C_6
REMARK    6  A    between atoms: C_6  and  C_7
REMARK    7  A    between atoms: C_19  and  C_21
REMARK                            x       y       z     vdW  Elec       q    Type
REMARK                         _______ _______ _______ _____ _____    ______ ____
ROOT
ATOM      1  N   UNL     1      -2.662  -0.446  -2.128  0.00  0.00    -0.291 N 
ATOM      2  C   UNL     1      -3.776   0.138  -2.613  0.00  0.00    +0.248 C 
ATOM      3  O   UNL     1      -4.102  -0.043  -3.770  0.00  0.00    -0.270 OA
ENDROOT
BRANCH   2   4
ATOM      4  C   UNL     1      -4.601   0.998  -1.739  0.00  0.00    +0.051 A 
ATOM      5  C   UNL     1      -4.133   1.368  -0.477  0.00  0.00    +0.014 A 
ATOM      6  C   UNL     1      -4.908   2.171   0.334  0.00  0.00    +0.001 A 
ATOM      7  C   UNL     1      -6.147   2.610  -0.100  0.00  0.00    +0.001 A 
ATOM      8  C   UNL     1      -6.617   2.246  -1.349  0.00  0.00    +0.016 A 
ATOM      9  C   UNL     1      -5.849   1.448  -2.174  0.00  0.00    +0.030 A 
ATOM     10 BR   UNL     1      -6.490   0.959  -3.884  0.00  0.00    -0.050 Br
ENDBRANCH   2   4
BRANCH   1  12
ATOM     11  C   UNL     1      -2.440  -2.641  -1.074  0.00  0.00    +0.031 C 
ATOM     12  C   UNL     1      -2.705  -1.152  -0.845  0.00  0.00    +0.029 C 
ATOM     13  C   UNL     1      -4.084  -0.971  -0.209  0.00  0.00    +0.031 C 
ATOM     14  C   UNL     1      -1.635  -0.581   0.087  0.00  0.00    +0.031 C 
ENDBRANCH   1  12
BRANCH   1  15
ATOM     15  C   UNL     1      -1.409  -0.373  -2.883  0.00  0.00    +0.125 C 
BRANCH  15  16
ATOM     16  C   UNL     1      -1.528  -1.220  -4.151  0.00  0.00    +0.116 C 
ATOM     17  C   UNL     1      -1.548  -0.279  -5.340  0.00  0.00    -0.003 C 
ATOM     18  C   UNL     1      -0.582  -0.447  -6.286  0.00  0.00    -0.007 A 
ATOM     19  C   UNL     1      -0.527   0.417  -7.466  0.00  0.00    +0.009 A 
ATOM     20  C   UNL     1       0.453   0.213  -8.383  0.00  0.00    +0.001 A 
ATOM     21  C   UNL     1       1.400  -0.799  -8.221  0.00  0.00    +0.002 A 
ATOM     22  C   UNL     1       1.403  -1.635  -7.150  0.00  0.00    +0.024 A 
ATOM     23  C   UNL     1       0.431  -1.507  -6.141  0.00  0.00    +0.040 A 
ATOM     24  N   UNL     1       0.445  -2.332  -5.094  0.00  0.00    -0.284 N 
ATOM     25  C   UNL     1      -0.438  -2.268  -4.113  0.00  0.00    +0.226 C 
ATOM     26  O   UNL     1      -0.374  -3.049  -3.183  0.00  0.00    -0.275 OA
ATOM     27  H   UNL     1       1.136  -3.011  -5.051  0.00  0.00    +0.155 HD
ENDBRANCH  15  16
ENDBRANCH   1  15
TORSDOF 4
