REMARK  Name = ZINC16008911
REMARK  3 active torsions:
REMARK  status: ('A' for Active; 'I' for Inactive)
REMARK    1  A    between atoms: C_2  and  N_12
REMARK    2  A    between atoms: C_13  and  C_15
REMARK    3  A    between atoms: C_21  and  C_23
REMARK                            x       y       z     vdW  Elec       q    Type
REMARK                         _______ _______ _______ _____ _____    ______ ____
ROOT
ATOM      1  C   UNL     1      -1.203   1.829   0.162  0.00  0.00    +0.162 C 
ATOM      2  C   UNL     1      -1.204   2.529   1.538  0.00  0.00    +0.033 C 
ATOM      3  C   UNL     1      -2.675   2.360   2.010  0.00  0.00    +0.021 C 
ATOM      4  C   UNL     1      -3.026   0.961   1.445  0.00  0.00    +0.108 C 
ATOM      5  N   UNL     1      -2.339   0.896   0.142  0.00  0.00    -0.289 N 
ATOM      6  C   UNL     1      -2.693   0.111  -0.894  0.00  0.00    +0.222 C 
ATOM      7  O   UNL     1      -2.005   0.078  -1.893  0.00  0.00    -0.275 OA
ENDROOT
BRANCH   6   8
ATOM      8  C   UNL     1      -3.945  -0.725  -0.814  0.00  0.00    +0.048 C 
ATOM      9  C   UNL     1      -3.877  -1.626   0.420  0.00  0.00    +0.019 C 
ATOM     10  C   UNL     1      -5.148  -2.475   0.502  0.00  0.00    -0.009 C 
ATOM     11  C   UNL     1      -5.266  -3.339  -0.755  0.00  0.00    +0.007 C 
ATOM     12  C   UNL     1      -5.333  -2.437  -1.989  0.00  0.00    -0.009 C 
ATOM     13  C   UNL     1      -4.063  -1.589  -2.071  0.00  0.00    +0.019 C 
ATOM     14  C   UNL     1      -6.553  -1.520  -1.884  0.00  0.00    +0.007 C 
ATOM     15  C   UNL     1      -6.435  -0.656  -0.627  0.00  0.00    -0.009 C 
ATOM     16  C   UNL     1      -6.367  -1.557   0.607  0.00  0.00    +0.007 C 
ATOM     17  C   UNL     1      -5.165   0.193  -0.709  0.00  0.00    +0.019 C 
ENDBRANCH   6   8
BRANCH   1  19
ATOM     18  N   UNL     1       1.260   1.733  -0.042  0.00  0.00    -0.283 N 
ATOM     19  C   UNL     1       0.086   1.072  -0.027  0.00  0.00    +0.238 C 
ATOM     20  O   UNL     1       0.066  -0.133  -0.172  0.00  0.00    -0.273 OA
ATOM     21  H   UNL     1       1.272   2.702  -0.005  0.00  0.00    +0.155 HD
BRANCH  18  23
ATOM     22  C   UNL     1       2.522  -0.292   0.337  0.00  0.00    +0.073 A 
ATOM     23  C   UNL     1       2.465   1.020  -0.110  0.00  0.00    +0.051 A 
ATOM     24  C   UNL     1       3.602   1.625  -0.631  0.00  0.00    +0.043 A 
ATOM     25  C   UNL     1       4.791   0.923  -0.695  0.00  0.00    +0.066 A 
ATOM     26  C   UNL     1       4.850  -0.389  -0.250  0.00  0.00    +0.163 A 
ATOM     27  C   UNL     1       3.713  -0.998   0.269  0.00  0.00    +0.164 A 
ATOM     28  O   UNL     1       3.753  -2.283   0.715  0.00  0.00    -0.485 OA
ATOM     29  C   UNL     1       4.865  -3.078   0.289  0.00  0.00    +0.270 C 
ATOM     30  C   UNL     1       6.145  -2.250   0.469  0.00  0.00    +0.270 C 
ATOM     31  O   UNL     1       6.028  -1.067  -0.330  0.00  0.00    -0.485 OA
ATOM     32 BR   UNL     1       3.524   3.411  -1.247  0.00  0.00    -0.048 Br
ENDBRANCH  18  23
ENDBRANCH   1  19
TORSDOF 3
