REMARK  Name = ZINC27795131
REMARK  5 active torsions:
REMARK  status: ('A' for Active; 'I' for Inactive)
REMARK    1  A    between atoms: C_3  and  C_6
REMARK    2  A    between atoms: C_6  and  N_7
REMARK    3  A    between atoms: N_7  and  C_8
REMARK    4  A    between atoms: C_8  and  C_9
REMARK    5  A    between atoms: C_14  and  C_16
REMARK                            x       y       z     vdW  Elec       q    Type
REMARK                         _______ _______ _______ _____ _____    ______ ____
ROOT
ATOM      1  N   UNL     1      -3.638  -1.979  -0.075  0.00  0.00    -0.280 N 
ATOM      2  C   UNL     1      -2.512  -2.708   0.046  0.00  0.00    +0.283 C 
ATOM      3  O   UNL     1      -1.433  -2.154   0.108  0.00  0.00    -0.267 OA
ENDROOT
BRANCH   2   4
ATOM      4  C   UNL     1      -2.589  -4.188   0.103  0.00  0.00    +0.194 A 
ATOM      5  C   UNL     1      -1.438  -4.901   0.086  0.00  0.00    +0.103 A 
ATOM      6  C   UNL     1      -1.513  -6.368   0.143  0.00  0.00    +0.193 A 
ATOM      7  O   UNL     1      -0.510  -7.060   0.131  0.00  0.00    -0.287 OA
ATOM      8  C   UNL     1      -2.861  -6.963   0.214  0.00  0.00    +0.065 A 
ATOM      9  C   UNL     1      -3.042  -8.345   0.271  0.00  0.00    +0.030 A 
ATOM     10  C   UNL     1      -4.317  -8.862   0.337  0.00  0.00    +0.019 A 
ATOM     11  C   UNL     1      -5.416  -8.012   0.347  0.00  0.00    +0.019 A 
ATOM     12  C   UNL     1      -5.251  -6.646   0.291  0.00  0.00    +0.048 A 
ATOM     13  C   UNL     1      -3.972  -6.102   0.224  0.00  0.00    +0.140 A 
ATOM     14  O   UNL     1      -3.796  -4.767   0.168  0.00  0.00    -0.450 OA
ATOM     15 BR   UNL     1      -4.573 -10.734   0.413  0.00  0.00    -0.050 Br
ENDBRANCH   2   4
BRANCH   1  16
ATOM     16  C   UNL     1      -3.557  -0.523  -0.218  0.00  0.00    +0.182 C 
BRANCH  16  19
ATOM     17  C   UNL     1      -4.268   0.391  -3.717  0.00  0.00    +0.041 A 
ATOM     18  C   UNL     1      -4.696   0.096  -2.402  0.00  0.00    +0.046 A 
ATOM     19  C   UNL     1      -3.590  -0.159  -1.680  0.00  0.00    +0.122 A 
ATOM     20  O   UNL     1      -2.521  -0.029  -2.482  0.00  0.00    -0.466 OA
ATOM     21  C   UNL     1      -2.926   0.299  -3.720  0.00  0.00    +0.195 A 
ENDBRANCH  16  19
ENDBRANCH   1  16
BRANCH   1  22
ATOM     22  C   UNL     1      -4.945  -2.642  -0.064  0.00  0.00    +0.182 C 
BRANCH  22  23
ATOM     23  C   UNL     1      -5.377  -2.876   1.360  0.00  0.00    +0.122 A 
ATOM     24  C   UNL     1      -6.096  -2.026   2.114  0.00  0.00    +0.046 A 
ATOM     25  C   UNL     1      -6.272  -2.644   3.374  0.00  0.00    +0.041 A 
ATOM     26  C   UNL     1      -5.650  -3.835   3.314  0.00  0.00    +0.195 A 
ATOM     27  O   UNL     1      -5.114  -3.973   2.090  0.00  0.00    -0.466 OA
ENDBRANCH  22  23
ENDBRANCH   1  22
TORSDOF 5
