REMARK  Name = ZINC08194741
REMARK  10 active torsions:
REMARK  status: ('A' for Active; 'I' for Inactive)
REMARK    1  A    between atoms: C_1  and  C_2
REMARK    2  A    between atoms: C_5  and  O_28
REMARK    3  A    between atoms: C_6  and  N_8
REMARK    4  A    between atoms: C_9  and  S_13
REMARK    5  A    between atoms: S_13  and  C_14
REMARK    6  A    between atoms: C_14  and  C_16
REMARK    7  A    between atoms: C_14  and  C_17
REMARK    8  A    between atoms: N_19  and  C_20
REMARK    9  A    between atoms: C_20  and  C_26
REMARK   10  A    between atoms: O_28  and  C_29
REMARK                            x       y       z     vdW  Elec       q    Type
REMARK                         _______ _______ _______ _____ _____    ______ ____
ROOT
ATOM      1  S   UNL     1       0.259  -0.578   4.083  0.00  0.00    -0.072 S 
ENDROOT
BRANCH   1   3
ATOM      2  N   UNL     1       0.052  -2.795   2.401  0.00  0.00    -0.184 N 
ATOM      3  C   UNL     1       0.140  -2.283   3.654  0.00  0.00    +0.215 A 
ATOM      4  N   UNL     1       0.119  -3.300   4.489  0.00  0.00    -0.101 NA
ATOM      5  N   UNL     1       0.025  -4.408   3.846  0.00  0.00    -0.022 NA
ATOM      6  N   UNL     1      -0.026  -4.188   2.577  0.00  0.00    -0.038 NA
BRANCH   2  12
ATOM      7  C   UNL     1       1.975   0.687  -0.492  0.00  0.00    +0.044 C 
ATOM      8  C   UNL     1       0.956  -0.394  -0.238  0.00  0.00    -0.048 A 
ATOM      9  C   UNL     1       0.007  -0.687  -1.200  0.00  0.00    +0.007 A 
ATOM     10  C   UNL     1      -0.930  -1.677  -0.973  0.00  0.00    +0.048 A 
ATOM     11  C   UNL     1      -0.919  -2.381   0.221  0.00  0.00    +0.146 A 
ATOM     12  C   UNL     1       0.037  -2.087   1.190  0.00  0.00    +0.112 A 
ATOM     13  C   UNL     1       0.977  -1.095   0.953  0.00  0.00    +0.035 A 
BRANCH  11  14
ATOM     14  O   UNL     1      -1.841  -3.355   0.446  0.00  0.00    -0.493 OA
ATOM     15  C   UNL     1      -2.791  -3.601  -0.592  0.00  0.00    +0.277 C 
ENDBRANCH  11  14
ENDBRANCH   2  12
ENDBRANCH   1   3
BRANCH   1  16
ATOM     16  C   UNL     1       0.342  -0.587   5.895  0.00  0.00    +0.137 C 
ATOM     17  C   UNL     1      -0.974  -1.122   6.464  0.00  0.00    +0.029 C 
BRANCH  16  18
ATOM     18  C   UNL     1       0.571   0.817   6.394  0.00  0.00    +0.227 C 
ATOM     19  O   UNL     1       0.229   1.764   5.718  0.00  0.00    -0.275 OA
ATOM     20  N   UNL     1       1.155   1.020   7.591  0.00  0.00    -0.296 N 
ATOM     21  H   UNL     1       1.429   0.262   8.132  0.00  0.00    +0.150 HD
BRANCH  20  22
ATOM     22  C   UNL     1       1.378   2.384   8.076  0.00  0.00    +0.121 C 
ATOM     23  C   UNL     1       2.279   3.134   7.093  0.00  0.00    +0.041 C 
ATOM     24  C   UNL     1       2.511   4.559   7.600  0.00  0.00    +0.003 C 
ATOM     25  C   UNL     1       3.185   4.509   8.973  0.00  0.00    +0.000 C 
ATOM     26  C   UNL     1       2.284   3.759   9.956  0.00  0.00    +0.003 C 
ATOM     27  C   UNL     1       2.051   2.334   9.449  0.00  0.00    +0.041 C 
BRANCH  22  28
ATOM     28  C   UNL     1       0.087   3.082   8.188  0.00  0.00    +0.088 C 
ATOM     29  N   UNL     1      -0.910   3.620   8.275  0.00  0.00    -0.194 NA
ENDBRANCH  22  28
ENDBRANCH  20  22
ENDBRANCH  16  18
ENDBRANCH   1  16
TORSDOF 7
