REMARK  Name = ZINC51732294
REMARK  3 active torsions:
REMARK  status: ('A' for Active; 'I' for Inactive)
REMARK    1  A    between atoms: C_1  and  C_2
REMARK    2  A    between atoms: C_7  and  C_10
REMARK    3  A    between atoms: C_11  and  C_13
REMARK                            x       y       z     vdW  Elec       q    Type
REMARK                         _______ _______ _______ _____ _____    ______ ____
ROOT
ATOM      1  C   UNL     1       0.410   1.919   0.678  0.00  0.00    +0.007 C 
ATOM      2  C   UNL     1       0.390   0.425   0.348  0.00  0.00    -0.011 C 
ATOM      3  C   UNL     1       1.341   0.148  -0.819  0.00  0.00    +0.022 C 
ATOM      4  C   UNL     1       1.293  -1.343  -1.169  0.00  0.00    +0.108 C 
ATOM      5  N   UNL     1       1.581  -2.123   0.043  0.00  0.00    -0.293 N 
ATOM      6  C   UNL     1       0.784  -1.871   1.251  0.00  0.00    +0.074 C 
ATOM      7  C   UNL     1       0.838  -0.374   1.574  0.00  0.00    +0.025 C 
ATOM      8  C   UNL     1       1.358  -2.672   2.421  0.00  0.00    +0.028 C 
ATOM      9  C   UNL     1       2.557  -3.052   0.046  0.00  0.00    +0.267 C 
ATOM     10  O   UNL     1       2.906  -3.564   1.091  0.00  0.00    -0.268 OA
ENDROOT
BRANCH   9  11
ATOM     11  C   UNL     1       3.205  -3.449  -1.225  0.00  0.00    +0.148 A 
ATOM     12  C   UNL     1       4.321  -4.291  -1.212  0.00  0.00    +0.038 A 
ATOM     13  C   UNL     1       4.891  -4.633  -2.429  0.00  0.00    +0.044 A 
ATOM     14  C   UNL     1       4.320  -4.119  -3.585  0.00  0.00    +0.152 A 
ATOM     15  N   UNL     1       3.263  -3.328  -3.506  0.00  0.00    -0.137 NA
ATOM     16  N   UNL     1       2.727  -3.011  -2.384  0.00  0.00    -0.143 NA
ATOM     17 CL   UNL     1       4.994  -4.515  -5.135  0.00  0.00    -0.060 Cl
ENDBRANCH   9  11
TORSDOF 1
