REMARK  Name = ZINC09058980
REMARK  5 active torsions:
REMARK  status: ('A' for Active; 'I' for Inactive)
REMARK    1  A    between atoms: C_1  and  N_50
REMARK    2  A    between atoms: C_3  and  C_24
REMARK    3  A    between atoms: C_5  and  C_17
REMARK    4  A    between atoms: C_17  and  C_19
REMARK    5  A    between atoms: C_28  and  N_30
REMARK                            x       y       z     vdW  Elec       q    Type
REMARK                         _______ _______ _______ _____ _____    ______ ____
ROOT
ATOM      1  C   UNL     1       5.846   2.077   1.352  0.00  0.00    -0.094 C 
ATOM      2  C   UNL     1       3.492   1.472   1.177  0.00  0.00    -0.068 C 
ATOM      3  C   UNL     1       2.573   1.001   0.021  0.00  0.00    +0.013 C 
ATOM      4  C   UNL     1       3.335   1.464  -1.244  0.00  0.00    +0.071 C 
ATOM      5  C   UNL     1       4.792   1.628  -0.784  0.00  0.00    +0.051 C 
ATOM      6  C   UNL     1       5.274   3.038  -0.998  0.00  0.00    -0.027 A 
ATOM      7  C   UNL     1       4.856   4.261  -0.524  0.00  0.00    +0.004 A 
ATOM      8  C   UNL     1       5.517   5.414  -0.908  0.00  0.00    +0.000 A 
ATOM      9  C   UNL     1       6.596   5.334  -1.770  0.00  0.00    +0.002 A 
ATOM     10  C   UNL     1       7.017   4.111  -2.247  0.00  0.00    +0.023 A 
ATOM     11  C   UNL     1       6.358   2.945  -1.865  0.00  0.00    +0.036 A 
ATOM     12  N   UNL     1       6.590   1.611  -2.206  0.00  0.00    -0.286 N 
ATOM     13  C   UNL     1       5.715   0.775  -1.614  0.00  0.00    +0.212 C 
ATOM     14  O   UNL     1       5.678  -0.431  -1.728  0.00  0.00    -0.277 OA
ATOM     15  H   UNL     1       7.299   1.320  -2.800  0.00  0.00    +0.155 HD
ATOM     16  N   UNL     1       4.835   1.250   0.624  0.00  0.00    +0.391 N 
ATOM     17  H   UNL     1       5.086   0.258   0.710  0.00  0.00    -0.080 HD
ENDROOT
BRANCH   3  18
ATOM     18  C   UNL     1       1.225   1.669   0.106  0.00  0.00    -0.043 A 
ATOM     19  C   UNL     1       1.137   3.048   0.122  0.00  0.00    +0.004 A 
ATOM     20  C   UNL     1      -0.100   3.661   0.200  0.00  0.00    +0.002 A 
ATOM     21  C   UNL     1      -1.248   2.894   0.262  0.00  0.00    +0.033 A 
ATOM     22  C   UNL     1      -1.161   1.514   0.240  0.00  0.00    +0.126 A 
ATOM     23  C   UNL     1       0.077   0.902   0.168  0.00  0.00    +0.036 A 
BRANCH  22  24
ATOM     24  N   UNL     1      -2.391   0.693   0.299  0.00  0.00    +0.056 N 
ATOM     25  O   UNL     1      -2.313  -0.522   0.285  0.00  0.00    -0.126 OA
ATOM     26  O   UNL     1      -3.481   1.233   0.363  0.00  0.00    -0.126 OA
ENDBRANCH  22  24
ENDBRANCH   3  18
BRANCH   4  27
ATOM     27  C   UNL     1       3.237   0.421  -2.327  0.00  0.00    +0.201 C 
ATOM     28  O   UNL     1       3.062  -0.744  -2.033  0.00  0.00    -0.289 OA
BRANCH  27  29
ATOM     29  C   UNL     1       3.350   0.799  -3.684  0.00  0.00    +0.170 A 
ATOM     30  C   UNL     1       3.279  -0.048  -4.773  0.00  0.00    +0.053 A 
ATOM     31  C   UNL     1       3.440   0.753  -5.911  0.00  0.00    +0.042 A 
ATOM     32  C   UNL     1       3.599   2.028  -5.485  0.00  0.00    +0.196 A 
ATOM     33  O   UNL     1       3.539   2.052  -4.148  0.00  0.00    -0.460 OA
ENDBRANCH  27  29
ENDBRANCH   4  27
TORSDOF 4
