REMARK  Name = ZINC04942565
REMARK  4 active torsions:
REMARK  status: ('A' for Active; 'I' for Inactive)
REMARK    1  A    between atoms: C_4  and  S_7
REMARK    2  A    between atoms: S_7  and  O_10
REMARK    3  A    between atoms: O_10  and  C_11
REMARK    4  A    between atoms: C_14  and  C_17
REMARK                            x       y       z     vdW  Elec       q    Type
REMARK                         _______ _______ _______ _____ _____    ______ ____
ROOT
ATOM      1  C   UNL     1       2.257   5.355  -1.883  0.00  0.00    +0.157 A 
ATOM      2  C   UNL     1       1.300   4.951  -2.808  0.00  0.00    +0.049 A 
ATOM      3  C   UNL     1       0.555   5.889  -3.486  0.00  0.00    +0.011 A 
ATOM      4  C   UNL     1       0.771   7.253  -3.251  0.00  0.00    -0.024 A 
ATOM      5  C   UNL     1       1.740   7.654  -2.323  0.00  0.00    +0.011 A 
ATOM      6  C   UNL     1       2.475   6.707  -1.647  0.00  0.00    +0.049 A 
ENDROOT
BRANCH   4   7
ATOM      7  C   UNL     1      -0.017   8.259  -3.976  0.00  0.00    +0.028 C 
ATOM      8  C   UNL     1       0.573   9.405  -4.400  0.00  0.00    +0.079 C 
ATOM      9  C   UNL     1       2.003   9.793  -4.401  0.00  0.00    +0.276 C 
ATOM     10  O   UNL     1       2.873   9.048  -3.980  0.00  0.00    -0.267 OA
ATOM     11  N   UNL     1       2.283  10.985  -4.881  0.00  0.00    -0.154 NA
ATOM     12  C   UNL     1       1.349  11.803  -5.340  0.00  0.00    +0.154 C 
ATOM     13  S   UNL     1      -0.158  10.870  -5.122  0.00  0.00    -0.052 S 
ATOM     14  N   UNL     1       1.502  13.060  -5.862  0.00  0.00    -0.311 N 
ATOM     15  C   UNL     1       0.418  13.918  -6.363  0.00  0.00    +0.107 C 
ATOM     16  C   UNL     1       1.065  15.223  -6.873  0.00  0.00    +0.020 C 
ATOM     17  C   UNL     1       2.528  14.795  -7.159  0.00  0.00    +0.020 C 
ATOM     18  C   UNL     1       2.782  13.775  -6.021  0.00  0.00    +0.107 C 
ENDBRANCH   4   7
BRANCH   1  19
ATOM     19  O   UNL     1       2.985   4.425  -1.213  0.00  0.00    -0.342 OA
BRANCH  19  20
ATOM     20  S   UNL     1       2.360   3.979   0.101  0.00  0.00    +0.151 S 
ATOM     21  O   UNL     1       1.795   5.139   0.696  0.00  0.00    -0.131 OA
ATOM     22  O   UNL     1       3.331   3.180   0.762  0.00  0.00    -0.131 OA
BRANCH  20  26
ATOM     23  C   UNL     1      -1.093   1.238  -0.926  0.00  0.00    +0.000 A 
ATOM     24  C   UNL     1       0.172   0.714  -0.734  0.00  0.00    +0.002 A 
ATOM     25  C   UNL     1       1.226   1.552  -0.421  0.00  0.00    +0.030 A 
ATOM     26  C   UNL     1       1.015   2.912  -0.297  0.00  0.00    +0.128 A 
ATOM     27  C   UNL     1      -0.251   3.435  -0.484  0.00  0.00    +0.030 A 
ATOM     28  C   UNL     1      -1.305   2.598  -0.797  0.00  0.00    +0.002 A 
ENDBRANCH  20  26
ENDBRANCH  19  20
ENDBRANCH   1  19
TORSDOF 4
