REMARK  Name = ZINC39570559
REMARK  13 active torsions:
REMARK  status: ('A' for Active; 'I' for Inactive)
REMARK    1  A    between atoms: C_1  and  C_2
REMARK    2  A    between atoms: C_2  and  C_3
REMARK    3  A    between atoms: C_4  and  C_33
REMARK    4  A    between atoms: C_6  and  N_13
REMARK    5  A    between atoms: C_7  and  C_8
REMARK    6  A    between atoms: C_8  and  O_10
REMARK    7  A    between atoms: O_10  and  C_11
REMARK    8  A    between atoms: C_11  and  C_12
REMARK    9  A    between atoms: C_14  and  C_16
REMARK   10  A    between atoms: C_16  and  N_17
REMARK   11  A    between atoms: C_20  and  C_24
REMARK   12  A    between atoms: C_20  and  C_26
REMARK   13  A    between atoms: C_24  and  C_25
REMARK                            x       y       z     vdW  Elec       q    Type
REMARK                         _______ _______ _______ _____ _____    ______ ____
ROOT
ATOM      1  C   UNL     1      -6.549  -2.408  -2.824  0.00  0.00    +0.214 C 
ENDROOT
BRANCH   1   2
ATOM      2  N   UNL     1      -7.800  -2.870  -2.218  0.00  0.00    -0.215 N 
ATOM      3  C   UNL     1      -8.059  -4.155  -1.904  0.00  0.00    +0.251 C 
ATOM      4  O   UNL     1      -7.329  -5.110  -2.063  0.00  0.00    -0.272 OA
ATOM      5  C   UNL     1      -9.454  -4.158  -1.309  0.00  0.00    +0.138 C 
ATOM      6  N   UNL     1      -9.856  -2.742  -1.362  0.00  0.00    -0.281 N 
ATOM      7  C   UNL     1      -8.824  -2.069  -1.903  0.00  0.00    +0.310 C 
ATOM      8  O   UNL     1      -8.824  -0.868  -2.088  0.00  0.00    -0.252 OA
ATOM      9  H   UNL     1     -10.699  -2.367  -1.063  0.00  0.00    +0.152 HD
BRANCH   5  10
ATOM     10  C   UNL     1      -9.421  -4.647   0.116  0.00  0.00    -0.015 A 
ATOM     11  C   UNL     1      -9.575  -5.993   0.389  0.00  0.00    +0.007 A 
ATOM     12  C   UNL     1      -9.546  -6.442   1.696  0.00  0.00    +0.020 A 
ATOM     13  C   UNL     1      -9.361  -5.543   2.731  0.00  0.00    +0.041 A 
ATOM     14  C   UNL     1      -9.207  -4.196   2.458  0.00  0.00    +0.020 A 
ATOM     15  C   UNL     1      -9.231  -3.749   1.150  0.00  0.00    +0.007 A 
ATOM     16 CL   UNL     1      -9.324  -6.106   4.373  0.00  0.00    -0.084 Cl
ENDBRANCH   5  10
BRANCH   5  17
ATOM     17  C   UNL     1     -10.397  -5.018  -2.153  0.00  0.00    +0.037 C 
ATOM     18  C   UNL     1     -10.452  -4.466  -3.579  0.00  0.00    +0.007 C 
ENDBRANCH   5  17
ENDBRANCH   1   2
BRANCH   1  20
ATOM     19  N   UNL     1      -4.340  -1.597  -2.061  0.00  0.00    -0.278 N 
ATOM     20  C   UNL     1      -5.567  -2.050  -1.738  0.00  0.00    +0.236 C 
ATOM     21  O   UNL     1      -5.882  -2.170  -0.573  0.00  0.00    -0.274 OA
ATOM     22  H   UNL     1      -4.088  -1.501  -2.993  0.00  0.00    +0.155 HD
BRANCH  19  26
ATOM     23  C   UNL     1      -1.412  -0.526   0.013  0.00  0.00    -0.022 A 
ATOM     24  C   UNL     1      -2.073  -0.774   1.158  0.00  0.00    -0.008 A 
ATOM     25  S   UNL     1      -3.659  -1.356   0.598  0.00  0.00    -0.078 S 
ATOM     26  C   UNL     1      -3.437  -1.268  -1.063  0.00  0.00    +0.086 A 
ATOM     27  C   UNL     1      -2.144  -0.785  -1.207  0.00  0.00    +0.091 A 
ATOM     28  C   UNL     1      -1.588  -0.600   2.574  0.00  0.00    +0.052 C 
BRANCH  23  30
ATOM     29  C   UNL     1      -0.019   1.526   0.010  0.00  0.00    +0.009 C 
ATOM     30  C   UNL     1       0.002  -0.004   0.002  0.00  0.00    +0.033 C 
ENDBRANCH  23  30
BRANCH  27  31
ATOM     31  C   UNL     1      -1.550  -0.554  -2.525  0.00  0.00    +0.342 C 
ATOM     32  O   UNL     1      -0.939  -1.447  -3.082  0.00  0.00    -0.245 OA
BRANCH  31  33
ATOM     33  O   UNL     1      -1.681   0.648  -3.123  0.00  0.00    -0.461 OA
BRANCH  33  34
ATOM     34  C   UNL     1      -1.076   0.803  -4.408  0.00  0.00    +0.229 C 
ATOM     35  C   UNL     1      -1.328   2.221  -4.923  0.00  0.00    +0.048 C 
ENDBRANCH  33  34
ENDBRANCH  31  33
ENDBRANCH  27  31
ENDBRANCH  19  26
ENDBRANCH   1  20
TORSDOF 9
