REMARK  Name = ZINC20696085
REMARK  6 active torsions:
REMARK  status: ('A' for Active; 'I' for Inactive)
REMARK    1  A    between atoms: C_4  and  C_7
REMARK    2  A    between atoms: C_7  and  C_8
REMARK    3  A    between atoms: C_8  and  N_9
REMARK    4  A    between atoms: C_10  and  C_12
REMARK    5  A    between atoms: C_19  and  C_28
REMARK    6  A    between atoms: C_33  and  O_34
REMARK                            x       y       z     vdW  Elec       q    Type
REMARK                         _______ _______ _______ _____ _____    ______ ____
ROOT
ATOM      1  C   UNL     1      -0.017   1.389   0.010  0.00  0.00    +0.058 A 
ATOM      2  C   UNL     1       0.002  -0.004   0.002  0.00  0.00    +0.015 A 
ATOM      3  C   UNL     1       1.203  -0.678  -0.015  0.00  0.00    +0.001 A 
ATOM      4  C   UNL     1       2.392   0.032  -0.032  0.00  0.00    +0.006 A 
ATOM      5  C   UNL     1       2.393   1.409  -0.029  0.00  0.00    -0.019 A 
ATOM      6  C   UNL     1       1.189   2.120   0.002  0.00  0.00    +0.044 A 
ATOM      7  N   UNL     1       1.102   3.501   0.048  0.00  0.00    -0.336 N 
ATOM      8  C   UNL     1       2.364   4.252  -0.048  0.00  0.00    +0.108 C 
ATOM      9  C   UNL     1       3.398   3.489   0.754  0.00  0.00    +0.029 C 
ATOM     10  C   UNL     1       3.651   2.187  -0.069  0.00  0.00    +0.049 C 
ATOM     11  C   UNL     1       4.926   1.678   0.492  0.00  0.00    -0.023 C 
ATOM     12  C   UNL     1       5.630   2.710   0.945  0.00  0.00    -0.030 C 
ATOM     13  C   UNL     1       4.841   4.007   0.746  0.00  0.00    +0.033 C 
ATOM     14  H   UNL     1       0.148   4.040   0.152  0.00  0.00    +0.147 HD
ENDROOT
BRANCH   8  15
ATOM     15  C   UNL     1       2.185   5.633   0.527  0.00  0.00    +0.015 A 
ATOM     16  C   UNL     1       1.170   5.880   1.431  0.00  0.00    +0.024 A 
ATOM     17  C   UNL     1       1.008   7.147   1.962  0.00  0.00    +0.018 A 
ATOM     18  C   UNL     1       1.856   8.172   1.582  0.00  0.00    +0.019 A 
ATOM     19  C   UNL     1       2.869   7.931   0.675  0.00  0.00    +0.047 A 
ATOM     20  C   UNL     1       3.036   6.660   0.144  0.00  0.00    +0.122 A 
ATOM     21 BR   UNL     1      -0.379   7.480   3.204  0.00  0.00    -0.050 Br
BRANCH  20  22
ATOM     22  O   UNL     1       4.032   6.421  -0.749  0.00  0.00    -0.506 OA
ATOM     23  H   UNL     1       4.707   7.235  -1.052  0.00  0.00    +0.292 HD
ENDBRANCH  20  22
ENDBRANCH   8  15
BRANCH   1  25
ATOM     24  N   UNL     1      -2.462   1.410   0.021  0.00  0.00    -0.311 N 
ATOM     25  C   UNL     1      -1.306   2.104   0.020  0.00  0.00    +0.246 C 
ATOM     26  O   UNL     1      -1.327   3.320   0.026  0.00  0.00    -0.270 OA
ATOM     27  H   UNL     1      -2.442   0.310   0.015  0.00  0.00    +0.149 HD
BRANCH  24  28
ATOM     28  C   UNL     1      -3.743   2.120   0.031  0.00  0.00    +0.109 C 
BRANCH  28  29
ATOM     29  C   UNL     1      -4.888   1.106   0.031  0.00  0.00    +0.054 C 
BRANCH  29  33
ATOM     30  C   UNL     1      -8.624   3.177   0.060  0.00  0.00    +0.000 A 
ATOM     31  C   UNL     1      -8.025   2.848  -1.142  0.00  0.00    +0.000 A 
ATOM     32  C   UNL     1      -6.816   2.178  -1.151  0.00  0.00    +0.004 A 
ATOM     33  C   UNL     1      -6.206   1.837   0.041  0.00  0.00    -0.046 A 
ATOM     34  C   UNL     1      -6.808   2.160   1.243  0.00  0.00    +0.004 A 
ATOM     35  C   UNL     1      -8.014   2.835   1.253  0.00  0.00    +0.000 A 
ENDBRANCH  29  33
ENDBRANCH  28  29
ENDBRANCH  24  28
ENDBRANCH   1  25
TORSDOF 6
