REMARK  Name = ZINC20765045
REMARK  8 active torsions:
REMARK  status: ('A' for Active; 'I' for Inactive)
REMARK    1  A    between atoms: C_1  and  C_2
REMARK    2  A    between atoms: C_2  and  C_3
REMARK    3  A    between atoms: C_6  and  C_9
REMARK    4  A    between atoms: N_14  and  C_17
REMARK    5  A    between atoms: C_17  and  C_18
REMARK    6  A    between atoms: C_17  and  C_19
REMARK    7  A    between atoms: C_21  and  C_24
REMARK    8  A    between atoms: C_29  and  O_30
REMARK                            x       y       z     vdW  Elec       q    Type
REMARK                         _______ _______ _______ _____ _____    ______ ____
ROOT
ATOM      1  C   UNL     1       2.784  -1.910   4.662  0.00  0.00    +0.047 C 
ATOM      2  N   UNL     1       4.049  -2.086   4.587  0.00  0.00    -0.266 NA
ATOM      3  C   UNL     1       4.875  -2.574   5.686  0.00  0.00    +0.109 C 
ATOM      4  C   UNL     1       6.184  -1.778   5.735  0.00  0.00    +0.027 C 
ATOM      5  C   UNL     1       6.962  -2.007   4.437  0.00  0.00    -0.075 C 
ATOM      6  N   UNL     1       7.264  -3.435   4.289  0.00  0.00    +0.381 N 
ATOM      7  C   UNL     1       6.017  -4.200   4.174  0.00  0.00    -0.075 C 
ATOM      8  C   UNL     1       5.203  -4.054   5.461  0.00  0.00    +0.027 C 
ATOM      9  N   UNL     1       4.170  -2.424   6.965  0.00  0.00    -0.286 NA
ATOM     10  C   UNL     1       2.826  -3.022   6.877  0.00  0.00    +0.095 C 
ATOM     11  C   UNL     1       1.991  -2.172   5.912  0.00  0.00    +0.079 C 
ATOM     12  H   UNL     1       4.699  -2.833   7.720  0.00  0.00    +0.125 HD
ATOM     13  H   UNL     1       7.779  -3.754   5.096  0.00  0.00    -0.081 HD
ENDROOT
BRANCH  10  14
ATOM     14  C   UNL     1       2.181  -3.027   8.239  0.00  0.00    +0.012 A 
ATOM     15  C   UNL     1       2.568  -2.102   9.190  0.00  0.00    +0.024 A 
ATOM     16  C   UNL     1       1.976  -2.106  10.440  0.00  0.00    +0.018 A 
ATOM     17  C   UNL     1       0.996  -3.035  10.741  0.00  0.00    +0.019 A 
ATOM     18  C   UNL     1       0.606  -3.961   9.793  0.00  0.00    +0.047 A 
ATOM     19  C   UNL     1       1.195  -3.955   8.536  0.00  0.00    +0.122 A 
ATOM     20 BR   UNL     1       2.508  -0.840  11.740  0.00  0.00    -0.050 Br
BRANCH  19  21
ATOM     21  O   UNL     1       0.810  -4.862   7.600  0.00  0.00    -0.506 OA
ATOM     22  H   UNL     1       1.315  -5.687   7.620  0.00  0.00    +0.292 HD
ENDBRANCH  19  21
ENDBRANCH  10  14
BRANCH   1  26
ATOM     23  C   UNL     1       0.731  -0.503   1.223  0.00  0.00    -0.048 A 
ATOM     24  C   UNL     1       2.098  -0.709   1.173  0.00  0.00    +0.004 A 
ATOM     25  C   UNL     1       2.772  -1.165   2.287  0.00  0.00    +0.010 A 
ATOM     26  C   UNL     1       2.070  -1.421   3.466  0.00  0.00    -0.004 A 
ATOM     27  C   UNL     1       0.691  -1.211   3.510  0.00  0.00    +0.010 A 
ATOM     28  C   UNL     1       0.031  -0.749   2.391  0.00  0.00    +0.004 A 
BRANCH  23  30
ATOM     29  C   UNL     1      -0.019   1.526   0.010  0.00  0.00    +0.009 C 
ATOM     30  C   UNL     1       0.002  -0.004   0.002  0.00  0.00    +0.032 C 
ENDBRANCH  23  30
ENDBRANCH   1  26
BRANCH   6  31
ATOM     31  C   UNL     1       8.075  -3.640   3.082  0.00  0.00    -0.075 C 
ATOM     32  C   UNL     1       9.381  -2.851   3.204  0.00  0.00    -0.014 C 
ATOM     33  C   UNL     1       8.392  -5.129   2.926  0.00  0.00    -0.014 C 
ENDBRANCH   6  31
TORSDOF 5
