REMARK  Name = ZINC64137750
REMARK  9 active torsions:
REMARK  status: ('A' for Active; 'I' for Inactive)
REMARK    1  A    between atoms: C_1  and  C_2
REMARK    2  A    between atoms: C_4  and  C_12
REMARK    3  A    between atoms: C_12  and  C_14
REMARK    4  A    between atoms: C_14  and  C_31
REMARK    5  A    between atoms: C_15  and  C_16
REMARK    6  A    between atoms: C_19  and  O_22
REMARK    7  A    between atoms: O_22  and  C_23
REMARK    8  A    between atoms: C_23  and  C_24
REMARK    9  A    between atoms: C_27  and  C_30
REMARK                            x       y       z     vdW  Elec       q    Type
REMARK                         _______ _______ _______ _____ _____    ______ ____
ROOT
ATOM      1  C   UNL     1       1.642  -0.366  -3.821  0.00  0.00    +0.099 C 
ATOM      2  C   UNL     1       1.056  -0.618  -5.046  0.00  0.00    +0.030 C 
ENDROOT
BRANCH   2   3
ATOM      3  C   UNL     1      -0.050   0.218  -5.513  0.00  0.00    -0.023 A 
ATOM      4  C   UNL     1      -0.967   0.753  -4.594  0.00  0.00    +0.011 A 
ATOM      5  C   UNL     1      -1.997   1.532  -5.037  0.00  0.00    +0.046 A 
ATOM      6  C   UNL     1      -2.139   1.797  -6.396  0.00  0.00    +0.121 A 
ATOM      7  C   UNL     1      -1.233   1.270  -7.312  0.00  0.00    +0.046 A 
ATOM      8  C   UNL     1      -0.196   0.493  -6.882  0.00  0.00    +0.011 A 
BRANCH   6   9
ATOM      9  O   UNL     1      -3.164   2.571  -6.830  0.00  0.00    -0.486 OA
BRANCH   9  10
ATOM     10  C   UNL     1      -3.252   2.804  -8.237  0.00  0.00    +0.280 C 
BRANCH  10  11
ATOM     11  C   UNL     1      -4.444   3.678  -8.528  0.00  0.00    +0.062 C 
ATOM     12  C   UNL     1      -4.777   4.086  -9.957  0.00  0.00    +0.125 C 
ATOM     13  S   UNL     1      -5.988   5.441  -9.626  0.00  0.00    -0.129 S 
ATOM     14  C   UNL     1      -6.352   4.941  -7.886  0.00  0.00    +0.159 C 
ATOM     15  N   UNL     1      -5.186   4.081  -7.598  0.00  0.00    -0.275 NA
ATOM     16  C   UNL     1      -6.392   6.156  -6.958  0.00  0.00    +0.044 C 
ENDBRANCH  10  11
ENDBRANCH   9  10
ENDBRANCH   6   9
ENDBRANCH   2   3
BRANCH   1  17
ATOM     17  C   UNL     1       1.260   0.830  -3.055  0.00  0.00    +0.202 C 
ATOM     18  O   UNL     1       1.479   1.940  -3.508  0.00  0.00    -0.286 OA
BRANCH  17  21
ATOM     19  C   UNL     1      -0.870  -1.309  -1.942  0.00  0.00    +0.035 C 
ATOM     20  C   UNL     1       0.176  -0.598  -1.080  0.00  0.00    +0.111 C 
ATOM     21  C   UNL     1       0.615   0.687  -1.748  0.00  0.00    +0.031 C 
ATOM     22  C   UNL     1       0.281   1.696  -0.867  0.00  0.00    +0.007 A 
ATOM     23  C   UNL     1       0.432   3.104  -0.915  0.00  0.00    +0.010 A 
ATOM     24  C   UNL     1       0.005   3.869   0.113  0.00  0.00    +0.001 A 
ATOM     25  C   UNL     1      -0.597   3.325   1.258  0.00  0.00    +0.002 A 
ATOM     26  C   UNL     1      -0.787   1.995   1.402  0.00  0.00    +0.026 A 
ATOM     27  C   UNL     1      -0.351   1.089   0.328  0.00  0.00    +0.043 A 
ATOM     28  N   UNL     1      -0.409  -0.209   0.207  0.00  0.00    -0.377 N 
ATOM     29  H   UNL     1      -0.780  -0.820   0.862  0.00  0.00    +0.160 HD
ENDBRANCH  17  21
ENDBRANCH   1  17
BRANCH   1  30
ATOM     30  C   UNL     1       2.622  -1.268  -3.297  0.00  0.00    +0.103 C 
ATOM     31  N   UNL     1       3.400  -1.985  -2.881  0.00  0.00    -0.191 NA
ENDBRANCH   1  30
TORSDOF 7
