REMARK  Name = ZINC38571532
REMARK  4 active torsions:
REMARK  status: ('A' for Active; 'I' for Inactive)
REMARK    1  A    between atoms: C_1  and  C_2
REMARK    2  A    between atoms: C_2  and  C_3
REMARK    3  A    between atoms: C_2  and  C_4
REMARK    4  A    between atoms: C_7  and  C_10
REMARK                            x       y       z     vdW  Elec       q    Type
REMARK                         _______ _______ _______ _____ _____    ______ ____
ROOT
ATOM      1  C   UNL     1      -5.419  -2.005   0.043  0.00  0.00    +0.074 C 
ATOM      2  C   UNL     1      -6.161  -1.514  -1.208  0.00  0.00    +0.152 C 
ATOM      3  C   UNL     1      -5.716  -2.333  -2.394  0.00  0.00    +0.116 C 
ATOM      4  N   UNL     1      -5.180  -1.786  -3.445  0.00  0.00    -0.205 NA
ATOM      5  C   UNL     1      -4.975  -0.467  -3.539  0.00  0.00    +0.206 C 
ATOM      6  N   UNL     1      -5.301   0.363  -2.560  0.00  0.00    -0.147 NA
ATOM      7  C   UNL     1      -5.854  -0.063  -1.440  0.00  0.00    +0.250 C 
ATOM      8  O   UNL     1      -6.123   0.746  -0.573  0.00  0.00    -0.273 OA
ATOM      9  N   UNL     1      -4.413   0.038  -4.679  0.00  0.00    -0.329 N 
ATOM     10  N   UNL     1      -5.885  -3.696  -2.331  0.00  0.00    -0.301 N 
ATOM     11  C   UNL     1      -5.621  -4.267  -1.095  0.00  0.00    +0.048 C 
ATOM     12  C   UNL     1      -5.403  -3.516   0.029  0.00  0.00    +0.030 C 
ATOM     13  C   UNL     1      -5.167  -4.372   1.133  0.00  0.00    +0.192 C 
ATOM     14  O   UNL     1      -4.943  -4.025   2.276  0.00  0.00    -0.287 OA
ATOM     15  C   UNL     1      -5.243  -5.764   0.640  0.00  0.00    +0.031 A 
ATOM     16  C   UNL     1      -5.526  -5.689  -0.749  0.00  0.00    +0.007 A 
ATOM     17  C   UNL     1      -5.662  -6.838  -1.512  0.00  0.00    +0.010 A 
ATOM     18  C   UNL     1      -5.506  -8.060  -0.851  0.00  0.00    +0.001 A 
ATOM     19  C   UNL     1      -5.232  -8.130   0.494  0.00  0.00    +0.001 A 
ATOM     20  C   UNL     1      -5.092  -6.978   1.281  0.00  0.00    +0.012 A 
ATOM     21  H   UNL     1      -4.170  -0.557  -5.405  0.00  0.00    +0.145 HD
ATOM     22  H   UNL     1      -4.259   0.992  -4.762  0.00  0.00    +0.145 HD
ATOM     23  H   UNL     1      -6.168  -4.220  -3.096  0.00  0.00    +0.153 HD
ENDROOT
BRANCH   1  27
ATOM     24  C   UNL     1      -1.412  -0.526   0.013  0.00  0.00    -0.045 A 
ATOM     25  C   UNL     1      -2.259  -0.204   1.056  0.00  0.00    +0.004 A 
ATOM     26  C   UNL     1      -3.556  -0.683   1.066  0.00  0.00    +0.004 A 
ATOM     27  C   UNL     1      -4.006  -1.482   0.032  0.00  0.00    -0.039 A 
ATOM     28  C   UNL     1      -3.159  -1.803  -1.012  0.00  0.00    +0.004 A 
ATOM     29  C   UNL     1      -1.863  -1.321  -1.024  0.00  0.00    +0.004 A 
BRANCH  24  31
ATOM     30  C   UNL     1      -0.019   1.526   0.010  0.00  0.00    +0.012 C 
ATOM     31  C   UNL     1       0.002  -0.004   0.002  0.00  0.00    +0.013 C 
ATOM     32  C   UNL     1       0.742  -0.511   1.242  0.00  0.00    +0.012 C 
ENDBRANCH  24  31
ENDBRANCH   1  27
TORSDOF 2
