REMARK  Name = ZINC23353841
REMARK  8 active torsions:
REMARK  status: ('A' for Active; 'I' for Inactive)
REMARK    1  A    between atoms: C_1  and  C_2
REMARK    2  A    between atoms: C_2  and  C_3
REMARK    3  A    between atoms: C_3  and  N_4
REMARK    4  A    between atoms: C_7  and  C_9
REMARK    5  A    between atoms: C_18  and  N_22
REMARK    6  A    between atoms: N_22  and  C_23
REMARK    7  A    between atoms: C_23  and  C_24
REMARK    8  A    between atoms: C_24  and  N_30
REMARK                            x       y       z     vdW  Elec       q    Type
REMARK                         _______ _______ _______ _____ _____    ______ ____
ROOT
ATOM      1  N   UNL     1       0.630  -1.984  -1.041  0.00  0.00    -0.267 N 
ATOM      2  C   UNL     1       1.718  -2.718  -0.755  0.00  0.00    +0.043 A 
ATOM      3  C   UNL     1       1.436  -4.001  -1.091  0.00  0.00    +0.004 A 
ATOM      4  C   UNL     1       0.123  -3.989  -1.593  0.00  0.00    +0.151 A 
ATOM      5  N   UNL     1      -0.296  -2.737  -1.525  0.00  0.00    -0.166 NA
ATOM      6  C   UNL     1       2.385  -5.155  -0.927  0.00  0.00    +0.023 C 
ATOM      7  C   UNL     1       3.509  -4.724   0.024  0.00  0.00    -0.067 C 
ATOM      8  C   UNL     1       4.072  -3.374  -0.429  0.00  0.00    -0.009 C 
ATOM      9  C   UNL     1       3.036  -2.272  -0.176  0.00  0.00    +0.054 C 
ENDROOT
BRANCH   4  10
ATOM     10  C   UNL     1      -0.640  -5.150  -2.094  0.00  0.00    +0.267 C 
ATOM     11  O   UNL     1      -0.180  -6.270  -1.991  0.00  0.00    -0.268 OA
ATOM     12  N   UNL     1      -1.847  -4.966  -2.665  0.00  0.00    -0.296 N 
ATOM     13  C   UNL     1      -2.348  -3.613  -2.939  0.00  0.00    +0.108 C 
ATOM     14  C   UNL     1      -2.743  -3.523  -4.416  0.00  0.00    +0.019 C 
ATOM     15  C   UNL     1      -3.737  -4.639  -4.744  0.00  0.00    +0.003 C 
ATOM     16  C   UNL     1      -3.078  -5.999  -4.501  0.00  0.00    +0.019 C 
ATOM     17  C   UNL     1      -2.685  -6.117  -3.030  0.00  0.00    +0.108 C 
ENDBRANCH   4  10
BRANCH   7  18
ATOM     18  N   UNL     1       4.579  -5.730   0.007  0.00  0.00    +0.382 N 
ATOM     19  H   UNL     1       4.192  -6.636   0.226  0.00  0.00    -0.085 HD
ATOM     20  H   UNL     1       5.000  -5.758  -0.909  0.00  0.00    -0.085 HD
BRANCH  18  21
ATOM     21  C   UNL     1       5.598  -5.379   1.005  0.00  0.00    -0.060 C 
BRANCH  21  22
ATOM     22  C   UNL     1       6.712  -6.428   0.987  0.00  0.00    +0.007 C 
ATOM     23  C   UNL     1       7.774  -6.061   2.026  0.00  0.00    +0.020 C 
ATOM     24  C   UNL     1       7.135  -6.020   3.415  0.00  0.00    +0.002 C 
ATOM     25  C   UNL     1       6.548  -7.394   3.748  0.00  0.00    +0.000 C 
ATOM     26  C   UNL     1       5.486  -7.760   2.708  0.00  0.00    +0.002 C 
ATOM     27  C   UNL     1       6.125  -7.801   1.319  0.00  0.00    +0.020 C 
BRANCH  22  28
ATOM     28  N   UNL     1       7.326  -6.467  -0.347  0.00  0.00    -0.294 NA
ATOM     29  C   UNL     1       7.825  -5.140  -0.737  0.00  0.00    +0.113 C 
ATOM     30  C   UNL     1       8.401  -5.214  -2.154  0.00  0.00    +0.175 C 
ATOM     31  O   UNL     1       9.425  -6.212  -2.195  0.00  0.00    -0.377 OA
ATOM     32  C   UNL     1       8.974  -7.516  -1.822  0.00  0.00    +0.175 C 
ATOM     33  C   UNL     1       8.403  -7.466  -0.402  0.00  0.00    +0.113 C 
ENDBRANCH  22  28
ENDBRANCH  21  22
ENDBRANCH  18  21
ENDBRANCH   7  18
BRANCH   1  34
ATOM     34  C   UNL     1       0.512  -0.539  -0.828  0.00  0.00    +0.143 C 
BRANCH  34  36
ATOM     35  C   UNL     1      -0.155   1.235   0.801  0.00  0.00    +0.005 C 
ATOM     36  C   UNL     1      -0.031  -0.274   0.578  0.00  0.00    +0.020 C 
ENDBRANCH  34  36
ENDBRANCH   1  34
TORSDOF 7
