REMARK  Name = ZINC12123297
REMARK  6 active torsions:
REMARK  status: ('A' for Active; 'I' for Inactive)
REMARK    1  A    between atoms: C_1  and  C_2
REMARK    2  A    between atoms: C_6  and  C_10
REMARK    3  A    between atoms: C_10  and  N_11
REMARK    4  A    between atoms: C_12  and  C_14
REMARK    5  A    between atoms: C_14  and  N_55
REMARK    6  A    between atoms: C_23  and  C_26
REMARK                            x       y       z     vdW  Elec       q    Type
REMARK                         _______ _______ _______ _____ _____    ______ ____
ROOT
ATOM      1  C   UNL     1       9.066   2.346  -2.666  0.00  0.00    -0.038 C 
ATOM      2  C   UNL     1      10.421   2.272  -3.343  0.00  0.00    -0.022 A 
ATOM      3  C   UNL     1      10.668   1.305  -4.296  0.00  0.00    +0.005 A 
ATOM      4  C   UNL     1      11.914   1.235  -4.894  0.00  0.00    +0.000 A 
ATOM      5  C   UNL     1      12.906   2.129  -4.536  0.00  0.00    +0.004 A 
ATOM      6  C   UNL     1      12.656   3.102  -3.587  0.00  0.00    +0.046 A 
ATOM      7  C   UNL     1      11.403   3.179  -2.995  0.00  0.00    +0.123 A 
ATOM      8  O   UNL     1      11.130   4.164  -2.096  0.00  0.00    -0.486 OA
ATOM      9  C   UNL     1      10.216   5.170  -2.548  0.00  0.00    +0.190 C 
ATOM     10  C   UNL     1       8.784   4.739  -2.312  0.00  0.00    -0.027 C 
ATOM     11  N   UNL     1       8.389   3.577  -3.138  0.00  0.00    +0.391 N 
ATOM     12  H   UNL     1       8.667   3.753  -4.110  0.00  0.00    -0.080 HD
ENDROOT
BRANCH   9  13
ATOM     13  C   UNL     1      10.477   6.451  -1.799  0.00  0.00    +0.026 A 
ATOM     14  C   UNL     1      11.061   6.413  -0.547  0.00  0.00    +0.010 A 
ATOM     15  C   UNL     1      11.306   7.588   0.138  0.00  0.00    +0.001 A 
ATOM     16  C   UNL     1      10.958   8.803  -0.424  0.00  0.00    +0.003 A 
ATOM     17  C   UNL     1      10.370   8.843  -1.673  0.00  0.00    +0.039 A 
ATOM     18  C   UNL     1      10.129   7.667  -2.363  0.00  0.00    +0.130 A 
ATOM     19  F   UNL     1       9.553   7.705  -3.584  0.00  0.00    -0.205 F 
ENDBRANCH   9  13
BRANCH  11  20
ATOM     20  C   UNL     1       6.929   3.401  -3.084  0.00  0.00    +0.019 C 
BRANCH  20  22
ATOM     21  N   UNL     1       5.147   3.033  -1.407  0.00  0.00    -0.311 N 
ATOM     22  C   UNL     1       6.458   3.211  -1.665  0.00  0.00    +0.197 C 
ATOM     23  O   UNL     1       7.260   3.219  -0.754  0.00  0.00    -0.278 OA
ATOM     24  H   UNL     1       4.507   3.027  -2.136  0.00  0.00    +0.149 HD
BRANCH  21  25
ATOM     25  C   UNL     1       4.690   2.850  -0.028  0.00  0.00    +0.161 C 
BRANCH  25  31
ATOM     26  C   UNL     1      -2.576   1.150   0.021  0.00  0.00    +0.053 C 
ATOM     27  C   UNL     1      -1.180   1.718   0.017  0.00  0.00    +0.007 A 
ATOM     28  C   UNL     1      -0.013   1.076   0.008  0.00  0.00    +0.103 A 
ATOM     29  N   UNL     1       1.176   1.773   0.000  0.00  0.00    -0.300 N 
ATOM     30  C   UNL     1       2.541   1.499  -0.014  0.00  0.00    +0.118 A 
ATOM     31  C   UNL     1       3.194   2.673  -0.014  0.00  0.00    +0.078 A 
ATOM     32  N   UNL     1       2.287   3.662  -0.001  0.00  0.00    -0.225 NA
ATOM     33  C   UNL     1       1.094   3.140   0.008  0.00  0.00    +0.178 A 
ATOM     34  S   UNL     1      -0.660   3.427   0.026  0.00  0.00    -0.055 S 
ENDBRANCH  25  31
ENDBRANCH  21  25
ENDBRANCH  20  22
ENDBRANCH  11  20
TORSDOF 5
