REMARK  Name = ZINC06233700
REMARK  13 active torsions:
REMARK  status: ('A' for Active; 'I' for Inactive)
REMARK    1  A    between atoms: C_1  and  C_2
REMARK    2  A    between atoms: C_5  and  C_8
REMARK    3  A    between atoms: C_9  and  C_10
REMARK    4  A    between atoms: N_12  and  C_13
REMARK    5  A    between atoms: C_13  and  N_15
REMARK    6  A    between atoms: N_15  and  N_16
REMARK    7  A    between atoms: C_17  and  C_19
REMARK    8  A    between atoms: C_19  and  O_20
REMARK    9  A    between atoms: O_20  and  C_21
REMARK   10  A    between atoms: C_23  and  C_30
REMARK   11  A    between atoms: C_26  and  C_27
REMARK   12  A    between atoms: C_27  and  C_28
REMARK   13  A    between atoms: C_27  and  C_29
REMARK                            x       y       z     vdW  Elec       q    Type
REMARK                         _______ _______ _______ _____ _____    ______ ____
ROOT
ATOM      1  N   UNL     1      -0.966   1.736  -3.578  0.00  0.00    -0.245 N 
ATOM      2  H   UNL     1      -1.761   2.283  -3.479  0.00  0.00    +0.172 HD
ENDROOT
BRANCH   1   3
ATOM      3  N   UNL     1      -0.288   1.272  -2.443  0.00  0.00    -0.232 N 
ATOM      4  C   UNL     1      -0.742   1.585  -1.213  0.00  0.00    +0.267 C 
ATOM      5  O   UNL     1      -1.736   2.268  -1.088  0.00  0.00    -0.271 OA
ATOM      6  H   UNL     1       0.507   0.726  -2.543  0.00  0.00    +0.173 HD
BRANCH   4   7
ATOM      7  C   UNL     1      -0.013   1.086   0.008  0.00  0.00    +0.326 C 
BRANCH   7   8
ATOM      8  O   UNL     1      -0.682   1.547   1.184  0.00  0.00    -0.482 OA
BRANCH   8   9
ATOM      9  C   UNL     1      -0.149   1.182   2.380  0.00  0.00    +0.125 A 
ATOM     10  C   UNL     1       0.991   0.392   2.421  0.00  0.00    +0.049 A 
ATOM     11  C   UNL     1       1.534   0.027   3.637  0.00  0.00    -0.047 A 
ATOM     12  C   UNL     1       0.936   0.440   4.814  0.00  0.00    +0.004 A 
ATOM     13  C   UNL     1      -0.203   1.222   4.776  0.00  0.00    +0.008 A 
ATOM     14  C   UNL     1      -0.747   1.594   3.561  0.00  0.00    -0.003 A 
ATOM     15  C   UNL     1       2.775  -0.826   3.683  0.00  0.00    +0.044 C 
BRANCH  14  16
ATOM     16  C   UNL     1      -1.988   2.448   3.520  0.00  0.00    +0.016 C 
ATOM     17  C   UNL     1      -3.132   1.718   4.229  0.00  0.00    +0.012 C 
ATOM     18  C   UNL     1      -1.717   3.777   4.226  0.00  0.00    +0.012 C 
ENDBRANCH  14  16
ENDBRANCH   8   9
ENDBRANCH   7   8
ENDBRANCH   4   7
ENDBRANCH   1   3
BRANCH   1  19
ATOM     19  C   UNL     1      -0.513   1.424  -4.808  0.00  0.00    +0.153 C 
ATOM     20  S   UNL     1      -1.341   1.991  -6.195  0.00  0.00    -0.017 S 
BRANCH  19  23
ATOM     21  C   UNL     1       1.045   0.352  -6.177  0.00  0.00    +0.242 C 
ATOM     22  O   UNL     1       0.457   0.755  -7.162  0.00  0.00    -0.270 OA
ATOM     23  N   UNL     1       0.592   0.664  -4.947  0.00  0.00    -0.263 N 
ATOM     24  H   UNL     1       1.061   0.343  -4.161  0.00  0.00    +0.157 HD
BRANCH  21  26
ATOM     25  C   UNL     1       2.698  -0.785  -7.558  0.00  0.00    +0.013 C 
ATOM     26  C   UNL     1       2.245  -0.472  -6.327  0.00  0.00    +0.068 C 
BRANCH  25  31
ATOM     27  C   UNL     1       7.412  -4.023  -8.148  0.00  0.00    +0.044 C 
ATOM     28  C   UNL     1       6.176  -3.174  -7.993  0.00  0.00    -0.050 A 
ATOM     29  C   UNL     1       5.510  -2.718  -9.117  0.00  0.00    +0.004 A 
ATOM     30  C   UNL     1       4.378  -1.941  -8.984  0.00  0.00    +0.008 A 
ATOM     31  C   UNL     1       3.905  -1.614  -7.709  0.00  0.00    -0.025 A 
ATOM     32  C   UNL     1       4.587  -2.075  -6.579  0.00  0.00    +0.008 A 
ATOM     33  C   UNL     1       5.714  -2.855  -6.728  0.00  0.00    +0.004 A 
ENDBRANCH  25  31
ENDBRANCH  21  26
ENDBRANCH  19  23
ENDBRANCH   1  19
TORSDOF 9
