REMARK  Name = ZINC65912059
REMARK  5 active torsions:
REMARK  status: ('A' for Active; 'I' for Inactive)
REMARK    1  A    between atoms: C_2  and  C_3
REMARK    2  A    between atoms: C_3  and  N_4
REMARK    3  A    between atoms: N_4  and  C_5
REMARK    4  A    between atoms: C_11  and  C_13
REMARK    5  A    between atoms: C_15  and  C_19
REMARK                            x       y       z     vdW  Elec       q    Type
REMARK                         _______ _______ _______ _____ _____    ______ ____
ROOT
ATOM      1  N   UNL     1       1.421   1.851   0.009  0.00  0.00    -0.282 N 
ATOM      2  C   UNL     1       1.965   2.297   1.159  0.00  0.00    +0.266 C 
ATOM      3  O   UNL     1       3.012   2.915   1.137  0.00  0.00    -0.268 OA
ENDROOT
BRANCH   2   4
ATOM      4  C   UNL     1       1.291   2.038   2.440  0.00  0.00    +0.135 A 
ATOM      5  C   UNL     1       0.176   2.689   2.940  0.00  0.00    +0.071 A 
ATOM      6  C   UNL     1      -0.079   2.089   4.176  0.00  0.00    +0.081 A 
ATOM      7  N   UNL     1       0.825   1.163   4.367  0.00  0.00    -0.177 NA
ATOM      8  N   UNL     1       1.636   1.101   3.373  0.00  0.00    -0.271 N 
ATOM      9  H   UNL     1       2.381   0.484   3.298  0.00  0.00    +0.189 HD
ATOM     10 BR   UNL     1      -0.795   4.092   2.124  0.00  0.00    -0.046 Br
BRANCH   6  11
ATOM     11  C   UNL     1      -1.197   2.446   5.122  0.00  0.00    +0.041 C 
ATOM     12  C   UNL     1      -1.179   1.806   6.511  0.00  0.00    +0.010 C 
ATOM     13  C   UNL     1      -2.204   1.348   5.472  0.00  0.00    +0.010 C 
ENDBRANCH   6  11
ENDBRANCH   2   4
BRANCH   1  14
ATOM     14  C   UNL     1       2.143   2.016  -1.255  0.00  0.00    +0.077 C 
ATOM     15  C   UNL     1       1.303   2.859  -2.216  0.00  0.00    +0.022 C 
ATOM     16  C   UNL     1       2.057   3.032  -3.536  0.00  0.00    +0.002 C 
ATOM     17  C   UNL     1       2.318   1.658  -4.158  0.00  0.00    +0.000 C 
ATOM     18  C   UNL     1       3.158   0.815  -3.197  0.00  0.00    +0.002 C 
ATOM     19  C   UNL     1       2.404   0.642  -1.877  0.00  0.00    +0.022 C 
ENDBRANCH   1  14
BRANCH   1  20
ATOM     20  C   UNL     1       0.108   1.201   0.023  0.00  0.00    +0.197 C 
BRANCH  20  22
ATOM     21  C   UNL     1       0.401  -1.365   0.597  0.00  0.00    +0.005 C 
ATOM     22  C   UNL     1       0.271  -0.227   0.342  0.00  0.00    -0.086 C 
ENDBRANCH  20  22
ENDBRANCH   1  20
TORSDOF 5
