REMARK  Name = ZINC22609370
REMARK  7 active torsions:
REMARK  status: ('A' for Active; 'I' for Inactive)
REMARK    1  A    between atoms: C_1  and  C_2
REMARK    2  A    between atoms: C_5  and  N_9
REMARK    3  A    between atoms: C_13  and  N_17
REMARK    4  A    between atoms: C_22  and  O_29
REMARK    5  A    between atoms: C_23  and  O_27
REMARK    6  A    between atoms: O_27  and  C_28
REMARK    7  A    between atoms: O_29  and  C_30
REMARK                            x       y       z     vdW  Elec       q    Type
REMARK                         _______ _______ _______ _____ _____    ______ ____
ROOT
ATOM      1  N   UNL     1      -1.834   2.309   0.782  0.00  0.00    -0.212 N 
ATOM      2  C   UNL     1      -0.752   1.639   1.207  0.00  0.00    +0.225 C 
ATOM      3  O   UNL     1      -0.432   1.479   2.365  0.00  0.00    -0.275 OA
ATOM      4  C   UNL     1       0.004   1.111   0.007  0.00  0.00    +0.091 C 
ATOM      5  C   UNL     1      -0.831   1.599  -1.194  0.00  0.00    +0.029 C 
ATOM      6  C   UNL     1      -1.975   2.351  -0.549  0.00  0.00    +0.213 C 
ATOM      7  O   UNL     1      -2.876   2.902  -1.143  0.00  0.00    -0.277 OA
ENDROOT
BRANCH   5   8
ATOM      8  N   UNL     1      -0.038   2.496  -2.045  0.00  0.00    +0.391 N 
ATOM      9  C   UNL     1      -0.785   2.872  -3.255  0.00  0.00    -0.073 C 
ATOM     10  C   UNL     1      -0.086   4.067  -3.905  0.00  0.00    +0.017 C 
ATOM     11  C   UNL     1       1.386   3.780  -4.061  0.00  0.00    -0.044 A 
ATOM     12  C   UNL     1       2.122   4.567  -4.933  0.00  0.00    +0.053 A 
ATOM     13  C   UNL     1       3.477   4.343  -5.105  0.00  0.00    +0.162 A 
ATOM     14  C   UNL     1       4.101   3.321  -4.396  0.00  0.00    +0.162 A 
ATOM     15  C   UNL     1       3.361   2.538  -3.528  0.00  0.00    +0.051 A 
ATOM     16  C   UNL     1       2.003   2.766  -3.360  0.00  0.00    -0.057 A 
ATOM     17  C   UNL     1       1.241   1.879  -2.410  0.00  0.00    -0.042 C 
ATOM     18  H   UNL     1       0.172   3.407  -1.465  0.00  0.00    -0.080 HD
BRANCH  14  19
ATOM     19  O   UNL     1       5.432   3.093  -4.556  0.00  0.00    -0.491 OA
ATOM     20  C   UNL     1       6.004   2.027  -3.795  0.00  0.00    +0.277 C 
ENDBRANCH  14  19
BRANCH  13  21
ATOM     21  O   UNL     1       4.194   5.118  -5.962  0.00  0.00    -0.491 OA
ATOM     22  C   UNL     1       3.486   6.148  -6.654  0.00  0.00    +0.277 C 
ENDBRANCH  13  21
ENDBRANCH   5   8
BRANCH   1  27
ATOM     23  C   UNL     1      -5.505   4.780   4.338  0.00  0.00    +0.045 C 
ATOM     24  C   UNL     1      -4.531   4.124   3.393  0.00  0.00    -0.032 A 
ATOM     25  C   UNL     1      -3.742   4.901   2.566  0.00  0.00    +0.006 A 
ATOM     26  C   UNL     1      -2.844   4.303   1.704  0.00  0.00    +0.024 A 
ATOM     27  C   UNL     1      -2.742   2.919   1.660  0.00  0.00    +0.045 A 
ATOM     28  C   UNL     1      -3.535   2.140   2.491  0.00  0.00    +0.044 A 
ATOM     29  C   UNL     1      -4.428   2.744   3.356  0.00  0.00    +0.046 A 
ATOM     30 CL   UNL     1      -5.420   1.772   4.397  0.00  0.00    -0.083 Cl
ENDBRANCH   1  27
TORSDOF 4
