REMARK  Name = ZINC40744413
REMARK  12 active torsions:
REMARK  status: ('A' for Active; 'I' for Inactive)
REMARK    1  A    between atoms: C_1  and  C_2
REMARK    2  A    between atoms: C_2  and  O_3
REMARK    3  A    between atoms: O_3  and  C_4
REMARK    4  A    between atoms: C_8  and  C_20
REMARK    5  A    between atoms: C_9  and  O_10
REMARK    6  A    between atoms: O_10  and  C_11
REMARK    7  A    between atoms: C_11  and  C_12
REMARK    8  A    between atoms: C_20  and  N_21
REMARK    9  A    between atoms: N_21  and  C_22
REMARK   10  A    between atoms: C_22  and  C_23
REMARK   11  A    between atoms: C_23  and  N_24
REMARK   12  A    between atoms: C_25  and  C_27
REMARK                            x       y       z     vdW  Elec       q    Type
REMARK                         _______ _______ _______ _____ _____    ______ ____
ROOT
ATOM      1  C   UNL     1       0.861  -1.813   1.268  0.00  0.00    +0.162 A 
ATOM      2  C   UNL     1       0.279  -2.664   0.343  0.00  0.00    +0.049 A 
ATOM      3  C   UNL     1       0.339  -4.033   0.529  0.00  0.00    +0.004 A 
ATOM      4  C   UNL     1       0.978  -4.556   1.637  0.00  0.00    +0.005 A 
ATOM      5  C   UNL     1       1.561  -3.712   2.565  0.00  0.00    -0.019 A 
ATOM      6  C   UNL     1       1.510  -2.340   2.381  0.00  0.00    +0.164 A 
ENDROOT
BRANCH   1   7
ATOM      7  O   UNL     1       0.804  -0.467   1.087  0.00  0.00    -0.489 OA
BRANCH   7   9
ATOM      8  C   UNL     1       0.161   1.531  -0.111  0.00  0.00    +0.048 C 
ATOM      9  C   UNL     1       0.122   0.002  -0.078  0.00  0.00    +0.226 C 
ENDBRANCH   7   9
ENDBRANCH   1   7
BRANCH   6  10
ATOM     10  O   UNL     1       2.088  -1.509   3.289  0.00  0.00    -0.483 OA
BRANCH  10  11
ATOM     11  C   UNL     1       3.414  -1.058   3.005  0.00  0.00    +0.266 C 
BRANCH  11  12
ATOM     12  C   UNL     1       3.931  -0.252   4.168  0.00  0.00    +0.008 A 
ATOM     13  C   UNL     1       3.138  -0.062   5.284  0.00  0.00    +0.010 A 
ATOM     14  C   UNL     1       3.612   0.677   6.352  0.00  0.00    +0.020 A 
ATOM     15  C   UNL     1       4.881   1.226   6.304  0.00  0.00    +0.042 A 
ATOM     16  C   UNL     1       5.675   1.036   5.188  0.00  0.00    +0.040 A 
ATOM     17  C   UNL     1       5.202   0.292   4.122  0.00  0.00    +0.049 A 
ATOM     18 CL   UNL     1       6.201   0.047   2.723  0.00  0.00    -0.083 Cl
ATOM     19 CL   UNL     1       5.476   2.155   7.645  0.00  0.00    -0.083 Cl
ENDBRANCH  11  12
ENDBRANCH  10  11
ENDBRANCH   6  10
BRANCH   5  20
ATOM     20  C   UNL     1       2.257  -4.286   3.772  0.00  0.00    -0.043 C 
BRANCH  20  21
ATOM     21  N   UNL     1       1.388  -4.150   4.949  0.00  0.00    +0.383 N 
ATOM     22  H   UNL     1       1.251  -3.172   5.155  0.00  0.00    -0.085 HD
ATOM     23  H   UNL     1       0.496  -4.582   4.760  0.00  0.00    -0.085 HD
BRANCH  21  24
ATOM     24  C   UNL     1       2.017  -4.810   6.101  0.00  0.00    -0.063 C 
BRANCH  24  25
ATOM     25  C   UNL     1       1.111  -4.668   7.326  0.00  0.00    +0.085 C 
BRANCH  25  26
ATOM     26  N   UNL     1       1.739  -5.326   8.475  0.00  0.00    -0.312 N 
ATOM     27  C   UNL     1       1.118  -5.329   9.671  0.00  0.00    +0.269 C 
ATOM     28  O   UNL     1       0.038  -4.786   9.797  0.00  0.00    -0.268 OA
ATOM     29  H   UNL     1       2.600  -5.760   8.375  0.00  0.00    +0.149 HD
BRANCH  27  30
ATOM     30  C   UNL     1       1.752  -5.995  10.833  0.00  0.00    +0.209 A 
ATOM     31  C   UNL     1       1.192  -6.080  12.186  0.00  0.00    +0.192 A 
ATOM     32  N   UNL     1       2.032  -6.739  12.937  0.00  0.00    -0.033 NA
ATOM     33  O   UNL     1       3.142  -7.101  12.136  0.00  0.00    -0.240 OA
ATOM     34  N   UNL     1       2.905  -6.611  10.827  0.00  0.00    -0.042 NA
ATOM     35  N   UNL     1      -0.024  -5.552  12.597  0.00  0.00    -0.339 N 
ATOM     36  H   UNL     1      -0.585  -5.075  11.965  0.00  0.00    +0.144 HD
ATOM     37  H   UNL     1      -0.314  -5.659  13.517  0.00  0.00    +0.144 HD
ENDBRANCH  27  30
ENDBRANCH  25  26
ENDBRANCH  24  25
ENDBRANCH  21  24
ENDBRANCH  20  21
ENDBRANCH   5  20
TORSDOF 11
