REMARK  Name = ZINC35461113
REMARK  10 active torsions:
REMARK  status: ('A' for Active; 'I' for Inactive)
REMARK    1  A    between atoms: C_1  and  C_2
REMARK    2  A    between atoms: C_14  and  C_34
REMARK    3  A    between atoms: C_15  and  N_16
REMARK    4  A    between atoms: C_17  and  C_19
REMARK    5  A    between atoms: C_19  and  C_20
REMARK    6  A    between atoms: C_23  and  C_24
REMARK    7  A    between atoms: N_29  and  C_30
REMARK    8  A    between atoms: C_30  and  C_31
REMARK    9  A    between atoms: C_31  and  O_32
REMARK   10  A    between atoms: O_32  and  C_33
REMARK                            x       y       z     vdW  Elec       q    Type
REMARK                         _______ _______ _______ _____ _____    ______ ____
ROOT
ATOM      1  C   UNL     1      -2.808   4.008   0.375  0.00  0.00    +0.047 C 
ATOM      2  C   UNL     1      -3.641   2.760   0.231  0.00  0.00    -0.007 A 
ATOM      3  C   UNL     1      -4.236   2.468  -0.957  0.00  0.00    +0.008 A 
ATOM      4  C   UNL     1      -5.008   1.302  -1.079  0.00  0.00    +0.019 A 
ATOM      5  C   UNL     1      -5.159   0.476  -0.022  0.00  0.00    +0.096 A 
ATOM      6  N   UNL     1      -4.567   0.758   1.176  0.00  0.00    -0.267 N 
ATOM      7  C   UNL     1      -3.802   1.884   1.327  0.00  0.00    +0.145 A 
ATOM      8  N   UNL     1      -3.207   2.188   2.474  0.00  0.00    -0.211 NA
ATOM      9  C   UNL     1      -3.310   1.412   3.558  0.00  0.00    +0.150 A 
ATOM     10  C   UNL     1      -4.082   0.222   3.479  0.00  0.00    +0.084 A 
ATOM     11  C   UNL     1      -4.742  -0.096   2.212  0.00  0.00    +0.268 A 
ATOM     12  O   UNL     1      -5.416  -1.103   2.089  0.00  0.00    -0.267 OA
ATOM     13  C   UNL     1      -4.203  -0.600   4.597  0.00  0.00    +0.039 A 
ATOM     14  C   UNL     1      -3.548  -0.213   5.769  0.00  0.00    +0.091 A 
ATOM     15  C   UNL     1      -2.798   0.982   5.776  0.00  0.00    +0.124 A 
ATOM     16  N   UNL     1      -2.703   1.740   4.700  0.00  0.00    -0.310 N 
ENDROOT
BRANCH  15  17
ATOM     17  N   UNL     1      -2.147   1.368   6.937  0.00  0.00    -0.270 N 
ATOM     18  C   UNL     1      -1.438   0.466   7.643  0.00  0.00    +0.222 C 
ATOM     19  O   UNL     1      -1.327  -0.671   7.237  0.00  0.00    -0.275 OA
ATOM     20  H   UNL     1      -2.203   2.288   7.241  0.00  0.00    +0.156 HD
BRANCH  18  21
ATOM     21  C   UNL     1      -0.781   0.871   8.938  0.00  0.00    +0.127 C 
BRANCH  21  22
ATOM     22  C   UNL     1      -0.056  -0.313   9.525  0.00  0.00    +0.032 C 
ATOM     23  C   UNL     1      -0.322  -0.707  10.774  0.00  0.00    +0.163 C 
ATOM     24  C   UNL     1      -0.957   0.103  11.832  0.00  0.00    +0.166 C 
ATOM     25  C   UNL     1      -1.082   1.451  11.862  0.00  0.00    +0.049 C 
ATOM     26  O   UNL     1      -1.393  -0.784  12.776  0.00  0.00    -0.453 OA
ATOM     27  C   UNL     1      -0.498  -1.905  12.674  0.00  0.00    +0.466 C 
ATOM     28  O   UNL     1      -0.062  -1.937  11.307  0.00  0.00    -0.453 OA
BRANCH  25  29
ATOM     29  C   UNL     1      -0.248   2.282  10.993  0.00  0.00    -0.004 C 
ATOM     30  C   UNL     1      -0.455   3.598  10.931  0.00  0.00    +0.008 C 
ENDBRANCH  25  29
ENDBRANCH  21  22
ENDBRANCH  18  21
ENDBRANCH  15  17
BRANCH  14  31
ATOM     31  C   UNL     1      -3.638  -1.019   6.949  0.00  0.00    +0.103 C 
ATOM     32  N   UNL     1      -3.709  -1.659   7.885  0.00  0.00    -0.191 NA
ENDBRANCH  14  31
BRANCH  16  33
ATOM     33  C   UNL     1      -1.911   2.970   4.761  0.00  0.00    +0.153 C 
BRANCH  33  34
ATOM     34  C   UNL     1      -2.783   4.113   5.284  0.00  0.00    +0.181 C 
BRANCH  34  35
ATOM     35  O   UNL     1      -2.010   5.314   5.343  0.00  0.00    -0.381 OA
ATOM     36  C   UNL     1      -2.736   6.449   5.820  0.00  0.00    +0.194 C 
ENDBRANCH  34  35
ENDBRANCH  33  34
ENDBRANCH  16  33
TORSDOF 8
