REMARK  Name = ZINC06622385
REMARK  3 active torsions:
REMARK  status: ('A' for Active; 'I' for Inactive)
REMARK    1  A    between atoms: C_1  and  N_2
REMARK    2  A    between atoms: N_10  and  C_26
REMARK    3  A    between atoms: N_14  and  N_15
REMARK                            x       y       z     vdW  Elec       q    Type
REMARK                         _______ _______ _______ _____ _____    ______ ____
ROOT
ATOM      1  C   UNL     1       0.159   1.447  -0.000  0.00  0.00    +0.152 C 
ATOM      2  N   UNL     1      -0.103   0.005   0.009  0.00  0.00    -0.308 N 
ATOM      3  C   UNL     1      -0.369  -0.793  -1.092  0.00  0.00    +0.152 A 
ATOM      4  C   UNL     1      -0.480  -0.559  -2.476  0.00  0.00    +0.280 A 
ATOM      5  O   UNL     1      -0.324   0.563  -2.925  0.00  0.00    -0.265 OA
ATOM      6  N   UNL     1      -0.759  -1.590  -3.299  0.00  0.00    -0.273 N 
ATOM      7  H   UNL     1      -0.835  -1.433  -4.253  0.00  0.00    +0.173 HD
ATOM      8  C   UNL     1      -0.933  -2.833  -2.818  0.00  0.00    +0.331 A 
ATOM      9  O   UNL     1      -1.183  -3.739  -3.590  0.00  0.00    -0.246 OA
ATOM     10  N   UNL     1      -0.836  -3.101  -1.502  0.00  0.00    -0.280 N 
ATOM     11  C   UNL     1      -0.551  -2.083  -0.605  0.00  0.00    +0.170 A 
ATOM     12  N   UNL     1      -0.397  -2.039   0.719  0.00  0.00    -0.195 NA
ATOM     13  C   UNL     1      -0.125  -0.808   1.098  0.00  0.00    +0.218 A 
ATOM     14  N   UNL     1       0.099  -0.405   2.398  0.00  0.00    -0.206 N 
ATOM     15  C   UNL     1      -1.032  -4.470  -1.017  0.00  0.00    +0.155 C 
ATOM     16  H   UNL     1       0.291   0.526   2.592  0.00  0.00    +0.177 HD
ENDROOT
BRANCH  14  17
ATOM     17  N   UNL     1       0.052  -1.266   3.357  0.00  0.00    -0.174 NA
ATOM     18  C   UNL     1       0.159  -0.868   4.604  0.00  0.00    +0.153 C 
ATOM     19  C   UNL     1       0.156   0.525   5.109  0.00  0.00    +0.028 A 
ATOM     20  C   UNL     1       0.050   1.764   4.485  0.00  0.00    +0.012 A 
ATOM     21  C   UNL     1       0.081   2.917   5.244  0.00  0.00    +0.001 A 
ATOM     22  C   UNL     1       0.217   2.839   6.620  0.00  0.00    +0.002 A 
ATOM     23  C   UNL     1       0.324   1.614   7.247  0.00  0.00    +0.024 A 
ATOM     24  C   UNL     1       0.293   0.442   6.500  0.00  0.00    +0.043 A 
ATOM     25  N   UNL     1       0.379  -0.895   6.873  0.00  0.00    -0.280 N 
ATOM     26  C   UNL     1       0.300  -1.708   5.807  0.00  0.00    +0.269 C 
ATOM     27  O   UNL     1       0.341  -2.925   5.829  0.00  0.00    -0.268 OA
ATOM     28  H   UNL     1       0.479  -1.201   7.788  0.00  0.00    +0.155 HD
ENDBRANCH  14  17
TORSDOF 1
