REMARK  Name = ZINC20954653
REMARK  11 active torsions:
REMARK  status: ('A' for Active; 'I' for Inactive)
REMARK    1  A    between atoms: C_1  and  C_2
REMARK    2  A    between atoms: C_3  and  C_33
REMARK    3  A    between atoms: C_4  and  C_32
REMARK    4  A    between atoms: C_5  and  S_10
REMARK    5  A    between atoms: C_6  and  C_9
REMARK    6  A    between atoms: C_7  and  C_8
REMARK    7  A    between atoms: S_10  and  N_13
REMARK    8  A    between atoms: N_13  and  C_14
REMARK    9  A    between atoms: C_14  and  C_15
REMARK   10  A    between atoms: C_15  and  C_17
REMARK   11  A    between atoms: C_15  and  N_22
REMARK                            x       y       z     vdW  Elec       q    Type
REMARK                         _______ _______ _______ _____ _____    ______ ____
ROOT
ATOM      1  C   UNL     1       1.595   5.133  -0.138  0.00  0.00    +0.129 C 
ENDROOT
BRANCH   1   2
ATOM      2  N   UNL     1       2.321   3.981   0.403  0.00  0.00    -0.188 NA
ATOM      3  H   UNL     1       3.070   3.464  -0.215  0.00  0.00    +0.148 HD
BRANCH   2   4
ATOM      4  S   UNL     1       1.846   3.302   1.837  0.00  0.00    +0.059 S 
ATOM      5  O   UNL     1       1.697   4.370   2.762  0.00  0.00    -0.153 OA
ATOM      6  O   UNL     1       2.717   2.204   2.074  0.00  0.00    -0.153 OA
BRANCH   4  11
ATOM      7  C   UNL     1      -3.658   0.980   0.987  0.00  0.00    +0.044 C 
ATOM      8  C   UNL     1      -2.283   1.561   1.196  0.00  0.00    -0.044 A 
ATOM      9  C   UNL     1      -2.143   2.850   1.676  0.00  0.00    -0.043 A 
ATOM     10  C   UNL     1      -0.882   3.381   1.873  0.00  0.00    -0.021 A 
ATOM     11  C   UNL     1       0.239   2.625   1.586  0.00  0.00    +0.112 A 
ATOM     12  C   UNL     1       0.099   1.338   1.101  0.00  0.00    -0.021 A 
ATOM     13  C   UNL     1      -1.162   0.806   0.904  0.00  0.00    -0.043 A 
ATOM     14  C   UNL     1      -1.314  -0.597   0.376  0.00  0.00    +0.044 C 
ATOM     15  C   UNL     1       1.321   0.514   0.787  0.00  0.00    +0.046 C 
ATOM     16  C   UNL     1      -0.730   4.784   2.402  0.00  0.00    +0.046 C 
ATOM     17  C   UNL     1      -3.365   3.674   1.990  0.00  0.00    +0.044 C 
ENDBRANCH   4  11
ENDBRANCH   2   4
ENDBRANCH   1   2
BRANCH   1  18
ATOM     18  C   UNL     1       2.431   5.792  -1.238  0.00  0.00    +0.103 C 
BRANCH  18  19
ATOM     19  N   UNL     1       2.779   4.790  -2.254  0.00  0.00    -0.290 NA
ATOM     20  C   UNL     1       3.611   5.381  -3.314  0.00  0.00    +0.090 C 
ATOM     21  C   UNL     1       4.240   4.248  -4.125  0.00  0.00    +0.051 C 
ATOM     22  C   UNL     1       3.178   3.265  -4.546  0.00  0.00    -0.042 A 
ATOM     23  C   UNL     1       3.469   2.375  -5.568  0.00  0.00    +0.004 A 
ATOM     24  C   UNL     1       2.525   1.456  -5.981  0.00  0.00    +0.000 A 
ATOM     25  C   UNL     1       1.284   1.422  -5.372  0.00  0.00    +0.000 A 
ATOM     26  C   UNL     1       0.994   2.309  -4.355  0.00  0.00    +0.005 A 
ATOM     27  C   UNL     1       1.940   3.235  -3.940  0.00  0.00    -0.030 A 
ATOM     28  C   UNL     1       1.574   4.187  -2.832  0.00  0.00    +0.120 C 
ENDBRANCH  18  19
BRANCH  18  29
ATOM     29  C   UNL     1       1.635   6.900  -1.877  0.00  0.00    -0.022 A 
ATOM     30  C   UNL     1       2.274   8.005  -2.410  0.00  0.00    +0.013 A 
ATOM     31  C   UNL     1       1.529   8.981  -2.983  0.00  0.00    +0.045 A 
ATOM     32  S   UNL     1      -0.130   8.357  -2.766  0.00  0.00    -0.105 S 
ATOM     33  C   UNL     1       0.283   6.832  -1.933  0.00  0.00    +0.050 A 
ENDBRANCH  18  29
ENDBRANCH   1  18
TORSDOF 6
