REMARK  Name = ZINC39664758
REMARK  9 active torsions:
REMARK  status: ('A' for Active; 'I' for Inactive)
REMARK    1  A    between atoms: C_1  and  N_2
REMARK    2  A    between atoms: C_6  and  C_7
REMARK    3  A    between atoms: C_11  and  C_20
REMARK    4  A    between atoms: N_22  and  C_23
REMARK    5  A    between atoms: C_23  and  C_25
REMARK    6  A    between atoms: C_23  and  C_29
REMARK    7  A    between atoms: C_25  and  N_26
REMARK    8  A    between atoms: N_26  and  C_27
REMARK    9  A    between atoms: N_26  and  C_28
REMARK                            x       y       z     vdW  Elec       q    Type
REMARK                         _______ _______ _______ _____ _____    ______ ____
ROOT
ATOM      1  C   UNL     1      -0.406  -0.410   3.399  0.00  0.00    +0.263 C 
ATOM      2  O   UNL     1      -0.435  -1.083   4.413  0.00  0.00    -0.268 OA
ATOM      3  N   UNL     1      -0.580   0.924   3.472  0.00  0.00    -0.295 N 
ATOM      4  C   UNL     1      -0.712   1.885   2.351  0.00  0.00    +0.121 C 
ATOM      5  C   UNL     1      -1.795   2.883   2.818  0.00  0.00    +0.100 C 
ATOM      6  C   UNL     1      -1.770   2.800   4.354  0.00  0.00    -0.004 C 
ATOM      7  C   UNL     1      -0.690   1.762   4.690  0.00  0.00    +0.115 C 
ATOM      8  C   UNL     1      -3.124   2.332   4.879  0.00  0.00    -0.010 C 
ATOM      9  C   UNL     1      -3.092   2.312   6.410  0.00  0.00    -0.082 C 
ATOM     10  N   UNL     1      -2.787   3.657   6.913  0.00  0.00    +0.379 N 
ATOM     11  C   UNL     1      -1.444   4.061   6.479  0.00  0.00    -0.082 C 
ATOM     12  C   UNL     1      -1.406   4.155   4.951  0.00  0.00    -0.010 C 
ATOM     13  H   UNL     1      -3.466   4.311   6.554  0.00  0.00    -0.086 HD
ATOM     14  H   UNL     1      -2.826   3.654   7.921  0.00  0.00    -0.086 HD
ENDROOT
BRANCH   1  20
ATOM     15  C   UNL     1      -0.288  -3.459   2.863  0.00  0.00    +0.149 C 
ATOM     16  N   UNL     1      -0.130  -2.405   1.858  0.00  0.00    -0.346 N 
ATOM     17  C   UNL     1       0.088  -2.602   0.535  0.00  0.00    +0.086 A 
ATOM     18  C   UNL     1       0.181  -1.397  -0.078  0.00  0.00    +0.020 A 
ATOM     19  C   UNL     1       0.015  -0.407   0.896  0.00  0.00    +0.032 A 
ATOM     20  C   UNL     1      -0.183  -1.051   2.099  0.00  0.00    +0.104 A 
ENDBRANCH   1  20
BRANCH   5  21
ATOM     21  C   UNL     1      -3.146   2.476   2.290  0.00  0.00    +0.219 C 
ATOM     22  O   UNL     1      -3.366   1.315   2.018  0.00  0.00    -0.275 OA
ATOM     23  N   UNL     1      -4.110   3.403   2.120  0.00  0.00    -0.310 N 
ATOM     24  H   UNL     1      -3.912   4.341   2.264  0.00  0.00    +0.149 HD
BRANCH  23  25
ATOM     25  C   UNL     1      -5.458   2.993   1.718  0.00  0.00    +0.087 C 
BRANCH  25  26
ATOM     26  C   UNL     1      -6.469   3.938   2.313  0.00  0.00    -0.029 A 
ATOM     27  C   UNL     1      -6.208   5.295   2.352  0.00  0.00    +0.005 A 
ATOM     28  C   UNL     1      -7.136   6.162   2.898  0.00  0.00    +0.000 A 
ATOM     29  C   UNL     1      -8.325   5.672   3.405  0.00  0.00    +0.000 A 
ATOM     30  C   UNL     1      -8.587   4.315   3.365  0.00  0.00    +0.000 A 
ATOM     31  C   UNL     1      -7.661   3.449   2.815  0.00  0.00    +0.005 A 
ENDBRANCH  25  26
BRANCH  25  32
ATOM     32  C   UNL     1      -5.566   3.024   0.192  0.00  0.00    -0.052 C 
BRANCH  32  33
ATOM     33  N   UNL     1      -4.615   2.065  -0.387  0.00  0.00    +0.377 N 
ATOM     34  C   UNL     1      -5.034   0.698  -0.051  0.00  0.00    -0.097 C 
ATOM     35  C   UNL     1      -4.587   2.225  -1.847  0.00  0.00    -0.097 C 
ATOM     36  H   UNL     1      -3.695   2.237  -0.011  0.00  0.00    -0.083 HD
ENDBRANCH  32  33
ENDBRANCH  25  32
ENDBRANCH  23  25
ENDBRANCH   5  21
TORSDOF 6
