REMARK  Name = ZINC08749202
REMARK  7 active torsions:
REMARK  status: ('A' for Active; 'I' for Inactive)
REMARK    1  A    between atoms: C_3  and  C_6
REMARK    2  A    between atoms: C_6  and  C_8
REMARK    3  A    between atoms: C_6  and  N_62
REMARK    4  A    between atoms: C_8  and  N_9
REMARK    5  A    between atoms: C_10  and  C_12
REMARK    6  A    between atoms: N_17  and  S_19
REMARK    7  A    between atoms: S_19  and  C_22
REMARK                            x       y       z     vdW  Elec       q    Type
REMARK                         _______ _______ _______ _____ _____    ______ ____
ROOT
ATOM      1  N   UNL     1      -2.261  -3.657   4.623  0.00  0.00    -0.316 N 
ATOM      2  C   UNL     1      -1.805  -2.452   4.229  0.00  0.00    +0.217 C 
ATOM      3  O   UNL     1      -2.483  -1.461   4.401  0.00  0.00    -0.275 OA
ATOM      4  H   UNL     1      -1.719  -4.450   4.486  0.00  0.00    +0.149 HD
ENDROOT
BRANCH   2   5
ATOM      5  C   UNL     1      -0.453  -2.336   3.574  0.00  0.00    +0.091 C 
ATOM      6  C   UNL     1       0.626  -2.839   4.536  0.00  0.00    +0.015 C 
ATOM      7  C   UNL     1       1.996  -2.752   3.859  0.00  0.00    +0.018 C 
ATOM      8  C   UNL     1       2.298  -1.295   3.512  0.00  0.00    +0.109 C 
ATOM      9  N   UNL     1       1.193  -0.755   2.708  0.00  0.00    -0.176 NA
ATOM     10  C   UNL     1      -0.178  -0.870   3.226  0.00  0.00    +0.122 C 
BRANCH   9  11
ATOM     11  S   UNL     1       1.486  -0.038   1.245  0.00  0.00    +0.061 S 
ATOM     12  O   UNL     1       0.284  -0.143   0.494  0.00  0.00    -0.153 OA
ATOM     13  O   UNL     1       2.723  -0.557   0.778  0.00  0.00    -0.153 OA
BRANCH  11  14
ATOM     14  C   UNL     1       1.742   1.679   1.548  0.00  0.00    +0.106 A 
ATOM     15  C   UNL     1       0.670   2.551   1.524  0.00  0.00    +0.031 A 
ATOM     16  C   UNL     1       0.869   3.897   1.767  0.00  0.00    +0.040 A 
ATOM     17  C   UNL     1       2.143   4.373   2.023  0.00  0.00    +0.124 A 
ATOM     18  C   UNL     1       3.217   3.499   2.041  0.00  0.00    +0.040 A 
ATOM     19  C   UNL     1       3.015   2.152   1.804  0.00  0.00    +0.031 A 
ATOM     20  F   UNL     1       2.340   5.690   2.254  0.00  0.00    -0.205 F 
ENDBRANCH  11  14
ENDBRANCH   9  11
ENDBRANCH   2   5
BRANCH   1  21
ATOM     21  C   UNL     1      -3.576  -3.770   5.260  0.00  0.00    +0.096 C 
BRANCH  21  22
ATOM     22  C   UNL     1      -3.800  -5.214   5.714  0.00  0.00    +0.016 C 
BRANCH  22  28
ATOM     23  C   UNL     1      -4.529  -5.799   3.480  0.00  0.00    -0.078 C 
ATOM     24  C   UNL     1      -4.199  -6.664   2.262  0.00  0.00    -0.019 C 
ATOM     25  C   UNL     1      -4.325  -8.142   2.642  0.00  0.00    -0.004 C 
ATOM     26  C   UNL     1      -3.388  -8.440   3.816  0.00  0.00    -0.019 C 
ATOM     27  C   UNL     1      -3.740  -7.523   4.989  0.00  0.00    -0.078 C 
ATOM     28  N   UNL     1      -3.576  -6.116   4.565  0.00  0.00    +0.387 N 
ATOM     29  H   UNL     1      -2.619  -5.982   4.218  0.00  0.00    -0.081 HD
ENDBRANCH  22  28
BRANCH  22  32
ATOM     30  C   UNL     1      -1.882  -5.943   8.775  0.00  0.00    +0.041 A 
ATOM     31  C   UNL     1      -3.079  -5.564   8.124  0.00  0.00    +0.043 A 
ATOM     32  C   UNL     1      -2.818  -5.557   6.804  0.00  0.00    +0.093 A 
ATOM     33  O   UNL     1      -1.533  -5.902   6.623  0.00  0.00    -0.469 OA
ATOM     34  C   UNL     1      -0.960  -6.137   7.815  0.00  0.00    +0.195 A 
ENDBRANCH  22  32
ENDBRANCH  21  22
ENDBRANCH   1  21
TORSDOF 7
