REMARK  Name = ZINC04729384
REMARK  8 active torsions:
REMARK  status: ('A' for Active; 'I' for Inactive)
REMARK    1  A    between atoms: C_1  and  O_2
REMARK    2  A    between atoms: O_2  and  C_3
REMARK    3  A    between atoms: C_6  and  C_11
REMARK    4  A    between atoms: C_8  and  O_9
REMARK    5  A    between atoms: O_9  and  C_10
REMARK    6  A    between atoms: C_13  and  C_25
REMARK    7  A    between atoms: C_15  and  C_18
REMARK    8  A    between atoms: C_23  and  O_24
REMARK                            x       y       z     vdW  Elec       q    Type
REMARK                         _______ _______ _______ _____ _____    ______ ____
ROOT
ATOM      1  C   UNL     1       1.244  -2.160  -0.022  0.00  0.00    +0.040 C 
ATOM      2  N   UNL     1       2.378  -2.753  -0.036  0.00  0.00    -0.299 NA
ATOM      3  C   UNL     1       2.545  -4.202  -0.035  0.00  0.00    +0.081 C 
ATOM      4  C   UNL     1       0.172  -4.361   0.367  0.00  0.00    -0.028 C 
ATOM      5  C   UNL     1      -0.067  -2.896  -0.008  0.00  0.00    +0.044 C 
ATOM      6  N   UNL     1       1.298  -4.870  -0.439  0.00  0.00    +0.401 N 
ATOM      7  H   UNL     1       1.392  -5.882  -0.293  0.00  0.00    -0.081 HD
ATOM      8  H   UNL     1       1.118  -4.683  -1.432  0.00  0.00    -0.081 HD
ENDROOT
BRANCH   3   9
ATOM      9  C   UNL     1       3.640  -4.576  -1.000  0.00  0.00    -0.040 A 
ATOM     10  C   UNL     1       3.603  -5.798  -1.645  0.00  0.00    +0.005 A 
ATOM     11  C   UNL     1       4.604  -6.140  -2.535  0.00  0.00    +0.020 A 
ATOM     12  C   UNL     1       5.649  -5.264  -2.771  0.00  0.00    +0.041 A 
ATOM     13  C   UNL     1       5.688  -4.044  -2.120  0.00  0.00    +0.020 A 
ATOM     14  C   UNL     1       4.683  -3.701  -1.235  0.00  0.00    +0.005 A 
ATOM     15 CL   UNL     1       6.911  -5.696  -3.882  0.00  0.00    -0.084 Cl
ENDBRANCH   3   9
BRANCH   1  19
ATOM     16  C   UNL     1       1.174   2.087   0.002  0.00  0.00    +0.162 A 
ATOM     17  C   UNL     1      -0.017   1.374   0.010  0.00  0.00    +0.050 A 
ATOM     18  C   UNL     1       0.002  -0.004   0.002  0.00  0.00    +0.013 A 
ATOM     19  C   UNL     1       1.222  -0.686  -0.013  0.00  0.00    -0.001 A 
ATOM     20  C   UNL     1       2.420   0.032  -0.021  0.00  0.00    +0.059 A 
ATOM     21  C   UNL     1       2.394   1.414  -0.013  0.00  0.00    +0.162 A 
BRANCH  16  23
ATOM     22  C   UNL     1      -0.134   4.072   0.024  0.00  0.00    +0.277 C 
ATOM     23  O   UNL     1       1.150   3.446   0.009  0.00  0.00    -0.491 OA
ENDBRANCH  16  23
BRANCH  21  24
ATOM     24  O   UNL     1       3.558   2.116  -0.021  0.00  0.00    -0.491 OA
ATOM     25  C   UNL     1       4.771   1.361  -0.036  0.00  0.00    +0.277 C 
ENDBRANCH  21  24
ENDBRANCH   1  19
BRANCH   4  26
ATOM     26  C   UNL     1      -1.065  -5.171   0.074  0.00  0.00    -0.019 A 
ATOM     27  C   UNL     1      -1.150  -5.906  -1.092  0.00  0.00    +0.005 A 
ATOM     28  C   UNL     1      -2.282  -6.654  -1.359  0.00  0.00    +0.000 A 
ATOM     29  C   UNL     1      -3.336  -6.660  -0.464  0.00  0.00    +0.004 A 
ATOM     30  C   UNL     1      -3.258  -5.922   0.701  0.00  0.00    +0.045 A 
ATOM     31  C   UNL     1      -2.121  -5.176   0.974  0.00  0.00    +0.118 A 
BRANCH  31  32
ATOM     32  O   UNL     1      -2.042  -4.449   2.119  0.00  0.00    -0.507 OA
ATOM     33  H   UNL     1      -2.376  -3.545   2.036  0.00  0.00    +0.292 HD
ENDBRANCH  31  32
ENDBRANCH   4  26
TORSDOF 6
