REMARK  Name = ZINC36854192
REMARK  6 active torsions:
REMARK  status: ('A' for Active; 'I' for Inactive)
REMARK    1  A    between atoms: C_1  and  C_2
REMARK    2  A    between atoms: C_2  and  C_3
REMARK    3  A    between atoms: C_3  and  C_5
REMARK    4  A    between atoms: C_3  and  N_6
REMARK    5  A    between atoms: C_10  and  N_14
REMARK    6  A    between atoms: N_14  and  C_15
REMARK                            x       y       z     vdW  Elec       q    Type
REMARK                         _______ _______ _______ _____ _____    ______ ____
ROOT
ATOM      1  N   UNL     1      -2.082  -0.162   1.273  0.00  0.00    -0.238 N 
ATOM      2  C   UNL     1      -1.617  -0.547   2.468  0.00  0.00    +0.224 C 
ATOM      3  O   UNL     1      -0.633  -1.230   2.652  0.00  0.00    -0.275 OA
ATOM      4  C   UNL     1      -2.515   0.006   3.553  0.00  0.00    +0.128 C 
ATOM      5  C   UNL     1      -3.591   0.785   2.770  0.00  0.00    +0.166 C 
ATOM      6  C   UNL     1      -3.184   0.596   1.325  0.00  0.00    +0.243 C 
ATOM      7  O   UNL     1      -3.765   1.056   0.365  0.00  0.00    -0.273 OA
ENDROOT
BRANCH   1   8
ATOM      8  C   UNL     1      -1.433  -0.534   0.013  0.00  0.00    +0.081 C 
ATOM      9  C   UNL     1      -1.416  -2.058  -0.121  0.00  0.00    +0.028 C 
BRANCH   8  11
ATOM     10  C   UNL     1      -0.019   1.526   0.010  0.00  0.00    +0.006 C 
ATOM     11  C   UNL     1       0.002  -0.004   0.002  0.00  0.00    +0.019 C 
ENDBRANCH   8  11
ENDBRANCH   1   8
BRANCH   5  12
ATOM     12  N   UNL     1      -3.563   2.205   3.130  0.00  0.00    -0.332 N 
ATOM     13  H   UNL     1      -2.747   2.603   3.473  0.00  0.00    +0.147 HD
BRANCH  12  14
ATOM     14  C   UNL     1      -4.713   2.988   2.979  0.00  0.00    +0.042 A 
ATOM     15  C   UNL     1      -5.882   2.418   2.494  0.00  0.00    +0.027 A 
ATOM     16  C   UNL     1      -7.017   3.193   2.347  0.00  0.00    +0.040 A 
ATOM     17  C   UNL     1      -6.988   4.536   2.683  0.00  0.00    +0.125 A 
ATOM     18  C   UNL     1      -5.823   5.106   3.167  0.00  0.00    +0.055 A 
ATOM     19  C   UNL     1      -4.687   4.334   3.321  0.00  0.00    +0.041 A 
ATOM     20 BR   UNL     1      -3.098   5.112   3.989  0.00  0.00    -0.048 Br
ATOM     21  F   UNL     1      -8.099   5.291   2.537  0.00  0.00    -0.205 F 
ENDBRANCH  12  14
ENDBRANCH   5  12
TORSDOF 4
