REMARK  Name = ZINC08911985
REMARK  6 active torsions:
REMARK  status: ('A' for Active; 'I' for Inactive)
REMARK    1  A    between atoms: C_5  and  N_8
REMARK    2  A    between atoms: C_9  and  C_11
REMARK    3  A    between atoms: N_16  and  S_18
REMARK    4  A    between atoms: S_18  and  N_21
REMARK    5  A    between atoms: C_25  and  C_28
REMARK    6  A    between atoms: N_30  and  C_31
REMARK                            x       y       z     vdW  Elec       q    Type
REMARK                         _______ _______ _______ _____ _____    ______ ____
ROOT
ATOM      1  S   UNL     1       5.494  -5.914  -4.563  0.00  0.00    +0.100 S 
ATOM      2  O   UNL     1       6.197  -5.783  -3.335  0.00  0.00    -0.141 OA
ATOM      3  O   UNL     1       5.340  -7.163  -5.223  0.00  0.00    -0.141 OA
ENDROOT
BRANCH   1   8
ATOM      4  C   UNL     1       3.005  -3.138  -3.812  0.00  0.00    +0.091 C 
ATOM      5  C   UNL     1       1.749  -3.592  -4.560  0.00  0.00    +0.015 C 
ATOM      6  C   UNL     1       2.145  -4.522  -5.709  0.00  0.00    +0.018 C 
ATOM      7  C   UNL     1       2.843  -5.761  -5.139  0.00  0.00    +0.110 C 
ATOM      8  N   UNL     1       3.968  -5.327  -4.300  0.00  0.00    -0.166 NA
ATOM      9  C   UNL     1       3.713  -4.361  -3.222  0.00  0.00    +0.123 C 
BRANCH   4  11
ATOM     10  N   UNL     1       1.976  -1.046  -2.987  0.00  0.00    -0.312 N 
ATOM     11  C   UNL     1       2.617  -2.197  -2.702  0.00  0.00    +0.218 C 
ATOM     12  O   UNL     1       2.881  -2.474  -1.551  0.00  0.00    -0.275 OA
ATOM     13  H   UNL     1       1.764  -0.824  -3.907  0.00  0.00    +0.149 HD
BRANCH  10  18
ATOM     14  C   UNL     1      -0.019   1.538   0.011  0.00  0.00    +0.000 C 
ATOM     15  C   UNL     1       1.401   2.036  -0.000  0.00  0.00    +0.000 C 
ATOM     16  C   UNL     1       1.910   2.335  -1.423  0.00  0.00    +0.002 C 
ATOM     17  C   UNL     1       1.480   1.268  -2.449  0.00  0.00    +0.022 C 
ATOM     18  C   UNL     1       1.598  -0.131  -1.907  0.00  0.00    +0.073 C 
ATOM     19  C   UNL     1       0.231  -0.548  -1.328  0.00  0.00    +0.022 C 
ATOM     20  C   UNL     1       0.002  -0.004   0.002  0.00  0.00    +0.002 C 
ENDBRANCH  10  18
ENDBRANCH   4  11
ENDBRANCH   1   8
BRANCH   1  21
ATOM     21  N   UNL     1       6.231  -4.896  -5.641  0.00  0.00    -0.166 NA
ATOM     22  C   UNL     1       6.125  -5.132  -7.087  0.00  0.00    +0.110 C 
ATOM     23  C   UNL     1       5.608  -3.856  -7.758  0.00  0.00    +0.018 C 
ATOM     24  C   UNL     1       6.513  -2.682  -7.378  0.00  0.00    +0.015 C 
ATOM     25  C   UNL     1       6.478  -2.478  -5.862  0.00  0.00    +0.091 C 
ATOM     26  C   UNL     1       6.999  -3.735  -5.169  0.00  0.00    +0.123 C 
BRANCH  25  27
ATOM     27  C   UNL     1       7.343  -1.301  -5.492  0.00  0.00    +0.218 C 
ATOM     28  O   UNL     1       8.287  -1.454  -4.745  0.00  0.00    -0.275 OA
ATOM     29  N   UNL     1       7.069  -0.080  -5.991  0.00  0.00    -0.312 N 
ATOM     30  H   UNL     1       6.314   0.042  -6.588  0.00  0.00    +0.149 HD
BRANCH  29  31
ATOM     31  C   UNL     1       7.910   1.064  -5.631  0.00  0.00    +0.073 C 
ATOM     32  C   UNL     1       9.092   1.134  -6.560  0.00  0.00    +0.022 C 
ATOM     33  C   UNL     1      10.360   1.661  -5.862  0.00  0.00    +0.002 C 
ATOM     34  C   UNL     1      10.075   2.846  -4.919  0.00  0.00    +0.000 C 
ATOM     35  C   UNL     1       9.100   3.829  -5.509  0.00  0.00    +0.000 C 
ATOM     36  C   UNL     1       7.683   3.469  -5.019  0.00  0.00    +0.002 C 
ATOM     37  C   UNL     1       7.099   2.369  -5.771  0.00  0.00    +0.022 C 
ENDBRANCH  29  31
ENDBRANCH  25  27
ENDBRANCH   1  21
TORSDOF 6
