REMARK  Name = ZINC14532255
REMARK  11 active torsions:
REMARK  status: ('A' for Active; 'I' for Inactive)
REMARK    1  A    between atoms: C_1  and  C_2
REMARK    2  A    between atoms: C_2  and  C_3
REMARK    3  A    between atoms: C_2  and  C_4
REMARK    4  A    between atoms: C_4  and  C_5
REMARK    5  A    between atoms: C_5  and  N_6
REMARK    6  A    between atoms: N_9  and  C_25
REMARK    7  A    between atoms: C_17  and  C_18
REMARK    8  A    between atoms: C_17  and  N_61
REMARK    9  A    between atoms: C_19  and  C_20
REMARK   10  A    between atoms: C_25  and  C_26
REMARK   11  A    between atoms: C_25  and  C_27
REMARK                            x       y       z     vdW  Elec       q    Type
REMARK                         _______ _______ _______ _____ _____    ______ ____
ROOT
ATOM      1  N   UNL     1       1.179   2.165  -0.133  0.00  0.00    -0.271 N 
ATOM      2  C   UNL     1      -0.031   1.578  -0.055  0.00  0.00    +0.312 C 
ATOM      3  O   UNL     1      -0.194   0.389   0.132  0.00  0.00    -0.252 OA
ATOM      4  N   UNL     1      -1.033   2.452  -0.211  0.00  0.00    -0.222 N 
ATOM      5  C   UNL     1      -0.573   3.707  -0.399  0.00  0.00    +0.247 C 
ATOM      6  O   UNL     1      -1.230   4.712  -0.566  0.00  0.00    -0.273 OA
ATOM      7  C   UNL     1       0.933   3.594  -0.363  0.00  0.00    +0.112 C 
ATOM      8  C   UNL     1       1.533   4.034  -1.694  0.00  0.00    +0.017 C 
ATOM      9  C   UNL     1       3.060   3.935  -1.619  0.00  0.00    -0.076 C 
ATOM     10  C   UNL     1       3.031   4.315   0.776  0.00  0.00    -0.076 C 
ATOM     11  C   UNL     1       1.503   4.426   0.781  0.00  0.00    +0.017 C 
ATOM     12  N   UNL     1       3.542   4.803  -0.523  0.00  0.00    +0.382 N 
ATOM     13  H   UNL     1       3.196   5.758  -0.679  0.00  0.00    -0.081 HD
ENDROOT
BRANCH   4  14
ATOM     14  C   UNL     1      -2.452   2.091  -0.178  0.00  0.00    +0.080 C 
ATOM     15  C   UNL     1      -2.747   1.079  -1.287  0.00  0.00    +0.028 C 
ATOM     16  C   UNL     1      -2.790   1.472   1.180  0.00  0.00    +0.028 C 
ENDBRANCH   4  14
BRANCH   1  17
ATOM     17  C   UNL     1       2.483   1.508  -0.013  0.00  0.00    +0.110 C 
BRANCH  17  18
ATOM     18  C   UNL     1       2.691   0.566  -1.201  0.00  0.00    +0.022 C 
BRANCH  18  20
ATOM     19  C   UNL     1       4.242  -0.900   0.097  0.00  0.00    +0.007 C 
ATOM     20  C   UNL     1       4.103  -0.020  -1.146  0.00  0.00    -0.016 C 
ATOM     21  C   UNL     1       4.355  -0.862  -2.398  0.00  0.00    +0.007 C 
ENDBRANCH  18  20
ENDBRANCH  17  18
ENDBRANCH   1  17
BRANCH  12  22
ATOM     22  C   UNL     1       5.019   4.824  -0.508  0.00  0.00    -0.051 C 
BRANCH  22  23
ATOM     23  C   UNL     1       5.506   5.526  -1.750  0.00  0.00    -0.042 C 
ATOM     24  C   UNL     1       6.314   6.577  -1.646  0.00  0.00    +0.040 C 
BRANCH  24  25
ATOM     25  C   UNL     1       6.790   7.261  -2.858  0.00  0.00    +0.127 A 
ATOM     26  C   UNL     1       7.613   8.346  -2.893  0.00  0.00    +0.049 A 
ATOM     27  C   UNL     1       7.807   8.664  -4.251  0.00  0.00    +0.042 A 
ATOM     28  C   UNL     1       7.096   7.774  -4.971  0.00  0.00    +0.195 A 
ATOM     29  O   UNL     1       6.483   6.928  -4.127  0.00  0.00    -0.464 OA
ENDBRANCH  24  25
ENDBRANCH  22  23
ENDBRANCH  12  22
TORSDOF 7
