REMARK  Name = ZINC10558245
REMARK  8 active torsions:
REMARK  status: ('A' for Active; 'I' for Inactive)
REMARK    1  A    between atoms: C_1  and  C_2
REMARK    2  A    between atoms: C_2  and  C_27
REMARK    3  A    between atoms: C_4  and  N_9
REMARK    4  A    between atoms: C_6  and  C_7
REMARK    5  A    between atoms: C_6  and  C_8
REMARK    6  A    between atoms: C_10  and  C_12
REMARK    7  A    between atoms: N_15  and  C_18
REMARK    8  A    between atoms: C_23  and  N_24
REMARK                            x       y       z     vdW  Elec       q    Type
REMARK                         _______ _______ _______ _____ _____    ______ ____
ROOT
ATOM      1  N   UNL     1       1.369   1.578  -0.003  0.00  0.00    -0.312 N 
ATOM      2  C   UNL     1       2.333   0.902   0.654  0.00  0.00    +0.216 C 
ATOM      3  O   UNL     1       2.058  -0.116   1.254  0.00  0.00    -0.276 OA
ATOM      4  H   UNL     1       1.589   2.392  -0.482  0.00  0.00    +0.149 HD
ENDROOT
BRANCH   1   8
ATOM      5  C   UNL     1      -2.948   1.931  -2.315  0.00  0.00    -0.010 C 
ATOM      6  C   UNL     1      -2.196   1.133  -1.226  0.00  0.00    -0.072 C 
ATOM      7  C   UNL     1      -0.747   1.613  -1.223  0.00  0.00    +0.009 C 
ATOM      8  C   UNL     1      -0.013   1.083   0.008  0.00  0.00    +0.070 C 
ATOM      9  C   UNL     1      -0.723   1.600   1.258  0.00  0.00    +0.009 C 
ATOM     10  C   UNL     1      -2.171   1.116   1.285  0.00  0.00    -0.072 C 
ATOM     11  C   UNL     1      -2.902   1.895   2.401  0.00  0.00    -0.010 C 
ATOM     12  C   UNL     1      -2.208  -0.368   1.669  0.00  0.00    -0.010 C 
ATOM     13  C   UNL     1      -2.245  -0.344  -1.632  0.00  0.00    -0.010 C 
ATOM     14  N   UNL     1      -2.941   1.375   0.039  0.00  0.00    +0.386 N 
ATOM     15  H   UNL     1      -3.767   0.766   0.043  0.00  0.00    -0.084 HD
ATOM     16  H   UNL     1      -3.240   2.357   0.049  0.00  0.00    -0.084 HD
ENDBRANCH   1   8
BRANCH   2  17
ATOM     17  C   UNL     1       3.751   1.410   0.643  0.00  0.00    +0.078 C 
ATOM     18  C   UNL     1       4.264   1.465  -0.798  0.00  0.00    +0.031 C 
ATOM     19  C   UNL     1       5.724   1.923  -0.798  0.00  0.00    +0.106 C 
ATOM     20  N   UNL     1       6.533   0.987  -0.007  0.00  0.00    -0.328 N 
ATOM     21  C   UNL     1       6.089   0.953   1.393  0.00  0.00    +0.106 C 
ATOM     22  C   UNL     1       4.640   0.466   1.458  0.00  0.00    +0.031 C 
BRANCH  20  23
ATOM     23  C   UNL     1       7.891   1.301  -0.094  0.00  0.00    +0.060 A 
ATOM     24  C   UNL     1       8.359   2.510   0.406  0.00  0.00    +0.025 A 
ATOM     25  C   UNL     1       9.704   2.815   0.324  0.00  0.00    +0.002 A 
ATOM     26  C   UNL     1      10.582   1.924  -0.265  0.00  0.00    +0.002 A 
ATOM     27  C   UNL     1      10.118   0.723  -0.769  0.00  0.00    +0.034 A 
ATOM     28  C   UNL     1       8.776   0.409  -0.685  0.00  0.00    +0.147 A 
BRANCH  28  29
ATOM     29  N   UNL     1       8.280  -0.877  -1.225  0.00  0.00    +0.058 N 
ATOM     30  O   UNL     1       9.057  -1.660  -1.743  0.00  0.00    -0.126 OA
ATOM     31  O   UNL     1       7.096  -1.153  -1.151  0.00  0.00    -0.126 OA
ENDBRANCH  28  29
ENDBRANCH  20  23
ENDBRANCH   2  17
TORSDOF 4
