REMARK  Name = ZINC24210863
REMARK  9 active torsions:
REMARK  status: ('A' for Active; 'I' for Inactive)
REMARK    1  A    between atoms: C_1  and  N_2
REMARK    2  A    between atoms: N_2  and  C_3
REMARK    3  A    between atoms: C_3  and  C_4
REMARK    4  A    between atoms: C_15  and  C_17
REMARK    5  A    between atoms: C_17  and  N_18
REMARK    6  A    between atoms: C_24  and  C_26
REMARK    7  A    between atoms: C_26  and  C_27
REMARK    8  A    between atoms: C_27  and  O_29
REMARK    9  A    between atoms: O_29  and  C_30
REMARK                            x       y       z     vdW  Elec       q    Type
REMARK                         _______ _______ _______ _____ _____    ______ ____
ROOT
ATOM      1  C   UNL     1       4.274   6.004   0.163  0.00  0.00    +0.132 C 
ATOM      2  N   UNL     1       2.962   6.340   0.721  0.00  0.00    -0.302 N 
ATOM      3  C   UNL     1       2.002   5.397   0.801  0.00  0.00    +0.199 C 
ATOM      4  O   UNL     1       0.916   5.676   1.263  0.00  0.00    -0.278 OA
ENDROOT
BRANCH   2   5
ATOM      5  C   UNL     1       2.693   7.701   1.191  0.00  0.00    +0.155 C 
BRANCH   5   6
ATOM      6  C   UNL     1       3.066   7.813   2.671  0.00  0.00    +0.228 C 
ATOM      7  C   UNL     1       2.699   9.208   3.194  0.00  0.00    +0.275 C 
ATOM      8  O   UNL     1       3.072   9.281   4.574  0.00  0.00    -0.485 OA
ATOM      9  C   UNL     1       4.311   8.819   4.898  0.00  0.00    +0.162 A 
ATOM     10  C   UNL     1       4.875   9.176   6.114  0.00  0.00    +0.049 A 
ATOM     11  C   UNL     1       6.129   8.709   6.459  0.00  0.00    +0.004 A 
ATOM     12  C   UNL     1       6.824   7.884   5.594  0.00  0.00    +0.004 A 
ATOM     13  C   UNL     1       6.269   7.526   4.381  0.00  0.00    +0.049 A 
ATOM     14  C   UNL     1       5.011   7.992   4.027  0.00  0.00    +0.163 A 
ATOM     15  O   UNL     1       4.478   7.633   2.828  0.00  0.00    -0.480 OA
ENDBRANCH   5   6
ENDBRANCH   2   5
BRANCH   3  16
ATOM     16  C   UNL     1       2.279   3.997   0.317  0.00  0.00    +0.020 C 
BRANCH  16  17
ATOM     17  N   UNL     1       1.082   3.168   0.509  0.00  0.00    +0.394 N 
ATOM     18  C   UNL     1       0.684   3.135   1.925  0.00  0.00    -0.058 C 
ATOM     19  C   UNL     1      -0.357   2.030   2.117  0.00  0.00    +0.085 C 
ATOM     20  N   UNL     1      -1.423   2.172   1.129  0.00  0.00    -0.318 N 
ATOM     21  C   UNL     1      -1.283   2.886   0.007  0.00  0.00    +0.200 C 
ATOM     22  O   UNL     1      -2.207   2.922  -0.778  0.00  0.00    -0.278 OA
ATOM     23  C   UNL     1      -0.031   3.651  -0.319  0.00  0.00    +0.031 C 
ATOM     24  H   UNL     1      -2.393   1.680   1.292  0.00  0.00    +0.149 HD
ATOM     25  H   UNL     1       1.333   2.145   0.191  0.00  0.00    -0.080 HD
BRANCH  23  26
ATOM     26  C   UNL     1       0.313   3.455  -1.797  0.00  0.00    +0.114 C 
BRANCH  26  27
ATOM     27  C   UNL     1       0.582   1.996  -2.061  0.00  0.00    +0.306 C 
ATOM     28  O   UNL     1       0.614   1.212  -1.143  0.00  0.00    -0.251 OA
BRANCH  27  29
ATOM     29  O   UNL     1       0.786   1.568  -3.317  0.00  0.00    -0.468 OA
ATOM     30  C   UNL     1       1.039   0.150  -3.497  0.00  0.00    +0.280 C 
ENDBRANCH  27  29
ENDBRANCH  26  27
ENDBRANCH  23  26
ENDBRANCH  16  17
ENDBRANCH   3  16
TORSDOF 7
