REMARK  Name = ZINC44322942
REMARK  9 active torsions:
REMARK  status: ('A' for Active; 'I' for Inactive)
REMARK    1  A    between atoms: C_1  and  C_2
REMARK    2  A    between atoms: C_5  and  C_8
REMARK    3  A    between atoms: C_9  and  C_17
REMARK    4  A    between atoms: C_17  and  CA_18
REMARK    5  A    between atoms: CA_18  and  C_20
REMARK    6  A    between atoms: CA_18  and  N_23
REMARK    7  A    between atoms: C_24  and  O_26
REMARK    8  A    between atoms: O_26  and  C_27
REMARK    9  A    between atoms: C_27  and  C_28
REMARK                            x       y       z     vdW  Elec       q    Type
REMARK                         _______ _______ _______ _____ _____    ______ ____
ROOT
ATOM      1  CA  UNL     1      -1.293  -4.290   2.981  0.00  0.00    +0.195 C 
ENDROOT
BRANCH   1   2
ATOM      2  N   UNL     1      -0.625  -5.469   3.537  0.00  0.00    -0.267 N 
ATOM      3  C   UNL     1       0.365  -5.320   4.439  0.00  0.00    +0.401 C 
ATOM      4  O   UNL     1       0.704  -4.207   4.791  0.00  0.00    -0.226 OA
ATOM      5  H   UNL     1      -0.895  -6.357   3.256  0.00  0.00    +0.153 HD
BRANCH   3   6
ATOM      6  O   UNL     1       0.979  -6.404   4.951  0.00  0.00    -0.449 OA
BRANCH   6   7
ATOM      7  C   UNL     1       2.020  -6.171   5.902  0.00  0.00    +0.246 C 
BRANCH   7   8
ATOM      8  C   UNL     1       2.594  -7.511   6.367  0.00  0.00    +0.088 C 
ATOM      9  C   UNL     1       3.338  -8.178   5.237  0.00  0.00    -0.029 A 
ATOM     10  C   UNL     1       2.935  -8.613   3.992  0.00  0.00    +0.005 A 
ATOM     11  C   UNL     1       3.847  -9.204   3.136  0.00  0.00    +0.000 A 
ATOM     12  C   UNL     1       5.165  -9.358   3.526  0.00  0.00    +0.001 A 
ATOM     13  C   UNL     1       5.578  -8.925   4.769  0.00  0.00    +0.009 A 
ATOM     14  C   UNL     1       4.663  -8.329   5.638  0.00  0.00    -0.014 A 
ATOM     15  C   UNL     1       4.830  -7.782   7.008  0.00  0.00    -0.014 A 
ATOM     16  C   UNL     1       3.609  -7.289   7.462  0.00  0.00    -0.029 A 
ATOM     17  C   UNL     1       3.510  -6.727   8.716  0.00  0.00    +0.005 A 
ATOM     18  C   UNL     1       4.625  -6.649   9.531  0.00  0.00    +0.000 A 
ATOM     19  C   UNL     1       5.842  -7.136   9.089  0.00  0.00    +0.001 A 
ATOM     20  C   UNL     1       5.951  -7.700   7.835  0.00  0.00    +0.009 A 
ENDBRANCH   7   8
ENDBRANCH   6   7
ENDBRANCH   3   6
ENDBRANCH   1   2
BRANCH   1  21
ATOM     21  C   UNL     1      -2.399  -3.855   3.907  0.00  0.00    +0.376 C 
ATOM     22  O   UNL     1      -2.731  -4.569   4.838  0.00  0.00    -0.244 OA
ATOM     23  OXT UNL     1      -2.962  -2.789   3.727  0.00  0.00    -0.244 OA
ENDBRANCH   1  21
BRANCH   1  24
ATOM     24  C   UNL     1      -1.882  -4.636   1.611  0.00  0.00    +0.090 C 
BRANCH  24  26
ATOM     25  C   UNL     1      -0.289  -6.194   0.344  0.00  0.00    +0.068 A 
ATOM     26  C   UNL     1      -0.765  -4.955   0.651  0.00  0.00    +0.051 A 
ATOM     27  N   UNL     1      -0.039  -4.055  -0.078  0.00  0.00    -0.304 N 
ATOM     28  C   UNL     1      -0.083  -2.693  -0.166  0.00  0.00    +0.093 A 
ATOM     29  C   UNL     1       0.764  -2.029  -0.979  0.00  0.00    +0.018 A 
ATOM     30  C   UNL     1       1.705  -2.732  -1.749  0.00  0.00    +0.005 A 
ATOM     31  C   UNL     1       1.760  -4.089  -1.672  0.00  0.00    +0.045 A 
ATOM     32  C   UNL     1       0.869  -4.769  -0.817  0.00  0.00    +0.116 A 
ATOM     33  N   UNL     1       0.706  -6.055  -0.545  0.00  0.00    -0.339 N 
ATOM     34  H   UNL     1       1.223  -6.781  -0.929  0.00  0.00    +0.167 HD
BRANCH  25  39
ATOM     35  C   UNL     1      -2.207 -11.173   2.514  0.00  0.00    +0.044 C 
ATOM     36  C   UNL     1      -1.705  -9.870   1.946  0.00  0.00    -0.050 A 
ATOM     37  C   UNL     1      -0.347  -9.611   1.911  0.00  0.00    +0.004 A 
ATOM     38  C   UNL     1       0.118  -8.420   1.392  0.00  0.00    +0.010 A 
ATOM     39  C   UNL     1      -0.784  -7.477   0.903  0.00  0.00    +0.000 A 
ATOM     40  C   UNL     1      -2.151  -7.743   0.941  0.00  0.00    +0.010 A 
ATOM     41  C   UNL     1      -2.604  -8.940   1.458  0.00  0.00    +0.004 A 
ENDBRANCH  25  39
ENDBRANCH  24  26
ENDBRANCH   1  24
TORSDOF 8
