REMARK  Name = ZINC39637432
REMARK  8 active torsions:
REMARK  status: ('A' for Active; 'I' for Inactive)
REMARK    1  A    between atoms: C_1  and  C_2
REMARK    2  A    between atoms: C_2  and  N_3
REMARK    3  A    between atoms: C_4  and  C_10
REMARK    4  A    between atoms: C_6  and  C_8
REMARK    5  A    between atoms: C_14  and  C_23
REMARK    6  A    between atoms: N_25  and  C_26
REMARK    7  A    between atoms: C_31  and  C_36
REMARK    8  A    between atoms: C_33  and  C_35
REMARK                            x       y       z     vdW  Elec       q    Type
REMARK                         _______ _______ _______ _____ _____    ______ ____
ROOT
ATOM      1  C   UNL     1      -2.111  -0.176   3.196  0.00  0.00    +0.266 C 
ATOM      2  O   UNL     1      -2.682  -0.405   4.245  0.00  0.00    -0.268 OA
ATOM      3  N   UNL     1      -0.799   0.133   3.196  0.00  0.00    -0.295 N 
ATOM      4  C   UNL     1       0.086   0.339   2.025  0.00  0.00    +0.121 C 
ATOM      5  C   UNL     1       0.991   1.526   2.423  0.00  0.00    +0.100 C 
ATOM      6  C   UNL     1       0.988   1.524   3.961  0.00  0.00    -0.004 C 
ATOM      7  C   UNL     1       0.084   0.351   4.367  0.00  0.00    +0.115 C 
ATOM      8  C   UNL     1       0.412   2.834   4.490  0.00  0.00    -0.010 C 
ATOM      9  C   UNL     1       0.472   2.831   6.020  0.00  0.00    -0.082 C 
ATOM     10  N   UNL     1       1.865   2.673   6.457  0.00  0.00    +0.379 N 
ATOM     11  C   UNL     1       2.381   1.369   6.022  0.00  0.00    -0.082 C 
ATOM     12  C   UNL     1       2.402   1.310   4.492  0.00  0.00    -0.010 C 
ATOM     13  H   UNL     1       2.428   3.407   6.054  0.00  0.00    -0.086 HD
ATOM     14  H   UNL     1       1.910   2.732   7.463  0.00  0.00    -0.086 HD
ENDROOT
BRANCH   1  16
ATOM     15  N   UNL     1      -2.913  -1.293   1.062  0.00  0.00    -0.258 N 
ATOM     16  C   UNL     1      -2.852  -0.236   1.927  0.00  0.00    +0.138 A 
ATOM     17  C   UNL     1      -3.629   0.765   1.369  0.00  0.00    +0.071 A 
ATOM     18  C   UNL     1      -4.119   0.231   0.174  0.00  0.00    +0.075 A 
ATOM     19  N   UNL     1      -3.651  -0.985   0.057  0.00  0.00    -0.175 NA
ATOM     20  C   UNL     1      -5.021   0.933  -0.807  0.00  0.00    +0.069 C 
ATOM     21 BR   UNL     1      -3.958   2.489   2.075  0.00  0.00    -0.046 Br
BRANCH  15  23
ATOM     22  C   UNL     1      -0.910  -2.572   0.484  0.00  0.00    +0.029 C 
ATOM     23  C   UNL     1      -2.235  -2.578   1.250  0.00  0.00    +0.141 C 
ENDBRANCH  15  23
ENDBRANCH   1  16
BRANCH   5  24
ATOM     24  C   UNL     1       0.422   2.819   1.897  0.00  0.00    +0.218 C 
ATOM     25  O   UNL     1      -0.776   2.941   1.754  0.00  0.00    -0.275 OA
ATOM     26  N   UNL     1       1.245   3.840   1.585  0.00  0.00    -0.312 N 
ATOM     27  H   UNL     1       2.206   3.718   1.629  0.00  0.00    +0.149 HD
BRANCH  26  28
ATOM     28  C   UNL     1       0.688   5.132   1.180  0.00  0.00    +0.076 C 
ATOM     29  C   UNL     1       0.321   5.942   2.425  0.00  0.00    +0.022 C 
ATOM     30  C   UNL     1      -0.261   7.293   2.002  0.00  0.00    +0.002 C 
ATOM     31  C   UNL     1       0.776   8.061   1.181  0.00  0.00    +0.003 C 
ATOM     32  C   UNL     1       1.143   7.251  -0.064  0.00  0.00    -0.009 C 
ATOM     33  C   UNL     1       1.725   5.901   0.359  0.00  0.00    +0.009 C 
ATOM     34  C   UNL     1       2.092   5.091  -0.886  0.00  0.00    +0.009 C 
ATOM     35  C   UNL     1      -0.110   7.023  -0.912  0.00  0.00    +0.008 C 
ENDBRANCH  26  28
ENDBRANCH   5  24
TORSDOF 4
