REMARK  Name = ZINC06654419
REMARK  9 active torsions:
REMARK  status: ('A' for Active; 'I' for Inactive)
REMARK    1  A    between atoms: C_1  and  C_2
REMARK    2  A    between atoms: C_3  and  O_24
REMARK    3  A    between atoms: C_12  and  C_13
REMARK    4  A    between atoms: C_13  and  N_46
REMARK    5  A    between atoms: C_14  and  N_46
REMARK    6  A    between atoms: C_15  and  C_16
REMARK    7  A    between atoms: C_15  and  N_46
REMARK    8  A    between atoms: C_19  and  S_22
REMARK    9  A    between atoms: S_22  and  C_23
REMARK                            x       y       z     vdW  Elec       q    Type
REMARK                         _______ _______ _______ _____ _____    ______ ____
ROOT
ATOM      1  C   UNL     1       3.679   2.218  -0.022  0.00  0.00    +0.051 C 
ATOM      2  C   UNL     1       2.396   1.427  -0.013  0.00  0.00    +0.034 A 
ATOM      3  C   UNL     1       1.175   2.083   0.002  0.00  0.00    +0.123 A 
ATOM      4  C   UNL     1      -0.016   1.361   0.009  0.00  0.00    +0.046 A 
ATOM      5  C   UNL     1       0.002  -0.004   0.002  0.00  0.00    +0.015 A 
ATOM      6  C   UNL     1       1.226  -0.683  -0.013  0.00  0.00    +0.019 A 
ATOM      7  C   UNL     1       2.433   0.041  -0.021  0.00  0.00    +0.146 A 
ATOM      8  O   UNL     1       3.611  -0.618  -0.035  0.00  0.00    -0.422 OA
ATOM      9  C   UNL     1       3.664  -1.959  -0.042  0.00  0.00    +0.337 A 
ATOM     10  O   UNL     1       4.751  -2.510  -0.054  0.00  0.00    -0.245 OA
ATOM     11  C   UNL     1       2.495  -2.746  -0.035  0.00  0.00    +0.094 A 
ATOM     12  C   UNL     1       1.276  -2.146  -0.021  0.00  0.00    -0.047 A 
ENDROOT
BRANCH   3  13
ATOM     13  O   UNL     1       1.140   3.440   0.010  0.00  0.00    -0.506 OA
ATOM     14  H   UNL     1       1.138   3.828   0.895  0.00  0.00    +0.292 HD
ENDBRANCH   3  13
BRANCH  12  15
ATOM     15  C   UNL     1       0.011  -2.965  -0.013  0.00  0.00    -0.042 C 
BRANCH  15  17
ATOM     16  C   UNL     1       0.346  -3.764  -2.273  0.00  0.00    -0.095 C 
ATOM     17  N   UNL     1      -0.546  -2.995  -1.382  0.00  0.00    +0.383 N 
ATOM     18  H   UNL     1      -0.620  -2.033  -1.733  0.00  0.00    -0.081 HD
BRANCH  17  19
ATOM     19  C   UNL     1      -1.893  -3.604  -1.366  0.00  0.00    -0.043 C 
BRANCH  19  20
ATOM     20  C   UNL     1      -2.524  -3.424  -2.722  0.00  0.00    -0.064 A 
ATOM     21  C   UNL     1      -3.271  -2.292  -2.990  0.00  0.00    +0.003 A 
ATOM     22  C   UNL     1      -3.846  -2.120  -4.234  0.00  0.00    +0.015 A 
ATOM     23  C   UNL     1      -3.683  -3.093  -5.213  0.00  0.00    +0.008 A 
ATOM     24  C   UNL     1      -2.937  -4.232  -4.938  0.00  0.00    +0.015 A 
ATOM     25  C   UNL     1      -2.359  -4.394  -3.694  0.00  0.00    +0.003 A 
BRANCH  23  26
ATOM     26  S   UNL     1      -4.421  -2.882  -6.799  0.00  0.00    -0.129 S 
ATOM     27  C   UNL     1      -5.271  -1.284  -6.679  0.00  0.00    +0.090 C 
ENDBRANCH  23  26
ENDBRANCH  19  20
ENDBRANCH  17  19
ENDBRANCH  15  17
ENDBRANCH  12  15
TORSDOF 6
