REMARK  Name = ZINC15019851
REMARK  14 active torsions:
REMARK  status: ('A' for Active; 'I' for Inactive)
REMARK    1  A    between atoms: C_1  and  C_2
REMARK    2  A    between atoms: C_2  and  N_3
REMARK    3  A    between atoms: C_4  and  C_22
REMARK    4  A    between atoms: C_7  and  S_8
REMARK    5  A    between atoms: S_8  and  C_9
REMARK    6  A    between atoms: C_9  and  C_10
REMARK    7  A    between atoms: C_10  and  C_12
REMARK    8  A    between atoms: C_14  and  C_21
REMARK    9  A    between atoms: N_15  and  C_18
REMARK   10  A    between atoms: C_16  and  C_17
REMARK   11  A    between atoms: C_22  and  N_23
REMARK   12  A    between atoms: N_23  and  C_24
REMARK   13  A    between atoms: N_23  and  S_30
REMARK   14  A    between atoms: S_30  and  C_33
REMARK                            x       y       z     vdW  Elec       q    Type
REMARK                         _______ _______ _______ _____ _____    ______ ____
ROOT
ATOM      1  N   UNL     1       1.222   0.265   0.773  0.00  0.00    -0.305 N 
ATOM      2  C   UNL     1       0.329   1.298   0.686  0.00  0.00    +0.153 A 
ATOM      3  N   UNL     1      -0.802   0.875   1.175  0.00  0.00    -0.132 NA
ATOM      4  N   UNL     1      -0.687  -0.346   1.562  0.00  0.00    -0.122 NA
ATOM      5  C   UNL     1       0.535  -0.770   1.339  0.00  0.00    +0.192 A 
ENDROOT
BRANCH   1   7
ATOM      6  C   UNL     1       2.728  -0.299  -1.070  0.00  0.00    +0.027 C 
ATOM      7  C   UNL     1       2.623   0.269   0.347  0.00  0.00    +0.122 C 
ENDBRANCH   1   7
BRANCH   5   8
ATOM      8  S   UNL     1       1.170  -2.374   1.702  0.00  0.00    -0.078 S 
BRANCH   8   9
ATOM      9  C   UNL     1      -0.306  -3.142   2.414  0.00  0.00    +0.157 C 
BRANCH   9  10
ATOM     10  C   UNL     1       0.007  -4.562   2.810  0.00  0.00    +0.175 C 
ATOM     11  O   UNL     1       1.120  -5.010   2.629  0.00  0.00    -0.291 OA
BRANCH  10  12
ATOM     12  C   UNL     1      -1.030  -5.400   3.414  0.00  0.00    +0.039 A 
ATOM     13  C   UNL     1      -2.418  -5.017   3.708  0.00  0.00    +0.034 A 
ATOM     14  C   UNL     1      -3.002  -6.098   4.252  0.00  0.00    +0.017 A 
ATOM     15  N   UNL     1      -2.089  -7.110   4.326  0.00  0.00    -0.345 N 
ATOM     16  C   UNL     1      -0.904  -6.712   3.830  0.00  0.00    +0.027 A 
ATOM     17  C   UNL     1       0.345  -7.551   3.743  0.00  0.00    +0.064 C 
ATOM     18  C   UNL     1      -4.434  -6.178   4.713  0.00  0.00    +0.063 C 
BRANCH  15  19
ATOM     19  C   UNL     1      -2.362  -8.443   4.869  0.00  0.00    +0.087 C 
ATOM     20  C   UNL     1      -3.089  -8.523   6.213  0.00  0.00    +0.027 C 
ATOM     21  C   UNL     1      -1.599  -8.863   6.128  0.00  0.00    +0.027 C 
ENDBRANCH  15  19
ENDBRANCH  10  12
ENDBRANCH   9  10
ENDBRANCH   8   9
ENDBRANCH   5   8
BRANCH   2  22
ATOM     22  C   UNL     1       0.603   2.670   0.128  0.00  0.00    +0.207 C 
BRANCH  22  23
ATOM     23  N   UNL     1       1.033   3.560   1.209  0.00  0.00    -0.200 N 
BRANCH  23  24
ATOM     24  C   UNL     1       2.371   3.577   1.610  0.00  0.00    +0.051 A 
ATOM     25  C   UNL     1       2.709   3.264   2.920  0.00  0.00    +0.025 A 
ATOM     26  C   UNL     1       4.034   3.276   3.312  0.00  0.00    +0.002 A 
ATOM     27  C   UNL     1       5.021   3.611   2.404  0.00  0.00    +0.000 A 
ATOM     28  C   UNL     1       4.688   3.928   1.100  0.00  0.00    +0.002 A 
ATOM     29  C   UNL     1       3.366   3.912   0.700  0.00  0.00    +0.025 A 
ENDBRANCH  23  24
BRANCH  23  30
ATOM     30  S   UNL     1      -0.067   4.547   1.957  0.00  0.00    +0.043 S 
ATOM     31  O   UNL     1       0.712   5.579   2.546  0.00  0.00    -0.155 OA
ATOM     32  O   UNL     1      -1.026   4.847   0.952  0.00  0.00    -0.155 OA
ATOM     33  C   UNL     1      -0.817   3.515   3.247  0.00  0.00    +0.218 C 
ENDBRANCH  23  30
ENDBRANCH  22  23
ENDBRANCH   2  22
TORSDOF 10
