REMARK  Name = ZINC66175177
REMARK  6 active torsions:
REMARK  status: ('A' for Active; 'I' for Inactive)
REMARK    1  A    between atoms: N_5  and  C_8
REMARK    2  A    between atoms: C_8  and  C_9
REMARK    3  A    between atoms: C_9  and  C_10
REMARK    4  A    between atoms: C_10  and  N_11
REMARK    5  A    between atoms: C_17  and  N_20
REMARK    6  A    between atoms: C_21  and  C_23
REMARK                            x       y       z     vdW  Elec       q    Type
REMARK                         _______ _______ _______ _____ _____    ______ ____
ROOT
ATOM      1  N   UNL     1       3.174  -4.739  -2.422  0.00  0.00    -0.299 N 
ATOM      2  C   UNL     1       3.634  -5.790  -3.129  0.00  0.00    +0.302 C 
ATOM      3  O   UNL     1       3.773  -5.699  -4.333  0.00  0.00    -0.253 OA
ATOM      4  N   UNL     1       3.940  -6.943  -2.500  0.00  0.00    -0.286 N 
ATOM      5  C   UNL     1       3.669  -7.108  -1.066  0.00  0.00    +0.111 C 
ATOM      6  C   UNL     1       4.960  -7.543  -0.366  0.00  0.00    +0.041 C 
ATOM      7  C   UNL     1       5.508  -8.798  -1.051  0.00  0.00    +0.076 C 
ATOM      8  C   UNL     1       5.833  -8.483  -2.513  0.00  0.00    +0.041 C 
ATOM      9  C   UNL     1       4.546  -8.059  -3.238  0.00  0.00    +0.111 C 
ATOM     10  H   UNL     1       2.993  -4.834  -1.474  0.00  0.00    +0.150 HD
ENDROOT
BRANCH   7  11
ATOM     11  N   UNL     1       6.725  -9.237  -0.364  0.00  0.00    -0.312 N 
ATOM     12  C   UNL     1       7.105 -10.528  -0.425  0.00  0.00    +0.216 C 
ATOM     13  O   UNL     1       6.439 -11.328  -1.048  0.00  0.00    -0.276 OA
ATOM     14  H   UNL     1       7.258  -8.597   0.135  0.00  0.00    +0.149 HD
BRANCH  12  15
ATOM     15  C   UNL     1       8.357 -10.980   0.282  0.00  0.00    +0.075 C 
ATOM     16  C   UNL     1       9.644 -10.719  -0.519  0.00  0.00    +0.013 C 
ATOM     17  C   UNL     1      10.133 -12.093  -0.031  0.00  0.00    +0.001 C 
ATOM     18  C   UNL     1       8.652 -12.480   0.115  0.00  0.00    +0.013 C 
ENDBRANCH  12  15
ENDBRANCH   7  11
BRANCH   1  19
ATOM     19  C   UNL     1       2.946  -3.453  -3.086  0.00  0.00    +0.104 C 
BRANCH  19  20
ATOM     20  C   UNL     1       2.427  -2.437  -2.067  0.00  0.00    +0.000 C 
BRANCH  20  21
ATOM     21  C   UNL     1       2.189  -1.095  -2.760  0.00  0.00    -0.077 C 
BRANCH  21  26
ATOM     22  C   UNL     1      -0.012   1.547   0.011  0.00  0.00    -0.002 C 
ATOM     23  C   UNL     1       1.404   2.060   0.001  0.00  0.00    -0.002 C 
ATOM     24  C   UNL     1       1.954   2.303  -1.418  0.00  0.00    -0.019 C 
ATOM     25  C   UNL     1       1.576   1.181  -2.401  0.00  0.00    -0.079 C 
ATOM     26  N   UNL     1       1.691  -0.119  -1.782  0.00  0.00    +0.380 N 
ATOM     27  C   UNL     1       0.349  -0.515  -1.321  0.00  0.00    -0.079 C 
ATOM     28  C   UNL     1       0.007  -0.001   0.002  0.00  0.00    -0.019 C 
ATOM     29  H   UNL     1       2.322  -0.069  -0.996  0.00  0.00    -0.082 HD
ENDBRANCH  21  26
ENDBRANCH  20  21
ENDBRANCH  19  20
ENDBRANCH   1  19
TORSDOF 6
