REMARK  Name = ZINC20342984
REMARK  7 active torsions:
REMARK  status: ('A' for Active; 'I' for Inactive)
REMARK    1  A    between atoms: C_2  and  C_3
REMARK    2  A    between atoms: C_3  and  N_4
REMARK    3  A    between atoms: C_5  and  C_23
REMARK    4  A    between atoms: C_8  and  S_9
REMARK    5  A    between atoms: S_9  and  C_10
REMARK    6  A    between atoms: C_10  and  C_11
REMARK    7  A    between atoms: C_29  and  C_31
REMARK                            x       y       z     vdW  Elec       q    Type
REMARK                         _______ _______ _______ _____ _____    ______ ____
ROOT
ATOM      1  N   UNL     1       8.163   5.554   0.452  0.00  0.00    -0.301 N 
ATOM      2  C   UNL     1       9.072   6.564   0.297  0.00  0.00    +0.155 A 
ATOM      3  N   UNL     1       8.516   7.656   0.741  0.00  0.00    -0.132 NA
ATOM      4  N   UNL     1       7.326   7.408   1.158  0.00  0.00    -0.122 NA
ATOM      5  C   UNL     1       7.059   6.131   1.009  0.00  0.00    +0.192 A 
ENDROOT
BRANCH   2   6
ATOM      6  C   UNL     1      10.458   6.438  -0.279  0.00  0.00    +0.144 C 
ATOM      7  C   UNL     1      11.507   6.544   0.848  0.00  0.00    +0.032 C 
ATOM      8  C   UNL     1      12.645   7.367   0.183  0.00  0.00    +0.021 C 
ATOM      9  C   UNL     1      11.844   8.338  -0.719  0.00  0.00    +0.109 C 
ATOM     10  N   UNL     1      10.710   7.540  -1.220  0.00  0.00    -0.287 N 
ATOM     11  C   UNL     1      10.020   7.779  -2.352  0.00  0.00    +0.249 C 
ATOM     12  O   UNL     1       9.109   7.043  -2.676  0.00  0.00    -0.270 OA
BRANCH  11  13
ATOM     13  C   UNL     1      10.371   8.937  -3.200  0.00  0.00    +0.055 A 
ATOM     14  C   UNL     1      11.036  10.035  -2.649  0.00  0.00    +0.014 A 
ATOM     15  C   UNL     1      11.361  11.112  -3.446  0.00  0.00    +0.001 A 
ATOM     16  C   UNL     1      11.029  11.109  -4.790  0.00  0.00    +0.001 A 
ATOM     17  C   UNL     1      10.372  10.026  -5.344  0.00  0.00    +0.021 A 
ATOM     18  C   UNL     1      10.045   8.937  -4.559  0.00  0.00    +0.053 A 
ATOM     19 CL   UNL     1       9.225   7.575  -5.257  0.00  0.00    -0.083 Cl
ENDBRANCH  11  13
ENDBRANCH   2   6
BRANCH   1  20
ATOM     20  C   UNL     1       8.339   4.144   0.095  0.00  0.00    +0.152 C 
BRANCH  20  22
ATOM     21  C   UNL     1       8.697   3.384  -2.198  0.00  0.00    +0.005 C 
ATOM     22  C   UNL     1       7.884   3.925  -1.325  0.00  0.00    -0.013 C 
ENDBRANCH  20  22
ENDBRANCH   1  20
BRANCH   5  23
ATOM     23  S   UNL     1       5.556   5.319   1.440  0.00  0.00    -0.078 S 
BRANCH  23  24
ATOM     24  C   UNL     1       4.618   6.720   2.099  0.00  0.00    +0.151 C 
BRANCH  24  25
ATOM     25  C   UNL     1       3.257   6.250   2.543  0.00  0.00    +0.121 A 
ATOM     26  N   UNL     1       2.400   7.163   3.071  0.00  0.00    -0.310 N 
ATOM     27  H   UNL     1       2.707   8.215   3.164  0.00  0.00    +0.170 HD
ATOM     28  C   UNL     1       1.167   6.791   3.485  0.00  0.00    +0.259 A 
ATOM     29  O   UNL     1       0.389   7.598   3.958  0.00  0.00    -0.267 OA
ATOM     30  C   UNL     1       0.802   5.373   3.339  0.00  0.00    +0.065 A 
ATOM     31  C   UNL     1      -0.442   4.888   3.735  0.00  0.00    +0.015 A 
ATOM     32  C   UNL     1      -0.733   3.551   3.571  0.00  0.00    +0.001 A 
ATOM     33  C   UNL     1       0.207   2.686   3.026  0.00  0.00    +0.002 A 
ATOM     34  C   UNL     1       1.443   3.146   2.629  0.00  0.00    +0.028 A 
ATOM     35  C   UNL     1       1.759   4.497   2.780  0.00  0.00    +0.078 A 
ATOM     36  N   UNL     1       2.964   4.993   2.402  0.00  0.00    -0.233 NA
ENDBRANCH  24  25
ENDBRANCH  23  24
ENDBRANCH   5  23
TORSDOF 7
