REMARK  Name = ZINC48853540
REMARK  9 active torsions:
REMARK  status: ('A' for Active; 'I' for Inactive)
REMARK    1  A    between atoms: C_1  and  C_2
REMARK    2  A    between atoms: C_4  and  C_28
REMARK    3  A    between atoms: C_5  and  N_9
REMARK    4  A    between atoms: C_6  and  C_8
REMARK    5  A    between atoms: C_10  and  C_12
REMARK    6  A    between atoms: N_14  and  C_15
REMARK    7  A    between atoms: C_15  and  C_16
REMARK    8  A    between atoms: C_16  and  C_18
REMARK    9  A    between atoms: C_16  and  N_23
REMARK                            x       y       z     vdW  Elec       q    Type
REMARK                         _______ _______ _______ _____ _____    ______ ____
ROOT
ATOM      1  C   UNL     1      -0.211  -6.314   1.057  0.00  0.00    +0.299 C 
ATOM      2  O   UNL     1      -0.309  -6.936   0.019  0.00  0.00    -0.265 OA
ATOM      3  N   UNL     1      -0.132  -6.972   2.231  0.00  0.00    -0.309 N 
ATOM      4  H   UNL     1      -0.053  -6.476   3.060  0.00  0.00    +0.149 HD
ENDROOT
BRANCH   1   6
ATOM      5  N   UNL     1      -0.257  -4.164  -0.140  0.00  0.00    -0.277 N 
ATOM      6  C   UNL     1      -0.178  -4.822   1.034  0.00  0.00    +0.303 C 
ATOM      7  O   UNL     1      -0.080  -4.200   2.072  0.00  0.00    -0.265 OA
ATOM      8  H   UNL     1      -0.255  -4.659  -0.975  0.00  0.00    +0.155 HD
BRANCH   5  13
ATOM      9  C   UNL     1      -0.605   1.496  -0.204  0.00  0.00    +0.044 C 
ATOM     10  C   UNL     1      -0.512  -0.008  -0.187  0.00  0.00    -0.050 A 
ATOM     11  C   UNL     1       0.550  -0.627   0.447  0.00  0.00    +0.008 A 
ATOM     12  C   UNL     1       0.637  -2.005   0.464  0.00  0.00    -0.029 A 
ATOM     13  C   UNL     1      -0.343  -2.769  -0.156  0.00  0.00    +0.040 A 
ATOM     14  C   UNL     1      -1.409  -2.144  -0.791  0.00  0.00    -0.029 A 
ATOM     15  C   UNL     1      -1.492  -0.766  -0.801  0.00  0.00    +0.008 A 
ATOM     16  C   UNL     1      -2.474  -2.970  -1.465  0.00  0.00    +0.045 C 
ATOM     17  C   UNL     1       1.795  -2.678   1.155  0.00  0.00    +0.045 C 
ENDBRANCH   5  13
ENDBRANCH   1   6
BRANCH   3  18
ATOM     18  C   UNL     1      -0.165  -8.436   2.254  0.00  0.00    +0.094 C 
BRANCH  18  19
ATOM     19  C   UNL     1      -0.173  -8.924   3.704  0.00  0.00    -0.013 C 
BRANCH  19  20
ATOM     20  N   UNL     1      -0.341 -10.383   3.729  0.00  0.00    +0.386 N 
ATOM     21  C   UNL     1      -1.601 -10.751   3.049  0.00  0.00    -0.078 C 
ATOM     22  C   UNL     1      -2.148 -11.955   3.854  0.00  0.00    -0.020 C 
ATOM     23  C   UNL     1      -1.766 -11.562   5.305  0.00  0.00    -0.020 C 
ATOM     24  C   UNL     1      -0.408 -10.851   5.126  0.00  0.00    -0.078 C 
ATOM     25  H   UNL     1       0.437 -10.823   3.261  0.00  0.00    -0.081 HD
ENDBRANCH  19  20
BRANCH  19  26
ATOM     26  C   UNL     1       1.130  -8.556   4.365  0.00  0.00    -0.022 A 
ATOM     27  C   UNL     1       1.401  -7.524   5.201  0.00  0.00    +0.009 A 
ATOM     28  C   UNL     1       2.685  -7.381   5.694  0.00  0.00    +0.008 A 
ATOM     29  C   UNL     1       3.634  -8.276   5.327  0.00  0.00    +0.045 A 
ATOM     30  S   UNL     1       2.714  -9.371   4.258  0.00  0.00    -0.103 S 
ENDBRANCH  19  26
ENDBRANCH  18  19
ENDBRANCH   3  18
TORSDOF 6
