REMARK  Name = ZINC59353275
REMARK  13 active torsions:
REMARK  status: ('A' for Active; 'I' for Inactive)
REMARK    1  A    between atoms: C_1  and  C_2
REMARK    2  A    between atoms: C_2  and  C_3
REMARK    3  A    between atoms: C_3  and  C_5
REMARK    4  A    between atoms: C_3  and  S_6
REMARK    5  A    between atoms: S_6  and  C_7
REMARK    6  A    between atoms: C_13  and  C_15
REMARK    7  A    between atoms: C_15  and  S_16
REMARK    8  A    between atoms: S_16  and  C_17
REMARK    9  A    between atoms: C_20  and  C_28
REMARK   10  A    between atoms: N_21  and  C_22
REMARK   11  A    between atoms: C_28  and  N_29
REMARK   12  A    between atoms: N_29  and  C_30
REMARK   13  A    between atoms: C_33  and  C_36
REMARK                            x       y       z     vdW  Elec       q    Type
REMARK                         _______ _______ _______ _____ _____    ______ ____
ROOT
ATOM      1  C   UNL     1       6.406  -3.305 -10.668  0.00  0.00    +0.197 A 
ATOM      2  N   UNL     1       5.735  -2.957 -11.742  0.00  0.00    -0.122 NA
ATOM      3  N   UNL     1       6.394  -3.284 -12.795  0.00  0.00    -0.132 NA
ATOM      4  C   UNL     1       7.517  -3.855 -12.463  0.00  0.00    +0.156 A 
ATOM      5  N   UNL     1       7.569  -3.885 -11.094  0.00  0.00    -0.273 N 
ENDROOT
BRANCH   5   6
ATOM      6  C   UNL     1       8.599  -4.404 -10.296  0.00  0.00    +0.050 A 
ATOM      7  C   UNL     1       9.854  -3.812 -10.308  0.00  0.00    +0.026 A 
ATOM      8  C   UNL     1      10.866  -4.325  -9.521  0.00  0.00    +0.002 A 
ATOM      9  C   UNL     1      10.630  -5.428  -8.722  0.00  0.00    +0.000 A 
ATOM     10  C   UNL     1       9.381  -6.021  -8.708  0.00  0.00    +0.002 A 
ATOM     11  C   UNL     1       8.363  -5.508  -9.488  0.00  0.00    +0.026 A 
ENDBRANCH   5   6
BRANCH   1  12
ATOM     12  S   UNL     1       5.906  -3.064  -8.996  0.00  0.00    -0.076 S 
BRANCH  12  13
ATOM     13  C   UNL     1       4.288  -2.254  -9.133  0.00  0.00    +0.173 C 
BRANCH  13  20
ATOM     14  C   UNL     1       0.774  -0.523  -4.074  0.00  0.00    +0.160 A 
ATOM     15  N   UNL     1       1.960  -1.116  -4.077  0.00  0.00    -0.133 NA
ATOM     16  N   UNL     1       2.556  -1.409  -5.149  0.00  0.00    -0.125 NA
ATOM     17  C   UNL     1       2.037  -1.143  -6.336  0.00  0.00    +0.189 A 
ATOM     18  S   UNL     1       0.494  -0.382  -5.837  0.00  0.00    -0.024 S 
ATOM     19  N   UNL     1       2.542  -1.389  -7.610  0.00  0.00    -0.263 N 
ATOM     20  C   UNL     1       3.741  -1.988  -7.755  0.00  0.00    +0.229 C 
ATOM     21  O   UNL     1       4.379  -2.312  -6.776  0.00  0.00    -0.275 OA
ATOM     22  H   UNL     1       2.032  -1.129  -8.393  0.00  0.00    +0.157 HD
BRANCH  14  23
ATOM     23  S   UNL     1      -0.239  -0.022  -2.723  0.00  0.00    -0.094 S 
BRANCH  23  24
ATOM     24  C   UNL     1       0.718  -0.497  -1.257  0.00  0.00    +0.050 C 
ATOM     25  C   UNL     1       0.849  -2.021  -1.205  0.00  0.00    +0.019 C 
BRANCH  24  27
ATOM     26  C   UNL     1      -0.019   1.526   0.010  0.00  0.00    +0.005 C 
ATOM     27  C   UNL     1       0.002  -0.004   0.002  0.00  0.00    +0.011 C 
ENDBRANCH  24  27
ENDBRANCH  23  24
ENDBRANCH  14  23
ENDBRANCH  13  20
ENDBRANCH  12  13
ENDBRANCH   1  12
BRANCH   4  28
ATOM     28  C   UNL     1       8.566  -4.381 -13.408  0.00  0.00    +0.178 C 
BRANCH  28  29
ATOM     29  N   UNL     1       9.531  -3.319 -13.705  0.00  0.00    -0.337 N 
ATOM     30  H   UNL     1       9.426  -2.442 -13.305  0.00  0.00    +0.147 HD
BRANCH  29  31
ATOM     31  C   UNL     1      10.603  -3.570 -14.565  0.00  0.00    +0.027 A 
ATOM     32  C   UNL     1      10.752  -4.824 -15.144  0.00  0.00    +0.023 A 
ATOM     33  C   UNL     1      11.812  -5.069 -15.994  0.00  0.00    +0.005 A 
ATOM     34  C   UNL     1      12.725  -4.068 -16.269  0.00  0.00    -0.050 A 
ATOM     35  C   UNL     1      12.580  -2.818 -15.695  0.00  0.00    +0.005 A 
ATOM     36  C   UNL     1      11.519  -2.565 -14.848  0.00  0.00    +0.023 A 
ATOM     37  C   UNL     1      13.882  -4.339 -17.197  0.00  0.00    +0.044 C 
ENDBRANCH  29  31
ENDBRANCH  28  29
ENDBRANCH   4  28
TORSDOF 10
