REMARK  Name = ZINC20589926
REMARK  4 active torsions:
REMARK  status: ('A' for Active; 'I' for Inactive)
REMARK    1  A    between atoms: C_3  and  C_6
REMARK    2  A    between atoms: N_8  and  C_9
REMARK    3  A    between atoms: C_9  and  C_10
REMARK    4  A    between atoms: C_10  and  C_11
REMARK                            x       y       z     vdW  Elec       q    Type
REMARK                         _______ _______ _______ _____ _____    ______ ____
ROOT
ATOM      1  C   UNL     1       8.451   0.351  -0.077  0.00  0.00    +0.217 C 
ATOM      2  O   UNL     1       8.734   1.530  -0.073  0.00  0.00    -0.276 OA
ATOM      3  N   UNL     1       9.429  -0.576  -0.091  0.00  0.00    -0.301 N 
ATOM      4  C   UNL     1       9.103  -2.009  -0.102  0.00  0.00    +0.110 C 
ATOM      5  C   UNL     1       9.823  -2.669  -1.282  0.00  0.00    +0.047 C 
ATOM      6  C   UNL     1      11.319  -2.364  -1.199  0.00  0.00    +0.064 C 
ATOM      7  C   UNL     1      11.544  -0.854  -1.276  0.00  0.00    +0.047 C 
ATOM      8  C   UNL     1      10.842  -0.174  -0.102  0.00  0.00    +0.110 C 
ATOM      9  C   UNL     1      12.038  -3.043  -2.337  0.00  0.00    +0.057 A 
ATOM     10  C   UNL     1      13.204  -3.711  -2.183  0.00  0.00    +0.039 A 
ATOM     11  N   UNL     1      13.556  -4.190  -3.404  0.00  0.00    -0.349 N 
ATOM     12  H   UNL     1      14.345  -4.713  -3.613  0.00  0.00    +0.166 HD
ATOM     13  C   UNL     1      12.595  -3.800  -4.274  0.00  0.00    +0.171 A 
ATOM     14  N   UNL     1      11.691  -3.113  -3.623  0.00  0.00    -0.348 N 
ATOM     15  C   UNL     1      13.915  -3.847  -0.861  0.00  0.00    +0.070 C 
ATOM     16  C   UNL     1      13.326  -2.805   0.100  0.00  0.00    +0.088 C 
ATOM     17  N   UNL     1      11.858  -2.879   0.069  0.00  0.00    -0.305 NA
ATOM     18  H   UNL     1      11.454  -2.395   0.857  0.00  0.00    +0.123 HD
ATOM     19  H   UNL     1      10.896  -2.717  -4.013  0.00  0.00    +0.166 HD
ENDROOT
BRANCH   1  20
ATOM     20  C   UNL     1       7.006  -0.078  -0.065  0.00  0.00    +0.114 C 
BRANCH  20  21
ATOM     21  C   UNL     1       6.107   1.160  -0.050  0.00  0.00    +0.113 C 
BRANCH  21  24
ATOM     22  C   UNL     1       3.725   1.670  -0.025  0.00  0.00    +0.251 C 
ATOM     23  O   UNL     1       4.008   2.853  -0.021  0.00  0.00    -0.270 OA
ATOM     24  N   UNL     1       4.703   0.743  -0.039  0.00  0.00    -0.310 N 
ATOM     25  H   UNL     1       4.477  -0.201  -0.042  0.00  0.00    +0.149 HD
BRANCH  22  28
ATOM     26  C   UNL     1      -0.016   1.352   0.009  0.00  0.00    +0.008 A 
ATOM     27  C   UNL     1       1.175   2.036   0.002  0.00  0.00    +0.021 A 
ATOM     28  C   UNL     1       2.320   1.253  -0.013  0.00  0.00    +0.074 A 
ATOM     29  S   UNL     1       1.636  -0.394  -0.016  0.00  0.00    -0.092 S 
ATOM     30  C   UNL     1       0.002  -0.004   0.002  0.00  0.00    +0.046 A 
ENDBRANCH  22  28
ENDBRANCH  21  24
ENDBRANCH  20  21
ENDBRANCH   1  20
TORSDOF 4
