REMARK  Name = ZINC67265174
REMARK  8 active torsions:
REMARK  status: ('A' for Active; 'I' for Inactive)
REMARK    1  A    between atoms: C_1  and  C_2
REMARK    2  A    between atoms: C_2  and  C_3
REMARK    3  A    between atoms: C_2  and  C_4
REMARK    4  A    between atoms: C_4  and  N_5
REMARK    5  A    between atoms: C_8  and  N_11
REMARK    6  A    between atoms: C_12  and  C_14
REMARK    7  A    between atoms: N_16  and  C_23
REMARK    8  A    between atoms: C_17  and  C_20
REMARK                            x       y       z     vdW  Elec       q    Type
REMARK                         _______ _______ _______ _____ _____    ______ ____
ROOT
ATOM      1  C   UNL     1      -5.982  -0.289  -6.560  0.00  0.00    +0.123 C 
ATOM      2  N   UNL     1      -5.561   0.711  -7.266  0.00  0.00    -0.178 NA
ATOM      3  N   UNL     1      -6.352   0.992  -8.379  0.00  0.00    -0.212 N 
ATOM      4  C   UNL     1      -7.470   0.036  -8.423  0.00  0.00    +0.189 C 
ATOM      5  C   UNL     1      -7.234  -0.857  -7.189  0.00  0.00    +0.096 C 
ENDROOT
BRANCH   3   6
ATOM      6  C   UNL     1      -6.121   2.014  -9.302  0.00  0.00    +0.053 A 
ATOM      7  C   UNL     1      -6.991   2.197 -10.370  0.00  0.00    +0.028 A 
ATOM      8  C   UNL     1      -6.761   3.209 -11.281  0.00  0.00    +0.040 A 
ATOM      9  C   UNL     1      -5.665   4.042 -11.130  0.00  0.00    +0.124 A 
ATOM     10  C   UNL     1      -4.797   3.862 -10.066  0.00  0.00    +0.040 A 
ATOM     11  C   UNL     1      -5.025   2.855  -9.149  0.00  0.00    +0.028 A 
ATOM     12  F   UNL     1      -5.441   5.031 -12.023  0.00  0.00    -0.205 F 
ENDBRANCH   3   6
BRANCH   4  13
ATOM     13  C   UNL     1      -7.416  -0.784  -9.686  0.00  0.00    +0.233 C 
ATOM     14  O   UNL     1      -6.385  -0.854 -10.320  0.00  0.00    -0.274 OA
ATOM     15  N   UNL     1      -8.515  -1.440 -10.111  0.00  0.00    -0.328 N 
ATOM     16  H   UNL     1      -9.339  -1.383  -9.604  0.00  0.00    +0.145 HD
ATOM     17  H   UNL     1      -8.480  -1.967 -10.924  0.00  0.00    +0.145 HD
ENDBRANCH   4  13
BRANCH   1  19
ATOM     18  N   UNL     1      -4.224  -0.205  -4.878  0.00  0.00    -0.308 N 
ATOM     19  C   UNL     1      -5.342  -0.795  -5.346  0.00  0.00    +0.260 C 
ATOM     20  O   UNL     1      -5.819  -1.748  -4.759  0.00  0.00    -0.269 OA
ATOM     21  H   UNL     1      -3.844   0.555  -5.346  0.00  0.00    +0.149 HD
BRANCH  18  25
ATOM     22  N   UNL     1      -2.107  -0.147  -1.234  0.00  0.00    +0.380 N 
ATOM     23  C   UNL     1      -1.450  -0.807  -2.369  0.00  0.00    -0.077 C 
ATOM     24  C   UNL     1      -2.096  -0.345  -3.676  0.00  0.00    +0.003 C 
ATOM     25  C   UNL     1      -3.583  -0.712  -3.662  0.00  0.00    +0.070 C 
ATOM     26  C   UNL     1      -4.243  -0.079  -2.434  0.00  0.00    +0.003 C 
ATOM     27  C   UNL     1      -3.517  -0.551  -1.172  0.00  0.00    -0.077 C 
ATOM     28  H   UNL     1      -2.050   0.853  -1.350  0.00  0.00    -0.082 HD
BRANCH  22  29
ATOM     29  C   UNL     1      -1.433  -0.534   0.013  0.00  0.00    -0.076 C 
BRANCH  29  31
ATOM     30  C   UNL     1      -0.019   1.526   0.010  0.00  0.00    +0.005 C 
ATOM     31  C   UNL     1       0.002  -0.004   0.002  0.00  0.00    -0.034 C 
ATOM     32  C   UNL     1       0.742  -0.511   1.242  0.00  0.00    +0.005 C 
ENDBRANCH  29  31
ENDBRANCH  22  29
ENDBRANCH  18  25
ENDBRANCH   1  19
TORSDOF 6
