REMARK  Name = ZINC38049775
REMARK  7 active torsions:
REMARK  status: ('A' for Active; 'I' for Inactive)
REMARK    1  A    between atoms: C_1  and  C_2
REMARK    2  A    between atoms: C_2  and  C_3
REMARK    3  A    between atoms: C_3  and  C_4
REMARK    4  A    between atoms: C_4  and  C_5
REMARK    5  A    between atoms: C_8  and  C_11
REMARK    6  A    between atoms: N_13  and  C_14
REMARK    7  A    between atoms: C_20  and  N_22
REMARK                            x       y       z     vdW  Elec       q    Type
REMARK                         _______ _______ _______ _____ _____    ______ ____
ROOT
ATOM      1  C   UNL     1       0.123  -4.757  -4.894  0.00  0.00    +0.216 C 
ATOM      2  O   UNL     1      -0.862  -4.050  -4.884  0.00  0.00    -0.276 OA
ATOM      3  N   UNL     1      -0.009  -6.097  -4.839  0.00  0.00    -0.314 N 
ATOM      4  H   UNL     1       0.780  -6.663  -4.847  0.00  0.00    +0.149 HD
ENDROOT
BRANCH   1   8
ATOM      5  C   UNL     1       1.455  -2.521  -2.524  0.00  0.00    -0.011 C 
ATOM      6  C   UNL     1       0.648  -2.120  -3.760  0.00  0.00    +0.004 C 
ATOM      7  C   UNL     1       1.364  -2.614  -5.019  0.00  0.00    +0.013 C 
ATOM      8  C   UNL     1       1.495  -4.137  -4.967  0.00  0.00    +0.075 C 
ATOM      9  C   UNL     1       2.302  -4.538  -3.731  0.00  0.00    +0.013 C 
ATOM     10  C   UNL     1       1.586  -4.044  -2.472  0.00  0.00    +0.004 C 
BRANCH   5  11
ATOM     11  C   UNL     1       0.739  -2.027  -1.265  0.00  0.00    +0.003 C 
BRANCH  11  12
ATOM     12  C   UNL     1       0.718  -0.497  -1.257  0.00  0.00    +0.000 C 
BRANCH  12  14
ATOM     13  C   UNL     1      -0.019   1.526   0.010  0.00  0.00    +0.004 C 
ATOM     14  C   UNL     1       0.002  -0.004   0.002  0.00  0.00    -0.003 C 
ENDBRANCH  12  14
ENDBRANCH  11  12
ENDBRANCH   5  11
ENDBRANCH   1   8
BRANCH   3  15
ATOM     15  C   UNL     1      -1.342  -6.700  -4.768  0.00  0.00    +0.058 C 
ATOM     16  C   UNL     1      -1.911  -6.848  -6.181  0.00  0.00    +0.020 C 
ATOM     17  C   UNL     1      -0.989  -7.745  -7.010  0.00  0.00    +0.002 C 
ATOM     18  C   UNL     1      -0.891  -9.123  -6.351  0.00  0.00    -0.001 C 
ATOM     19  C   UNL     1      -0.323  -8.975  -4.939  0.00  0.00    -0.014 C 
ATOM     20  C   UNL     1      -1.244  -8.078  -4.110  0.00  0.00    -0.055 C 
BRANCH  20  21
ATOM     21  N   UNL     1      -0.698  -7.935  -2.754  0.00  0.00    +0.381 N 
ATOM     22  H   UNL     1      -1.306  -7.343  -2.207  0.00  0.00    -0.090 HD
ATOM     23  H   UNL     1      -0.634  -8.844  -2.320  0.00  0.00    -0.090 HD
ATOM     24  H   UNL     1       0.220  -7.520  -2.803  0.00  0.00    -0.090 HD
ENDBRANCH  20  21
ENDBRANCH   3  15
TORSDOF 6
