REMARK  Name = ZINC63558226
REMARK  9 active torsions:
REMARK  status: ('A' for Active; 'I' for Inactive)
REMARK    1  A    between atoms: C_1  and  C_2
REMARK    2  A    between atoms: C_3  and  C_18
REMARK    3  A    between atoms: C_5  and  C_8
REMARK    4  A    between atoms: C_11  and  O_16
REMARK    5  A    between atoms: C_13  and  O_14
REMARK    6  A    between atoms: O_14  and  C_15
REMARK    7  A    between atoms: O_16  and  C_17
REMARK    8  A    between atoms: C_18  and  S_19
REMARK    9  A    between atoms: S_19  and  C_20
REMARK                            x       y       z     vdW  Elec       q    Type
REMARK                         _______ _______ _______ _____ _____    ______ ____
ROOT
ATOM      1  C   UNL     1      -0.013   1.086   0.008  0.00  0.00    +0.044 C 
ATOM      2  C   UNL     1      -0.753   1.593  -1.232  0.00  0.00    +0.163 C 
ATOM      3  C   UNL     1      -0.107   1.052  -2.488  0.00  0.00    +0.055 C 
ATOM      4  N   UNL     1      -1.030   0.652  -3.280  0.00  0.00    -0.254 NA
ATOM      5  C   UNL     1      -2.343   0.875  -2.664  0.00  0.00    +0.270 C 
ATOM      6  O   UNL     1      -2.099   1.077  -1.258  0.00  0.00    -0.342 OA
ENDROOT
BRANCH   5   7
ATOM      7  C   UNL     1      -3.223  -0.330  -2.871  0.00  0.00    +0.045 A 
ATOM      8  C   UNL     1      -2.672  -1.523  -3.298  0.00  0.00    +0.015 A 
ATOM      9  C   UNL     1      -3.477  -2.630  -3.489  0.00  0.00    +0.046 A 
ATOM     10  C   UNL     1      -4.842  -2.546  -3.251  0.00  0.00    +0.124 A 
ATOM     11  C   UNL     1      -5.397  -1.351  -2.822  0.00  0.00    +0.091 A 
ATOM     12  C   UNL     1      -4.586  -0.243  -2.626  0.00  0.00    +0.131 A 
BRANCH  12  13
ATOM     13  O   UNL     1      -5.127   0.929  -2.200  0.00  0.00    -0.495 OA
ATOM     14  C   UNL     1      -6.537   0.946  -1.968  0.00  0.00    +0.277 C 
ENDBRANCH  12  13
BRANCH  10  15
ATOM     15  O   UNL     1      -5.633  -3.635  -3.438  0.00  0.00    -0.495 OA
ATOM     16  C   UNL     1      -4.993  -4.833  -3.882  0.00  0.00    +0.277 C 
ENDBRANCH  10  15
ENDBRANCH   5   7
BRANCH   3  17
ATOM     17  C   UNL     1       1.374   0.995  -2.762  0.00  0.00    +0.126 C 
BRANCH  17  18
ATOM     18  S   UNL     1       1.658   0.266  -4.398  0.00  0.00    -0.109 S 
BRANCH  18  19
ATOM     19  C   UNL     1       3.464   0.269  -4.572  0.00  0.00    +0.237 C 
ATOM     20  N   UNL     1       3.978   1.640  -4.469  0.00  0.00    -0.354 N 
ATOM     21  C   UNL     1       4.781   1.679  -3.449  0.00  0.00    +0.080 A 
ATOM     22  C   UNL     1       5.588   2.758  -2.849  0.00  0.00    +0.030 A 
ATOM     23  C   UNL     1       6.335   2.453  -1.762  0.00  0.00    +0.022 A 
ATOM     24  C   UNL     1       6.334   1.150  -1.230  0.00  0.00    +0.113 A 
ATOM     25  N   UNL     1       5.637   0.171  -1.729  0.00  0.00    -0.236 NA
ATOM     26  C   UNL     1       4.848   0.336  -2.814  0.00  0.00    +0.152 A 
ATOM     27  N   UNL     1       4.077  -0.487  -3.473  0.00  0.00    -0.340 N 
ATOM     28  H   UNL     1       3.935  -1.426  -3.273  0.00  0.00    +0.164 HD
ATOM     29  H   UNL     1       3.759   2.381  -5.056  0.00  0.00    +0.163 HD
ENDBRANCH  18  19
ENDBRANCH  17  18
ENDBRANCH   3  17
TORSDOF 6
