REMARK  Name = ZINC07091492
REMARK  6 active torsions:
REMARK  status: ('A' for Active; 'I' for Inactive)
REMARK    1  A    between atoms: C_1  and  C_2
REMARK    2  A    between atoms: C_2  and  C_4
REMARK    3  A    between atoms: C_2  and  N_47
REMARK    4  A    between atoms: C_10  and  C_12
REMARK    5  A    between atoms: C_10  and  C_13
REMARK    6  A    between atoms: C_10  and  N_47
REMARK                            x       y       z     vdW  Elec       q    Type
REMARK                         _______ _______ _______ _____ _____    ______ ____
ROOT
ATOM      1  N   UNL     1      -4.917   1.607  -1.192  0.00  0.00    +0.388 N 
ATOM      2  H   UNL     1      -4.585   2.567  -1.342  0.00  0.00    -0.084 HD
ATOM      3  H   UNL     1      -4.610   1.013  -1.972  0.00  0.00    -0.084 HD
ENDROOT
BRANCH   1   5
ATOM      4  C   UNL     1      -6.953   1.467  -2.546  0.00  0.00    -0.004 C 
ATOM      5  C   UNL     1      -6.391   1.606  -1.130  0.00  0.00    +0.014 C 
BRANCH   5   6
ATOM      6  C   UNL     1      -6.869   2.901  -0.525  0.00  0.00    +0.206 C 
ATOM      7  O   UNL     1      -6.066   3.738  -0.173  0.00  0.00    -0.277 OA
ATOM      8  N   UNL     1      -8.189   3.127  -0.374  0.00  0.00    -0.242 N 
ATOM      9  C   UNL     1      -8.617   4.285   0.167  0.00  0.00    +0.303 C 
ATOM     10  O   UNL     1      -7.812   5.125   0.520  0.00  0.00    -0.253 OA
ATOM     11  N   UNL     1      -9.937   4.511   0.317  0.00  0.00    -0.313 N 
ATOM     12  H   UNL     1      -8.831   2.457  -0.656  0.00  0.00    +0.159 HD
ATOM     13  H   UNL     1     -10.579   3.841   0.036  0.00  0.00    +0.146 HD
ATOM     14  H   UNL     1     -10.245   5.345   0.707  0.00  0.00    +0.146 HD
ENDBRANCH   5   6
ENDBRANCH   1   5
BRANCH   1  15
ATOM     15  C   UNL     1      -4.351   1.087   0.067  0.00  0.00    -0.068 C 
ATOM     16  C   UNL     1      -4.310  -0.441   0.016  0.00  0.00    -0.013 C 
BRANCH  15  17
ATOM     17  C   UNL     1      -2.931   1.630   0.241  0.00  0.00    -0.041 C 
ATOM     18  C   UNL     1      -2.066   1.182  -0.939  0.00  0.00    +0.009 C 
ATOM     19  C   UNL     1      -0.645   1.724  -0.765  0.00  0.00    -0.010 C 
ATOM     20  C   UNL     1      -0.050   1.187   0.538  0.00  0.00    +0.007 C 
ATOM     21  C   UNL     1      -0.915   1.635   1.717  0.00  0.00    -0.010 C 
ATOM     22  C   UNL     1      -2.335   1.092   1.544  0.00  0.00    +0.009 C 
ATOM     23  C   UNL     1      -0.956   3.163   1.768  0.00  0.00    +0.007 C 
ATOM     24  C   UNL     1      -1.552   3.701   0.465  0.00  0.00    -0.010 C 
ATOM     25  C   UNL     1      -0.686   3.253  -0.714  0.00  0.00    +0.007 C 
ATOM     26  C   UNL     1      -2.971   3.159   0.291  0.00  0.00    +0.009 C 
ENDBRANCH  15  17
ENDBRANCH   1  15
TORSDOF 4
