REMARK  Name = ZINC39469600
REMARK  6 active torsions:
REMARK  status: ('A' for Active; 'I' for Inactive)
REMARK    1  A    between atoms: C_4  and  C_7
REMARK    2  A    between atoms: C_7  and  C_8
REMARK    3  A    between atoms: P_17  and  S_27
REMARK    4  A    between atoms: C_25  and  O_26
REMARK    5  A    between atoms: S_27  and  O_30
REMARK    6  A    between atoms: O_30  and  C_31
REMARK                            x       y       z     vdW  Elec       q    Type
REMARK                         _______ _______ _______ _____ _____    ______ ____
ROOT
ATOM      1  C   UNL     1       4.164  -0.959   1.377  0.00  0.00    -0.006 C 
ATOM      2  C   UNL     1       3.894  -2.119   1.971  0.00  0.00    -0.016 C 
ATOM      3  C   UNL     1       4.345  -2.349   3.389  0.00  0.00    +0.016 C 
ATOM      4  C   UNL     1       3.494  -3.425   4.052  0.00  0.00    -0.003 C 
ATOM      5  C   UNL     1       2.039  -2.961   4.186  0.00  0.00    -0.020 C 
ATOM      6  C   UNL     1       1.269  -4.089   4.885  0.00  0.00    +0.158 C 
ATOM      7  O   UNL     1      -0.120  -3.727   4.995  0.00  0.00    -0.301 OA
ATOM      8  P   UNL     1      -0.472  -2.266   5.619  0.00  0.00    +0.431 P 
ATOM      9  O   UNL     1      -0.398  -2.307   7.096  0.00  0.00    -0.246 OA
ATOM     10  N   UNL     1       0.679  -1.250   5.016  0.00  0.00    -0.271 NA
ATOM     11  N   UNL     1       1.976  -1.715   4.955  0.00  0.00    +0.398 N 
ATOM     12  C   UNL     1       2.752  -0.660   4.284  0.00  0.00    -0.046 C 
ATOM     13  C   UNL     1       4.210  -1.049   4.186  0.00  0.00    +0.008 C 
ATOM     14  C   UNL     1       4.939   0.051   3.450  0.00  0.00    +0.021 C 
ATOM     15  C   UNL     1       4.917   0.075   2.113  0.00  0.00    +0.116 C 
ATOM     16  H   UNL     1       0.451  -0.356   4.717  0.00  0.00    +0.113 HD
ATOM     17  H   UNL     1       2.329  -1.873   5.887  0.00  0.00    -0.055 HD
ENDROOT
BRANCH   8  18
ATOM     18  S   UNL     1      -2.403  -1.648   4.998  0.00  0.00    +0.209 S 
ATOM     19  O   UNL     1      -2.688  -0.444   5.696  0.00  0.00    -0.126 OA
ATOM     20  O   UNL     1      -2.418  -1.728   3.579  0.00  0.00    -0.126 OA
BRANCH  18  21
ATOM     21  O   UNL     1      -3.393  -2.688   5.503  0.00  0.00    -0.339 OA
BRANCH  21  22
ATOM     22  C   UNL     1      -3.640  -2.613   6.837  0.00  0.00    +0.157 A 
ATOM     23  C   UNL     1      -2.857  -3.330   7.730  0.00  0.00    +0.048 A 
ATOM     24  C   UNL     1      -3.111  -3.252   9.086  0.00  0.00    +0.004 A 
ATOM     25  C   UNL     1      -4.144  -2.461   9.553  0.00  0.00    +0.000 A 
ATOM     26  C   UNL     1      -4.926  -1.746   8.665  0.00  0.00    +0.004 A 
ATOM     27  C   UNL     1      -4.673  -1.816   7.309  0.00  0.00    +0.048 A 
ENDBRANCH  21  22
ENDBRANCH  18  21
ENDBRANCH   8  18
BRANCH  15  28
ATOM     28  O   UNL     1       5.579   1.049   1.435  0.00  0.00    -0.507 OA
ATOM     29  H   UNL     1       6.042   1.679   2.004  0.00  0.00    +0.292 HD
ENDBRANCH  15  28
BRANCH   1  30
ATOM     30  C   UNL     1       3.711  -0.707  -0.038  0.00  0.00    +0.073 C 
BRANCH  30  34
ATOM     31  C   UNL     1      -0.017   1.378   0.010  0.00  0.00    +0.000 A 
ATOM     32  C   UNL     1       1.171   2.086   0.002  0.00  0.00    +0.000 A 
ATOM     33  C   UNL     1       2.377   1.411  -0.013  0.00  0.00    +0.004 A 
ATOM     34  C   UNL     1       2.396   0.029  -0.020  0.00  0.00    -0.043 A 
ATOM     35  C   UNL     1       1.208  -0.679  -0.012  0.00  0.00    +0.004 A 
ATOM     36  C   UNL     1       0.002  -0.004   0.002  0.00  0.00    +0.000 A 
ENDBRANCH  30  34
ENDBRANCH   1  30
TORSDOF 6
