REMARK  Name = ZINC09819172
REMARK  10 active torsions:
REMARK  status: ('A' for Active; 'I' for Inactive)
REMARK    1  A    between atoms: C_1  and  C_2
REMARK    2  A    between atoms: C_2  and  C_3
REMARK    3  A    between atoms: C_5  and  C_29
REMARK    4  A    between atoms: C_6  and  C_11
REMARK    5  A    between atoms: C_11  and  S_12
REMARK    6  A    between atoms: S_12  and  C_13
REMARK    7  A    between atoms: C_19  and  C_24
REMARK    8  A    between atoms: C_29  and  O_31
REMARK    9  A    between atoms: O_31  and  C_32
REMARK   10  A    between atoms: C_32  and  C_33
REMARK                            x       y       z     vdW  Elec       q    Type
REMARK                         _______ _______ _______ _____ _____    ______ ____
ROOT
ATOM      1  C   UNL     1       3.333  -4.063  -0.089  0.00  0.00    +0.128 C 
ENDROOT
BRANCH   1   4
ATOM      2  C   UNL     1       5.078  -7.307   1.047  0.00  0.00    +0.113 C 
ATOM      3  C   UNL     1       4.313  -6.000   1.088  0.00  0.00    +0.074 C 
ATOM      4  C   UNL     1       4.094  -5.364  -0.083  0.00  0.00    +0.034 C 
ATOM      5  N   UNL     1       4.554  -5.877  -1.262  0.00  0.00    -0.272 N 
ATOM      6  C   UNL     1       5.239  -7.024  -1.355  0.00  0.00    +0.304 C 
ATOM      7  O   UNL     1       5.609  -7.401  -2.449  0.00  0.00    -0.253 OA
ATOM      8  N   UNL     1       5.531  -7.775  -0.274  0.00  0.00    -0.292 N 
ATOM      9  H   UNL     1       4.376  -5.383  -2.077  0.00  0.00    +0.156 HD
ATOM     10  H   UNL     1       6.028  -8.602  -0.364  0.00  0.00    +0.151 HD
BRANCH   2  12
ATOM     11  C   UNL     1       5.027  -9.650   1.913  0.00  0.00    +0.006 C 
ATOM     12  C   UNL     1       4.190  -8.396   1.654  0.00  0.00    +0.024 C 
ENDBRANCH   2  12
BRANCH   3  13
ATOM     13  C   UNL     1       3.841  -5.466   2.310  0.00  0.00    +0.338 C 
ATOM     14  O   UNL     1       4.604  -4.874   3.050  0.00  0.00    -0.245 OA
BRANCH  13  15
ATOM     15  O   UNL     1       2.545  -5.613   2.655  0.00  0.00    -0.462 OA
BRANCH  15  16
ATOM     16  C   UNL     1       2.138  -5.049   3.903  0.00  0.00    +0.229 C 
ATOM     17  C   UNL     1       0.647  -5.314   4.120  0.00  0.00    +0.048 C 
ENDBRANCH  15  16
ENDBRANCH  13  15
ENDBRANCH   3  13
ENDBRANCH   1   4
BRANCH   1  18
ATOM     18  S   UNL     1       4.487  -2.690  -0.334  0.00  0.00    -0.082 S 
BRANCH  18  19
ATOM     19  C   UNL     1       3.362  -1.334  -0.299  0.00  0.00    +0.170 A 
ATOM     20  N   UNL     1       3.833  -0.063  -0.454  0.00  0.00    -0.301 N 
ATOM     21  H   UNL     1       4.785   0.080  -0.581  0.00  0.00    +0.171 HD
ATOM     22  C   UNL     1       3.004   0.996  -0.433  0.00  0.00    +0.261 A 
ATOM     23  O   UNL     1       3.441   2.125  -0.573  0.00  0.00    -0.267 OA
ATOM     24  C   UNL     1       1.604   0.781  -0.244  0.00  0.00    +0.080 A 
ATOM     25  C   UNL     1       0.521   1.758  -0.186  0.00  0.00    +0.010 A 
ATOM     26  C   UNL     1      -0.746   1.315   0.003  0.00  0.00    +0.057 A 
ATOM     27  S   UNL     1      -0.554  -0.453   0.113  0.00  0.00    -0.076 S 
ATOM     28  C   UNL     1       1.205  -0.559  -0.094  0.00  0.00    +0.117 A 
ATOM     29  N   UNL     1       2.076  -1.561  -0.125  0.00  0.00    -0.216 NA
BRANCH  25  30
ATOM     30  C   UNL     1       0.800   3.202  -0.330  0.00  0.00    +0.021 A 
ATOM     31  C   UNL     1       0.199   4.120  -1.149  0.00  0.00    +0.016 A 
ATOM     32  C   UNL     1       0.634   5.428  -1.110  0.00  0.00    +0.008 A 
ATOM     33  C   UNL     1       1.641   5.765  -0.265  0.00  0.00    +0.046 A 
ATOM     34  S   UNL     1       2.005   4.205   0.524  0.00  0.00    -0.097 S 
ENDBRANCH  25  30
ENDBRANCH  18  19
ENDBRANCH   1  18
TORSDOF 8
