REMARK  Name = ZINC39690204
REMARK  10 active torsions:
REMARK  status: ('A' for Active; 'I' for Inactive)
REMARK    1  A    between atoms: C_1  and  C_2
REMARK    2  A    between atoms: C_4  and  C_31
REMARK    3  A    between atoms: C_8  and  C_12
REMARK    4  A    between atoms: C_12  and  S_13
REMARK    5  A    between atoms: S_13  and  C_14
REMARK    6  A    between atoms: N_24  and  C_25
REMARK    7  A    between atoms: C_25  and  C_26
REMARK    8  A    between atoms: C_26  and  C_27
REMARK    9  A    between atoms: C_27  and  C_28
REMARK   10  A    between atoms: C_27  and  C_29
REMARK                            x       y       z     vdW  Elec       q    Type
REMARK                         _______ _______ _______ _____ _____    ______ ____
ROOT
ATOM      1  S   UNL     1       5.925  -4.026   0.324  0.00  0.00    -0.080 S 
ENDROOT
BRANCH   1   2
ATOM      2  C   UNL     1       7.082  -4.802   1.403  0.00  0.00    +0.173 A 
ATOM      3  N   UNL     1       6.910  -4.679   2.696  0.00  0.00    -0.223 NA
ATOM      4  C   UNL     1       7.757  -5.247   3.578  0.00  0.00    +0.079 A 
ATOM      5  C   UNL     1       7.574  -5.116   4.958  0.00  0.00    +0.028 A 
ATOM      6  C   UNL     1       8.457  -5.708   5.816  0.00  0.00    +0.002 A 
ATOM      7  C   UNL     1       9.537  -6.439   5.339  0.00  0.00    +0.001 A 
ATOM      8  C   UNL     1       9.743  -6.585   3.995  0.00  0.00    +0.015 A 
ATOM      9  C   UNL     1       8.857  -5.992   3.096  0.00  0.00    +0.065 A 
ATOM     10  C   UNL     1       9.028  -6.116   1.642  0.00  0.00    +0.262 A 
ATOM     11  O   UNL     1       9.955  -6.745   1.166  0.00  0.00    -0.267 OA
ATOM     12  N   UNL     1       8.113  -5.508   0.851  0.00  0.00    -0.287 N 
BRANCH  12  13
ATOM     13  C   UNL     1       8.232  -5.604  -0.606  0.00  0.00    +0.127 C 
BRANCH  13  14
ATOM     14  C   UNL     1       9.084  -4.444  -1.125  0.00  0.00    +0.025 C 
BRANCH  14  15
ATOM     15  C   UNL     1       9.208  -4.545  -2.647  0.00  0.00    -0.016 C 
ATOM     16  C   UNL     1       7.831  -4.353  -3.285  0.00  0.00    +0.007 C 
ATOM     17  C   UNL     1      10.161  -3.460  -3.153  0.00  0.00    +0.007 C 
ENDBRANCH  14  15
ENDBRANCH  13  14
ENDBRANCH  12  13
ENDBRANCH   1   2
BRANCH   1  18
ATOM     18  C   UNL     1       4.752  -3.218   1.448  0.00  0.00    +0.151 C 
BRANCH  18  25
ATOM     19  C   UNL     1      -0.019   1.526   0.010  0.00  0.00    +0.057 C 
ATOM     20  C   UNL     1       0.002  -0.004   0.002  0.00  0.00    +0.210 C 
ATOM     21  C   UNL     1       0.722  -0.505  -1.230  0.00  0.00    +0.098 C 
ATOM     22  C   UNL     1       1.782  -1.221  -0.786  0.00  0.00    +0.114 C 
ATOM     23  C   UNL     1       1.783  -1.207   0.691  0.00  0.00    +0.230 C 
ATOM     24  N   UNL     1       2.751  -1.859   1.310  0.00  0.00    -0.199 NA
ATOM     25  C   UNL     1       3.694  -2.507   0.643  0.00  0.00    +0.136 C 
ATOM     26  N   UNL     1       3.778  -2.576  -0.661  0.00  0.00    -0.160 NA
ATOM     27  C   UNL     1       2.876  -1.971  -1.456  0.00  0.00    +0.275 C 
ATOM     28  O   UNL     1       2.953  -2.035  -2.669  0.00  0.00    -0.268 OA
ATOM     29  O   UNL     1       0.733  -0.490   1.131  0.00  0.00    -0.468 OA
BRANCH  21  30
ATOM     30  C   UNL     1       0.342  -0.261  -2.642  0.00  0.00    +0.387 C 
ATOM     31  O   UNL     1       1.018  -0.729  -3.546  0.00  0.00    -0.241 OA
ATOM     32  O   UNL     1      -0.646   0.408  -2.902  0.00  0.00    -0.241 OA
ENDBRANCH  21  30
ENDBRANCH  18  25
ENDBRANCH   1  18
TORSDOF 7
