REMARK  Name = ZINC65225166
REMARK  6 active torsions:
REMARK  status: ('A' for Active; 'I' for Inactive)
REMARK    1  A    between atoms: C_1  and  C_2
REMARK    2  A    between atoms: C_5  and  S_8
REMARK    3  A    between atoms: S_8  and  N_11
REMARK    4  A    between atoms: N_24  and  C_25
REMARK    5  A    between atoms: C_25  and  C_26
REMARK    6  A    between atoms: C_26  and  C_27
REMARK                            x       y       z     vdW  Elec       q    Type
REMARK                         _______ _______ _______ _____ _____    ______ ____
ROOT
ATOM      1  N   UNL     1       1.647  -4.997   0.113  0.00  0.00    -0.172 NA
ATOM      2  C   UNL     1       2.489  -5.157  -1.084  0.00  0.00    +0.142 C 
ATOM      3  C   UNL     1       3.783  -4.365  -0.876  0.00  0.00    +0.152 C 
ATOM      4  C   UNL     1       3.474  -2.865  -0.895  0.00  0.00    +0.142 C 
ATOM      5  N   UNL     1       2.709  -2.531   0.316  0.00  0.00    -0.281 N 
ATOM      6  C   UNL     1       3.245  -2.973   1.613  0.00  0.00    +0.142 C 
ATOM      7  C   UNL     1       3.563  -4.468   1.523  0.00  0.00    +0.152 C 
ATOM      8  C   UNL     1       2.260  -5.258   1.425  0.00  0.00    +0.142 C 
ATOM      9  O   UNL     1       4.367  -4.714   0.379  0.00  0.00    -0.368 OA
ATOM     10  C   UNL     1       1.552  -1.843   0.240  0.00  0.00    +0.302 C 
ATOM     11  O   UNL     1       0.980  -1.501   1.257  0.00  0.00    -0.253 OA
ATOM     12  N   UNL     1       1.030  -1.533  -0.963  0.00  0.00    -0.299 N 
ATOM     13  H   UNL     1       1.521  -1.742  -1.773  0.00  0.00    +0.150 HD
ENDROOT
BRANCH   1  14
ATOM     14  S   UNL     1       0.063  -4.531  -0.012  0.00  0.00    +0.061 S 
ATOM     15  O   UNL     1      -0.087  -3.944  -1.298  0.00  0.00    -0.153 OA
ATOM     16  O   UNL     1      -0.251  -3.834   1.185  0.00  0.00    -0.153 OA
BRANCH  14  21
ATOM     17  C   UNL     1      -3.282  -9.553  -0.009  0.00  0.00    +0.044 C 
ATOM     18  C   UNL     1      -2.446  -8.299  -0.010  0.00  0.00    -0.050 A 
ATOM     19  C   UNL     1      -2.054  -7.729   1.187  0.00  0.00    +0.005 A 
ATOM     20  C   UNL     1      -1.288  -6.578   1.186  0.00  0.00    +0.029 A 
ATOM     21  C   UNL     1      -0.913  -5.998  -0.011  0.00  0.00    +0.105 A 
ATOM     22  C   UNL     1      -1.304  -6.569  -1.208  0.00  0.00    +0.029 A 
ATOM     23  C   UNL     1      -2.067  -7.722  -1.207  0.00  0.00    +0.005 A 
ENDBRANCH  14  21
ENDBRANCH   1  14
BRANCH  12  24
ATOM     24  C   UNL     1      -0.279  -0.882  -1.048  0.00  0.00    +0.110 C 
BRANCH  24  25
ATOM     25  C   UNL     1      -0.692  -0.755  -2.516  0.00  0.00    +0.054 C 
BRANCH  25  26
ATOM     26  C   UNL     1      -1.979   0.023  -2.611  0.00  0.00    -0.046 A 
ATOM     27  C   UNL     1      -3.192  -0.638  -2.561  0.00  0.00    +0.004 A 
ATOM     28  C   UNL     1      -4.372   0.076  -2.648  0.00  0.00    +0.000 A 
ATOM     29  C   UNL     1      -4.340   1.451  -2.784  0.00  0.00    +0.000 A 
ATOM     30  C   UNL     1      -3.127   2.112  -2.832  0.00  0.00    +0.000 A 
ATOM     31  C   UNL     1      -1.947   1.399  -2.741  0.00  0.00    +0.004 A 
ENDBRANCH  25  26
ENDBRANCH  24  25
ENDBRANCH  12  24
TORSDOF 5
