REMARK  Name = ZINC59792826
REMARK  8 active torsions:
REMARK  status: ('A' for Active; 'I' for Inactive)
REMARK    1  A    between atoms: C_5  and  C_7
REMARK    2  A    between atoms: C_7  and  C_8
REMARK    3  A    between atoms: C_8  and  N_9
REMARK    4  A    between atoms: C_10  and  C_12
REMARK    5  A    between atoms: C_12  and  S_13
REMARK    6  A    between atoms: S_13  and  C_14
REMARK    7  A    between atoms: C_17  and  C_20
REMARK    8  A    between atoms: C_23  and  N_26
REMARK                            x       y       z     vdW  Elec       q    Type
REMARK                         _______ _______ _______ _____ _____    ______ ____
ROOT
ATOM      1  S   UNL     1       1.712  -6.965   4.250  0.00  0.00    -0.077 S 
ENDROOT
BRANCH   1   2
ATOM      2  C   UNL     1       1.720  -8.718   4.073  0.00  0.00    +0.185 A 
ATOM      3  N   UNL     1       1.619  -9.381   2.941  0.00  0.00    -0.201 NA
ATOM      4  H   UNL     1       1.929  -9.423   6.021  0.00  0.00    +0.191 HD
ATOM      5  C   UNL     1       1.662 -10.699   3.185  0.00  0.00    +0.182 A 
ATOM      6  N   UNL     1       1.791 -10.888   4.479  0.00  0.00    -0.152 NA
ATOM      7  N   UNL     1       1.836  -9.617   5.075  0.00  0.00    -0.253 N 
BRANCH   5   8
ATOM      8  C   UNL     1       1.577 -11.769   2.161  0.00  0.00    +0.021 A 
ATOM      9  C   UNL     1       1.446 -11.439   0.814  0.00  0.00    +0.014 A 
ATOM     10  C   UNL     1       1.369 -12.438  -0.135  0.00  0.00    +0.033 A 
ATOM     11  C   UNL     1       1.420 -13.766   0.250  0.00  0.00    +0.126 A 
ATOM     12  C   UNL     1       1.550 -14.099   1.586  0.00  0.00    +0.033 A 
ATOM     13  C   UNL     1       1.634 -13.108   2.542  0.00  0.00    +0.014 A 
BRANCH  11  14
ATOM     14  N   UNL     1       1.335 -14.833  -0.772  0.00  0.00    +0.056 N 
ATOM     15  O   UNL     1       1.222 -14.544  -1.940  0.00  0.00    -0.126 OA
ATOM     16  O   UNL     1       1.380 -15.995  -0.438  0.00  0.00    -0.126 OA
ENDBRANCH  11  14
ENDBRANCH   5   8
ENDBRANCH   1   2
BRANCH   1  17
ATOM     17  C   UNL     1       1.538  -6.353   2.551  0.00  0.00    +0.173 C 
BRANCH  17  19
ATOM     18  N   UNL     1       1.395  -4.167   1.402  0.00  0.00    -0.314 N 
ATOM     19  C   UNL     1       1.518  -4.846   2.560  0.00  0.00    +0.223 C 
ATOM     20  O   UNL     1       1.612  -4.245   3.609  0.00  0.00    -0.275 OA
ATOM     21  H   UNL     1       1.320  -4.648   0.564  0.00  0.00    +0.149 HD
BRANCH  18  22
ATOM     22  C   UNL     1       1.376  -2.702   1.411  0.00  0.00    +0.109 C 
BRANCH  22  23
ATOM     23  C   UNL     1       1.229  -2.186  -0.022  0.00  0.00    +0.055 C 
BRANCH  23  28
ATOM     24  C   UNL     1      -0.017   1.378   0.010  0.00  0.00    +0.000 A 
ATOM     25  C   UNL     1       1.171   2.086   0.002  0.00  0.00    +0.001 A 
ATOM     26  C   UNL     1       2.377   1.412  -0.013  0.00  0.00    +0.020 A 
ATOM     27  C   UNL     1       2.397   0.029  -0.021  0.00  0.00    +0.044 A 
ATOM     28  C   UNL     1       1.208  -0.679  -0.013  0.00  0.00    -0.028 A 
ATOM     29  C   UNL     1       0.002  -0.004   0.002  0.00  0.00    +0.005 A 
ATOM     30 CL   UNL     1       3.912  -0.818  -0.041  0.00  0.00    -0.083 Cl
ENDBRANCH  23  28
ENDBRANCH  22  23
ENDBRANCH  18  22
ENDBRANCH  17  19
ENDBRANCH   1  17
TORSDOF 8
