REMARK  Name = ZINC36550405
REMARK  10 active torsions:
REMARK  status: ('A' for Active; 'I' for Inactive)
REMARK    1  A    between atoms: C_1  and  C_2
REMARK    2  A    between atoms: C_2  and  C_3
REMARK    3  A    between atoms: N_5  and  C_6
REMARK    4  A    between atoms: N_5  and  C_13
REMARK    5  A    between atoms: C_13  and  C_15
REMARK    6  A    between atoms: C_13  and  C_24
REMARK    7  A    between atoms: C_16  and  O_23
REMARK    8  A    between atoms: C_18  and  O_22
REMARK    9  A    between atoms: C_20  and  O_21
REMARK   10  A    between atoms: N_26  and  C_27
REMARK                            x       y       z     vdW  Elec       q    Type
REMARK                         _______ _______ _______ _____ _____    ______ ____
ROOT
ATOM      1  C   UNL     1       0.689  -2.767  -0.861  0.00  0.00    +0.204 C 
ENDROOT
BRANCH   1   2
ATOM      2  C   UNL     1      -0.768  -2.380  -0.857  0.00  0.00    +0.065 A 
ATOM      3  C   UNL     1      -1.133  -1.052  -1.012  0.00  0.00    +0.129 A 
ATOM      4  C   UNL     1      -2.474  -0.696  -1.008  0.00  0.00    +0.091 A 
ATOM      5  C   UNL     1      -3.449  -1.669  -0.851  0.00  0.00    +0.124 A 
ATOM      6  C   UNL     1      -3.083  -2.998  -0.697  0.00  0.00    +0.091 A 
ATOM      7  C   UNL     1      -1.743  -3.354  -0.705  0.00  0.00    +0.129 A 
BRANCH   7   8
ATOM      8  O   UNL     1      -1.385  -4.657  -0.559  0.00  0.00    -0.506 OA
ATOM      9  H   UNL     1      -1.251  -4.928   0.360  0.00  0.00    +0.292 HD
ENDBRANCH   7   8
BRANCH   5  10
ATOM     10  O   UNL     1      -4.762  -1.321  -0.846  0.00  0.00    -0.507 OA
ATOM     11  H   UNL     1      -5.174  -1.330  -1.721  0.00  0.00    +0.292 HD
ENDBRANCH   5  10
BRANCH   3  12
ATOM     12  O   UNL     1      -0.178  -0.098  -1.167  0.00  0.00    -0.506 OA
ATOM     13  H   UNL     1      -0.012   0.147  -2.087  0.00  0.00    +0.292 HD
ENDBRANCH   3  12
ENDBRANCH   1   2
BRANCH   1  14
ATOM     14  C   UNL     1       1.333  -2.312   0.423  0.00  0.00    +0.239 C 
ATOM     15  O   UNL     1       1.770  -1.184   0.516  0.00  0.00    -0.273 OA
ATOM     16  N   UNL     1       1.422  -3.158   1.469  0.00  0.00    -0.311 N 
ATOM     17  H   UNL     1       1.072  -4.059   1.394  0.00  0.00    +0.149 HD
BRANCH  16  18
ATOM     18  C   UNL     1       2.048  -2.716   2.717  0.00  0.00    +0.073 C 
ATOM     19  C   UNL     1       3.563  -2.904   2.623  0.00  0.00    +0.022 C 
ATOM     20  C   UNL     1       4.217  -2.443   3.927  0.00  0.00    +0.002 C 
ATOM     21  C   UNL     1       3.671  -3.271   5.092  0.00  0.00    +0.000 C 
ATOM     22  C   UNL     1       2.156  -3.082   5.186  0.00  0.00    +0.002 C 
ATOM     23  C   UNL     1       1.502  -3.544   3.882  0.00  0.00    +0.022 C 
ENDBRANCH  16  18
ENDBRANCH   1  14
BRANCH   1  26
ATOM     24  C   UNL     1       0.894  -2.316  -3.247  0.00  0.00    +0.220 C 
ATOM     25  O   UNL     1       1.480  -1.832  -4.192  0.00  0.00    -0.275 OA
ATOM     26  N   UNL     1       1.360  -2.129  -1.996  0.00  0.00    -0.254 N 
BRANCH  26  27
ATOM     27  C   UNL     1       2.486  -1.324  -1.782  0.00  0.00    +0.056 A 
ATOM     28  C   UNL     1       2.377   0.058  -1.855  0.00  0.00    +0.025 A 
ATOM     29  C   UNL     1       3.489   0.849  -1.642  0.00  0.00    +0.002 A 
ATOM     30  C   UNL     1       4.710   0.266  -1.358  0.00  0.00    +0.002 A 
ATOM     31  C   UNL     1       4.823  -1.110  -1.285  0.00  0.00    +0.022 A 
ATOM     32  C   UNL     1       3.713  -1.907  -1.491  0.00  0.00    +0.062 A 
ATOM     33 CL   UNL     1       3.853  -3.635  -1.392  0.00  0.00    -0.082 Cl
ENDBRANCH  26  27
BRANCH  24  35
ATOM     34  C   UNL     1      -0.510  -3.424  -4.965  0.00  0.00    +0.013 C 
ATOM     35  C   UNL     1      -0.355  -3.128  -3.472  0.00  0.00    +0.093 C 
ENDBRANCH  24  35
ENDBRANCH   1  26
TORSDOF 9
