REMARK  Name = ZINC23005184
REMARK  6 active torsions:
REMARK  status: ('A' for Active; 'I' for Inactive)
REMARK    1  A    between atoms: C_1  and  C_2
REMARK    2  A    between atoms: C_2  and  C_4
REMARK    3  A    between atoms: C_2  and  N_19
REMARK    4  A    between atoms: N_6  and  C_7
REMARK    5  A    between atoms: C_8  and  C_17
REMARK    6  A    between atoms: C_25  and  C_27
REMARK                            x       y       z     vdW  Elec       q    Type
REMARK                         _______ _______ _______ _____ _____    ______ ____
ROOT
ATOM      1  C   UNL     1       5.359   2.184   2.510  0.00  0.00    -0.004 C 
ATOM      2  C   UNL     1       6.079   2.708   1.265  0.00  0.00    +0.017 C 
ENDROOT
BRANCH   2   3
ATOM      3  N   UNL     1       5.254   2.448   0.077  0.00  0.00    +0.389 N 
ATOM      4  C   UNL     1       5.942   2.882  -1.146  0.00  0.00    -0.058 C 
ATOM      5  C   UNL     1       4.984   2.764  -2.336  0.00  0.00    +0.089 C 
ATOM      6  N   UNL     1       4.454   1.392  -2.374  0.00  0.00    -0.301 N 
ATOM      7  C   UNL     1       3.866   0.839  -1.145  0.00  0.00    +0.089 C 
ATOM      8  C   UNL     1       4.874   1.031  -0.000  0.00  0.00    -0.058 C 
ATOM      9  C   UNL     1       4.501   0.664  -3.507  0.00  0.00    +0.246 C 
ATOM     10  O   UNL     1       4.934   1.158  -4.530  0.00  0.00    -0.270 OA
ATOM     11  H   UNL     1       4.330   3.038   0.169  0.00  0.00    -0.081 HD
BRANCH   9  12
ATOM     12  C   UNL     1       4.021  -0.734  -3.508  0.00  0.00    +0.037 A 
ATOM     13  C   UNL     1       2.959  -1.111  -2.683  0.00  0.00    +0.014 A 
ATOM     14  C   UNL     1       2.512  -2.415  -2.691  0.00  0.00    +0.021 A 
ATOM     15  C   UNL     1       3.121  -3.353  -3.508  0.00  0.00    +0.041 A 
ATOM     16  C   UNL     1       4.178  -2.987  -4.324  0.00  0.00    +0.021 A 
ATOM     17  C   UNL     1       4.631  -1.685  -4.329  0.00  0.00    +0.014 A 
ATOM     18 CL   UNL     1       2.557  -4.995  -3.509  0.00  0.00    -0.084 Cl
ENDBRANCH   9  12
ENDBRANCH   2   3
BRANCH   2  19
ATOM     19  C   UNL     1       6.307   4.191   1.403  0.00  0.00    +0.204 C 
ATOM     20  O   UNL     1       5.495   4.974   0.958  0.00  0.00    -0.277 OA
ATOM     21  N   UNL     1       7.414   4.647   2.022  0.00  0.00    -0.280 N 
ATOM     22  H   UNL     1       8.151   3.937   2.426  0.00  0.00    +0.155 HD
BRANCH  21  23
ATOM     23  C   UNL     1       7.625   6.013   2.149  0.00  0.00    +0.090 A 
ATOM     24  C   UNL     1       8.690   6.668   2.746  0.00  0.00    +0.084 A 
ATOM     25  C   UNL     1       8.676   8.124   2.747  0.00  0.00    -0.018 A 
ATOM     26  C   UNL     1       7.596   8.683   2.159  0.00  0.00    -0.004 A 
ATOM     27  S   UNL     1       6.624   7.313   1.595  0.00  0.00    -0.077 S 
ATOM     28  C   UNL     1       7.283  10.140   2.014  0.00  0.00    +0.043 C 
ATOM     29  C   UNL     1       8.516  10.868   1.462  0.00  0.00    +0.005 C 
ATOM     30  C   UNL     1       9.378  11.319   2.638  0.00  0.00    +0.001 C 
ATOM     31  C   UNL     1       9.272  10.315   3.783  0.00  0.00    +0.005 C 
ATOM     32  C   UNL     1       9.803   8.953   3.350  0.00  0.00    +0.037 C 
BRANCH  24  33
ATOM     33  C   UNL     1       9.768   5.938   3.341  0.00  0.00    +0.102 C 
ATOM     34  N   UNL     1      10.624   5.359   3.813  0.00  0.00    -0.191 NA
ENDBRANCH  24  33
ENDBRANCH  21  23
ENDBRANCH   2  19
TORSDOF 5
