REMARK  Name = ZINC67396236
REMARK  7 active torsions:
REMARK  status: ('A' for Active; 'I' for Inactive)
REMARK    1  A    between atoms: C_1  and  C_2
REMARK    2  A    between atoms: C_12  and  C_14
REMARK    3  A    between atoms: N_16  and  C_17
REMARK    4  A    between atoms: C_17  and  C_19
REMARK    5  A    between atoms: C_17  and  C_20
REMARK    6  A    between atoms: C_20  and  C_21
REMARK    7  A    between atoms: C_24  and  O_27
REMARK                            x       y       z     vdW  Elec       q    Type
REMARK                         _______ _______ _______ _____ _____    ______ ____
ROOT
ATOM      1  C   UNL     1      -0.651  -4.081  -2.395  0.00  0.00    +0.300 C 
ATOM      2  O   UNL     1      -0.666  -2.868  -2.385  0.00  0.00    -0.265 OA
ATOM      3  N   UNL     1      -1.021  -4.750  -3.505  0.00  0.00    -0.305 N 
ATOM      4  H   UNL     1      -1.009  -5.720  -3.513  0.00  0.00    +0.149 HD
ENDROOT
BRANCH   1  16
ATOM      5  C   UNL     1       1.281  -6.948   4.726  0.00  0.00    +0.044 C 
ATOM      6  C   UNL     1       1.013  -6.205   3.443  0.00  0.00    -0.050 A 
ATOM      7  C   UNL     1       0.254  -6.796   2.450  0.00  0.00    +0.005 A 
ATOM      8  C   UNL     1       0.010  -6.117   1.273  0.00  0.00    +0.024 A 
ATOM      9  C   UNL     1       0.526  -4.839   1.088  0.00  0.00    +0.040 A 
ATOM     10  C   UNL     1       1.285  -4.246   2.085  0.00  0.00    -0.026 A 
ATOM     11  C   UNL     1       1.522  -4.934   3.263  0.00  0.00    +0.008 A 
ATOM     12  C   UNL     1       1.852  -2.860   1.923  0.00  0.00    +0.038 C 
ATOM     13  C   UNL     1       1.922  -2.479   0.444  0.00  0.00    +0.024 C 
ATOM     14  C   UNL     1       0.551  -2.728  -0.198  0.00  0.00    +0.114 C 
ATOM     15  N   UNL     1       0.271  -4.168  -0.114  0.00  0.00    -0.263 N 
ATOM     16  C   UNL     1      -0.223  -4.833  -1.178  0.00  0.00    +0.306 C 
ATOM     17  O   UNL     1      -0.321  -6.042  -1.146  0.00  0.00    -0.265 OA
ENDBRANCH   1  16
BRANCH   3  18
ATOM     18  C   UNL     1      -1.441  -4.013  -4.699  0.00  0.00    +0.075 C 
ATOM     19  C   UNL     1      -0.209  -3.627  -5.520  0.00  0.00    +0.028 C 
BRANCH  18  20
ATOM     20  C   UNL     1      -2.362  -4.894  -5.545  0.00  0.00    +0.057 C 
BRANCH  20  21
ATOM     21  C   UNL     1      -3.631  -5.173  -4.782  0.00  0.00    -0.045 A 
ATOM     22  C   UNL     1      -3.710  -6.276  -3.953  0.00  0.00    +0.007 A 
ATOM     23  C   UNL     1      -4.872  -6.534  -3.253  0.00  0.00    +0.045 A 
ATOM     24  C   UNL     1      -5.961  -5.685  -3.382  0.00  0.00    +0.117 A 
ATOM     25  C   UNL     1      -5.880  -4.577  -4.214  0.00  0.00    +0.045 A 
ATOM     26  C   UNL     1      -4.713  -4.321  -4.908  0.00  0.00    +0.007 A 
BRANCH  24  27
ATOM     27  O   UNL     1      -7.106  -5.936  -2.694  0.00  0.00    -0.507 OA
ATOM     28  H   UNL     1      -7.139  -5.524  -1.820  0.00  0.00    +0.292 HD
ENDBRANCH  24  27
ENDBRANCH  20  21
ENDBRANCH  18  20
ENDBRANCH   3  18
TORSDOF 5
