REMARK  Name = ZINC39356984
REMARK  9 active torsions:
REMARK  status: ('A' for Active; 'I' for Inactive)
REMARK    1  A    between atoms: C_1  and  C_2
REMARK    2  A    between atoms: C_2  and  C_3
REMARK    3  A    between atoms: C_3  and  C_5
REMARK    4  A    between atoms: C_3  and  N_6
REMARK    5  A    between atoms: C_8  and  C_28
REMARK    6  A    between atoms: C_12  and  C_14
REMARK    7  A    between atoms: N_16  and  C_17
REMARK    8  A    between atoms: C_17  and  C_18
REMARK    9  A    between atoms: C_18  and  C_19
REMARK                            x       y       z     vdW  Elec       q    Type
REMARK                         _______ _______ _______ _____ _____    ______ ____
ROOT
ATOM      1  N   UNL     1      -0.408   0.204  -1.865  0.00  0.00    -0.375 N 
ATOM      2  C   UNL     1      -1.781  -0.214  -2.094  0.00  0.00    +0.136 C 
ATOM      3  C   UNL     1      -2.261   0.207  -3.485  0.00  0.00    +0.161 C 
ATOM      4  C   UNL     1      -1.160  -0.131  -4.473  0.00  0.00    +0.164 C 
ATOM      5  O   UNL     1      -1.350  -0.869  -5.410  0.00  0.00    -0.295 OA
ATOM      6  C   UNL     1       0.191   0.506  -4.218  0.00  0.00    +0.180 C 
ATOM      7  C   UNL     1       0.447   0.507  -2.736  0.00  0.00    +0.074 C 
ENDROOT
BRANCH   3   8
ATOM      8  C   UNL     1      -3.518  -0.544  -3.841  0.00  0.00    +0.228 C 
ATOM      9  O   UNL     1      -3.679  -1.679  -3.445  0.00  0.00    -0.275 OA
ATOM     10  N   UNL     1      -4.464   0.045  -4.600  0.00  0.00    -0.301 N 
ATOM     11  C   UNL     1      -4.192   1.353  -5.153  0.00  0.00    +0.108 C 
ATOM     12  C   UNL     1      -4.646   2.445  -4.152  0.00  0.00    +0.019 C 
ATOM     13  C   UNL     1      -6.115   2.503  -4.092  0.00  0.00    +0.002 C 
ATOM     14  C   UNL     1      -6.774   1.226  -3.581  0.00  0.00    +0.002 C 
ATOM     15  C   UNL     1      -6.953   0.262  -4.729  0.00  0.00    +0.019 C 
ATOM     16  C   UNL     1      -5.731  -0.674  -4.836  0.00  0.00    +0.108 C 
ENDBRANCH   3   8
BRANCH   6  17
ATOM     17  C   UNL     1       1.264  -0.284  -4.921  0.00  0.00    +0.229 C 
ATOM     18  O   UNL     1       0.969  -1.268  -5.566  0.00  0.00    -0.275 OA
ATOM     19  N   UNL     1       2.552   0.102  -4.833  0.00  0.00    -0.314 N 
ATOM     20  H   UNL     1       2.788   0.889  -4.317  0.00  0.00    +0.149 HD
BRANCH  19  21
ATOM     21  C   UNL     1       3.596  -0.666  -5.516  0.00  0.00    +0.109 C 
BRANCH  21  22
ATOM     22  C   UNL     1       4.958  -0.019  -5.257  0.00  0.00    +0.056 C 
BRANCH  22  23
ATOM     23  C   UNL     1       6.031  -0.809  -5.960  0.00  0.00    -0.021 A 
ATOM     24  C   UNL     1       6.446  -0.664  -7.357  0.00  0.00    +0.003 A 
ATOM     25  C   UNL     1       6.043   0.160  -8.409  0.00  0.00    +0.010 A 
ATOM     26  C   UNL     1       6.646   0.047  -9.630  0.00  0.00    +0.001 A 
ATOM     27  C   UNL     1       7.657  -0.881  -9.833  0.00  0.00    +0.002 A 
ATOM     28  C   UNL     1       8.071  -1.705  -8.809  0.00  0.00    +0.026 A 
ATOM     29  C   UNL     1       7.471  -1.607  -7.558  0.00  0.00    +0.047 A 
ATOM     30  N   UNL     1       7.655  -2.268  -6.364  0.00  0.00    -0.360 N 
ATOM     31  C   UNL     1       6.793  -1.776  -5.423  0.00  0.00    +0.087 A 
ATOM     32  H   UNL     1       8.302  -2.975  -6.212  0.00  0.00    +0.165 HD
ENDBRANCH  22  23
ENDBRANCH  21  22
ENDBRANCH  19  21
ENDBRANCH   6  17
BRANCH   1  33
ATOM     33  C   UNL     1       0.025   0.287  -0.467  0.00  0.00    +0.078 C 
ATOM     34  C   UNL     1      -0.102  -1.089   0.189  0.00  0.00    +0.030 C 
BRANCH  33  36
ATOM     35  C   UNL     1      -0.632   2.692  -0.297  0.00  0.00    +0.006 C 
ATOM     36  C   UNL     1      -0.854   1.292   0.280  0.00  0.00    +0.021 C 
ENDBRANCH  33  36
ENDBRANCH   1  33
TORSDOF 7
