REMARK  Name = ZINC12036780
REMARK  8 active torsions:
REMARK  status: ('A' for Active; 'I' for Inactive)
REMARK    1  A    between atoms: C_1  and  C_2
REMARK    2  A    between atoms: C_2  and  C_9
REMARK    3  A    between atoms: C_3  and  C_4
REMARK    4  A    between atoms: C_9  and  N_69
REMARK    5  A    between atoms: C_12  and  C_15
REMARK    6  A    between atoms: C_15  and  C_27
REMARK    7  A    between atoms: N_18  and  C_22
REMARK    8  A    between atoms: C_27  and  C_28
REMARK                            x       y       z     vdW  Elec       q    Type
REMARK                         _______ _______ _______ _____ _____    ______ ____
ROOT
ATOM      1  C   UNL     1       1.191  -2.696  -1.283  0.00  0.00    +0.119 C 
ATOM      2  C   UNL     1       2.394  -2.264  -2.096  0.00  0.00    +0.247 C 
ATOM      3  O   UNL     1       3.553  -2.565  -1.906  0.00  0.00    -0.273 OA
ATOM      4  N   UNL     1       1.908  -1.476  -3.075  0.00  0.00    -0.221 N 
ATOM      5  C   UNL     1       0.579  -1.351  -2.994  0.00  0.00    +0.310 C 
ATOM      6  O   UNL     1      -0.086  -0.690  -3.768  0.00  0.00    -0.252 OA
ATOM      7  N   UNL     1       0.060  -2.040  -1.962  0.00  0.00    -0.284 N 
ATOM      8  H   UNL     1      -0.876  -2.094  -1.713  0.00  0.00    +0.151 HD
ENDROOT
BRANCH   1  11
ATOM      9  C   UNL     1       0.947  -6.225  -2.801  0.00  0.00    -0.078 C 
ATOM     10  C   UNL     1       1.042  -4.698  -2.773  0.00  0.00    -0.013 C 
ATOM     11  C   UNL     1       1.035  -4.218  -1.319  0.00  0.00    +0.018 C 
ATOM     12  C   UNL     1       2.200  -4.870  -0.569  0.00  0.00    -0.013 C 
ATOM     13  C   UNL     1       2.072  -6.392  -0.661  0.00  0.00    -0.078 C 
ATOM     14  N   UNL     1       2.110  -6.791  -2.084  0.00  0.00    +0.382 N 
ATOM     15  H   UNL     1       2.971  -6.429  -2.509  0.00  0.00    -0.081 HD
BRANCH  14  16
ATOM     16  C   UNL     1       2.102  -8.265  -2.195  0.00  0.00    -0.048 C 
BRANCH  16  18
ATOM     17  C   UNL     1       4.623  -8.854  -2.531  0.00  0.00    +0.037 C 
ATOM     18  C   UNL     1       3.402  -8.799  -1.649  0.00  0.00    -0.086 C 
ATOM     19  C   UNL     1       3.471  -9.222  -0.390  0.00  0.00    +0.043 C 
BRANCH  19  20
ATOM     20  C   UNL     1       4.765  -9.624   0.180  0.00  0.00    +0.128 A 
ATOM     21  C   UNL     1       4.961 -10.168   1.414  0.00  0.00    +0.049 A 
ATOM     22  C   UNL     1       6.345 -10.397   1.540  0.00  0.00    +0.042 A 
ATOM     23  C   UNL     1       6.921  -9.980   0.395  0.00  0.00    +0.195 A 
ATOM     24  O   UNL     1       5.965  -9.514  -0.424  0.00  0.00    -0.464 OA
ENDBRANCH  19  20
ENDBRANCH  16  18
ENDBRANCH  14  16
ENDBRANCH   1  11
BRANCH   4  25
ATOM     25  C   UNL     1       2.734  -0.833  -4.101  0.00  0.00    +0.086 C 
ATOM     26  C   UNL     1       2.537   0.696  -4.057  0.00  0.00    +0.023 C 
ATOM     27  C   UNL     1       2.580   1.127  -5.545  0.00  0.00    +0.002 C 
ATOM     28  C   UNL     1       1.838  -0.030  -6.258  0.00  0.00    +0.002 C 
ATOM     29  C   UNL     1       2.290  -1.295  -5.500  0.00  0.00    +0.023 C 
ENDBRANCH   4  25
BRANCH   1  30
ATOM     30  C   UNL     1       1.311  -2.204   0.161  0.00  0.00    +0.070 C 
BRANCH  30  31
ATOM     31  C   UNL     1       1.287  -0.697   0.181  0.00  0.00    -0.045 A 
ATOM     32  C   UNL     1       0.084  -0.027   0.297  0.00  0.00    +0.006 A 
ATOM     33  C   UNL     1       0.060   1.355   0.316  0.00  0.00    +0.038 A 
ATOM     34  C   UNL     1       1.243   2.068   0.219  0.00  0.00    +0.123 A 
ATOM     35  C   UNL     1       2.448   1.396   0.103  0.00  0.00    +0.038 A 
ATOM     36  C   UNL     1       2.469   0.014   0.084  0.00  0.00    +0.006 A 
ATOM     37  F   UNL     1       1.221   3.419   0.238  0.00  0.00    -0.205 F 
ENDBRANCH  30  31
ENDBRANCH   1  30
TORSDOF 7
