REMARK  Name = ZINC34786812
REMARK  7 active torsions:
REMARK  status: ('A' for Active; 'I' for Inactive)
REMARK    1  A    between atoms: C_1  and  C_2
REMARK    2  A    between atoms: C_4  and  C_35
REMARK    3  A    between atoms: N_19  and  N_20
REMARK    4  A    between atoms: N_19  and  N_29
REMARK    5  A    between atoms: N_20  and  C_21
REMARK    6  A    between atoms: C_24  and  O_27
REMARK    7  A    between atoms: O_27  and  C_28
REMARK                            x       y       z     vdW  Elec       q    Type
REMARK                         _______ _______ _______ _____ _____    ______ ____
ROOT
ATOM      1  C   UNL     1       6.118  -0.363   2.796  0.00  0.00    +0.067 C 
ATOM      2  C   UNL     1       5.118  -1.322   2.205  0.00  0.00    +0.061 A 
ATOM      3  C   UNL     1       5.138  -1.823   0.897  0.00  0.00    +0.048 A 
ATOM      4  C   UNL     1       4.078  -2.651   0.752  0.00  0.00    +0.045 A 
ATOM      5  N   UNL     1       3.408  -2.673   1.934  0.00  0.00    -0.202 N 
ATOM      6  N   UNL     1       4.087  -1.833   2.827  0.00  0.00    -0.169 NA
ATOM      7  C   UNL     1       2.253  -3.404   2.211  0.00  0.00    +0.254 A 
ATOM      8  N   UNL     1       1.705  -3.321   3.415  0.00  0.00    -0.192 NA
ATOM      9  C   UNL     1       0.610  -3.991   3.737  0.00  0.00    +0.167 A 
ATOM     10  C   UNL     1      -0.001  -4.827   2.762  0.00  0.00    +0.054 A 
ATOM     11  C   UNL     1      -1.211  -5.656   2.897  0.00  0.00    -0.025 A 
ATOM     12  C   UNL     1      -1.586  -6.362   1.819  0.00  0.00    -0.004 A 
ATOM     13  S   UNL     1      -0.379  -5.978   0.571  0.00  0.00    -0.073 S 
ATOM     14  C   UNL     1       0.634  -4.866   1.508  0.00  0.00    +0.116 A 
ATOM     15  N   UNL     1       1.723  -4.163   1.263  0.00  0.00    -0.203 NA
ATOM     16  C   UNL     1      -2.828  -7.173   2.075  0.00  0.00    +0.043 C 
ATOM     17  C   UNL     1      -2.953  -7.217   3.614  0.00  0.00    +0.010 C 
ATOM     18  C   UNL     1      -2.211  -5.929   4.024  0.00  0.00    +0.037 C 
ATOM     19  N   UNL     1       0.067  -3.880   5.005  0.00  0.00    -0.164 N 
ATOM     20  C   UNL     1       3.708  -3.411  -0.496  0.00  0.00    +0.066 C 
ENDROOT
BRANCH  19  21
ATOM     21  N   UNL     1      -0.388  -2.671   5.449  0.00  0.00    -0.204 NA
ATOM     22  C   UNL     1       0.392  -2.207   6.606  0.00  0.00    +0.135 C 
ATOM     23  C   UNL     1      -0.112  -0.826   7.033  0.00  0.00    +0.177 C 
ATOM     24  O   UNL     1      -1.511  -0.901   7.319  0.00  0.00    -0.377 OA
ATOM     25  C   UNL     1      -2.301  -1.349   6.214  0.00  0.00    +0.177 C 
ATOM     26  C   UNL     1      -1.819  -2.736   5.778  0.00  0.00    +0.135 C 
ENDBRANCH  19  21
BRANCH  19  27
ATOM     27  N   UNL     1      -0.015  -5.007   5.833  0.00  0.00    -0.249 N 
ATOM     28  H   UNL     1      -0.880  -5.395   6.038  0.00  0.00    +0.172 HD
BRANCH  27  29
ATOM     29  C   UNL     1       1.150  -5.572   6.363  0.00  0.00    +0.046 A 
ATOM     30  C   UNL     1       2.383  -4.982   6.117  0.00  0.00    +0.028 A 
ATOM     31  C   UNL     1       3.532  -5.541   6.641  0.00  0.00    +0.047 A 
ATOM     32  C   UNL     1       3.455  -6.691   7.413  0.00  0.00    +0.120 A 
ATOM     33  C   UNL     1       2.224  -7.282   7.658  0.00  0.00    +0.047 A 
ATOM     34  C   UNL     1       1.073  -6.721   7.140  0.00  0.00    +0.028 A 
BRANCH  32  35
ATOM     35  O   UNL     1       4.587  -7.241   7.928  0.00  0.00    -0.495 OA
ATOM     36  C   UNL     1       4.434  -8.425   8.713  0.00  0.00    +0.277 C 
ENDBRANCH  32  35
ENDBRANCH  27  29
ENDBRANCH  19  27
TORSDOF 4
