REMARK  Name = ZINC44687760
REMARK  4 active torsions:
REMARK  status: ('A' for Active; 'I' for Inactive)
REMARK    1  A    between atoms: C_1  and  C_2
REMARK    2  A    between atoms: C_12  and  C_14
REMARK    3  A    between atoms: C_14  and  C_16
REMARK    4  A    between atoms: C_14  and  N_17
REMARK                            x       y       z     vdW  Elec       q    Type
REMARK                         _______ _______ _______ _____ _____    ______ ____
ROOT
ATOM      1  C   UNL     1       0.096   1.654  -0.006  0.00  0.00    +0.033 C 
ATOM      2  C   UNL     1      -0.190   0.165   0.194  0.00  0.00    +0.104 C 
ATOM      3  C   UNL     1      -1.666  -0.037   0.535  0.00  0.00    -0.017 A 
ATOM      4  C   UNL     1      -2.703   0.562  -0.177  0.00  0.00    +0.013 A 
ATOM      5  C   UNL     1      -3.988   0.335   0.179  0.00  0.00    +0.046 A 
ATOM      6  S   UNL     1      -3.794  -0.765   1.573  0.00  0.00    -0.101 S 
ATOM      7  C   UNL     1      -2.022  -0.835   1.578  0.00  0.00    -0.004 A 
ATOM      8  C   UNL     1      -1.126  -1.587   2.507  0.00  0.00    +0.061 C 
ATOM      9  C   UNL     1       0.276  -1.665   1.883  0.00  0.00    +0.113 C 
ATOM     10  N   UNL     1       0.606  -0.348   1.317  0.00  0.00    -0.293 N 
ATOM     11  C   UNL     1       1.622   0.378   1.823  0.00  0.00    +0.240 C 
ATOM     12  O   UNL     1       1.840   1.493   1.398  0.00  0.00    -0.273 OA
ENDROOT
BRANCH  11  13
ATOM     13  C   UNL     1       2.488  -0.196   2.915  0.00  0.00    +0.190 C 
ATOM     14  C   UNL     1       3.538  -1.123   2.299  0.00  0.00    +0.042 C 
BRANCH  13  15
ATOM     15  N   UNL     1       3.158   0.894   3.630  0.00  0.00    -0.260 N 
ATOM     16  C   UNL     1       4.311   1.492   3.264  0.00  0.00    +0.109 A 
ATOM     17  C   UNL     1       4.591   2.444   4.184  0.00  0.00    +0.041 A 
ATOM     18  C   UNL     1       3.574   2.427   5.144  0.00  0.00    +0.134 A 
ATOM     19  N   UNL     1       2.712   1.502   4.810  0.00  0.00    -0.179 NA
ENDBRANCH  13  15
ENDBRANCH  11  13
TORSDOF 2
