REMARK  Name = ZINC12876306
REMARK  6 active torsions:
REMARK  status: ('A' for Active; 'I' for Inactive)
REMARK    1  A    between atoms: C_3  and  S_23
REMARK    2  A    between atoms: C_5  and  S_7
REMARK    3  A    between atoms: S_7  and  N_10
REMARK    4  A    between atoms: N_10  and  C_11
REMARK    5  A    between atoms: C_17  and  C_19
REMARK    6  A    between atoms: S_23  and  N_26
REMARK                            x       y       z     vdW  Elec       q    Type
REMARK                         _______ _______ _______ _____ _____    ______ ____
ROOT
ATOM      1  S   UNL     1       0.002  -0.004   0.002  0.00  0.00    +0.059 S 
ATOM      2  O   UNL     1      -1.353  -0.429   0.040  0.00  0.00    -0.153 OA
ATOM      3  O   UNL     1       0.893  -0.392  -1.034  0.00  0.00    -0.153 OA
ENDROOT
BRANCH   1   8
ATOM      4  C   UNL     1       0.517  -1.152   3.818  0.00  0.00    +0.004 A 
ATOM      5  C   UNL     1       1.885  -1.339   3.896  0.00  0.00    +0.028 A 
ATOM      6  C   UNL     1       2.677  -1.119   2.785  0.00  0.00    +0.107 A 
ATOM      7  C   UNL     1       2.102  -0.715   1.595  0.00  0.00    +0.057 A 
ATOM      8  C   UNL     1       0.735  -0.523   1.518  0.00  0.00    +0.107 A 
ATOM      9  C   UNL     1      -0.058  -0.745   2.629  0.00  0.00    +0.028 A 
BRANCH   6  10
ATOM     10  S   UNL     1       4.420  -1.358   2.885  0.00  0.00    +0.056 S 
ATOM     11  O   UNL     1       4.998  -0.560   1.861  0.00  0.00    -0.153 OA
ATOM     12  O   UNL     1       4.772  -1.214   4.254  0.00  0.00    -0.153 OA
BRANCH  10  13
ATOM     13  N   UNL     1       4.722  -2.936   2.482  0.00  0.00    -0.204 NA
ATOM     14  H   UNL     1       5.560  -3.176   2.059  0.00  0.00    +0.144 HD
ATOM     15  H   UNL     1       4.059  -3.619   2.670  0.00  0.00    +0.144 HD
ENDBRANCH  10  13
ENDBRANCH   6  10
ENDBRANCH   1   8
BRANCH   1  16
ATOM     16  N   UNL     1      -0.020   1.652   0.011  0.00  0.00    -0.186 NA
ATOM     17  H   UNL     1      -0.867   2.125   0.018  0.00  0.00    +0.148 HD
BRANCH  16  18
ATOM     18  C   UNL     1       1.238   2.401   0.003  0.00  0.00    +0.088 C 
ATOM     19  C   UNL     1       1.598   2.778  -1.435  0.00  0.00    +0.021 C 
ATOM     20  C   UNL     1       0.485   3.644  -2.030  0.00  0.00    +0.002 C 
ATOM     21  C   UNL     1       0.327   4.915  -1.194  0.00  0.00    +0.001 C 
ATOM     22  C   UNL     1      -0.033   4.539   0.244  0.00  0.00    +0.014 C 
ATOM     23  C   UNL     1       1.080   3.673   0.839  0.00  0.00    +0.112 C 
BRANCH  23  24
ATOM     24  C   UNL     1       0.720   3.296   2.277  0.00  0.00    +0.394 C 
ATOM     25  F   UNL     1       1.737   2.505   2.821  0.00  0.00    -0.170 F 
ATOM     26  F   UNL     1       0.575   4.459   3.042  0.00  0.00    -0.170 F 
ATOM     27  F   UNL     1      -0.482   2.580   2.285  0.00  0.00    -0.170 F 
ENDBRANCH  23  24
ENDBRANCH  16  18
ENDBRANCH   1  16
TORSDOF 6
