REMARK  Name = ZINC62163531
REMARK  6 active torsions:
REMARK  status: ('A' for Active; 'I' for Inactive)
REMARK    1  A    between atoms: C_1  and  C_2
REMARK    2  A    between atoms: C_4  and  C_30
REMARK    3  A    between atoms: C_16  and  C_19
REMARK    4  A    between atoms: N_21  and  C_22
REMARK    5  A    between atoms: C_27  and  S_28
REMARK    6  A    between atoms: S_28  and  C_29
REMARK                            x       y       z     vdW  Elec       q    Type
REMARK                         _______ _______ _______ _____ _____    ______ ____
ROOT
ATOM      1  C   UNL     1      -0.196   1.525   0.003  0.00  0.00    +0.067 C 
ATOM      2  C   UNL     1      -0.145   0.019  -0.003  0.00  0.00    +0.061 A 
ATOM      3  C   UNL     1      -0.118  -0.795  -1.140  0.00  0.00    +0.048 A 
ATOM      4  C   UNL     1      -0.075  -2.084  -0.730  0.00  0.00    +0.044 A 
ATOM      5  N   UNL     1      -0.075  -2.084   0.628  0.00  0.00    -0.217 N 
ATOM      6  N   UNL     1      -0.114  -0.750   1.056  0.00  0.00    -0.170 NA
ATOM      7  C   UNL     1      -0.038  -3.214   1.453  0.00  0.00    +0.176 A 
ATOM      8  C   UNL     1       0.464  -3.116   2.751  0.00  0.00    +0.053 A 
ATOM      9  C   UNL     1       0.480  -4.260   3.529  0.00  0.00    +0.049 A 
ATOM     10  C   UNL     1      -0.007  -5.441   2.967  0.00  0.00    +0.144 A 
ATOM     11  N   UNL     1      -0.465  -5.439   1.725  0.00  0.00    -0.132 NA
ATOM     12  N   UNL     1      -0.484  -4.376   1.006  0.00  0.00    -0.128 NA
ATOM     13  N   UNL     1      -0.012  -6.617   3.710  0.00  0.00    -0.314 N 
ATOM     14  C   UNL     1      -0.513  -7.869   3.127  0.00  0.00    +0.107 C 
ATOM     15  C   UNL     1      -1.583  -8.452   4.056  0.00  0.00    +0.032 C 
ATOM     16  C   UNL     1      -1.003  -8.602   5.465  0.00  0.00    +0.078 C 
ATOM     17  C   UNL     1      -0.595  -7.228   6.000  0.00  0.00    +0.032 C 
ATOM     18  C   UNL     1       0.491  -6.633   5.091  0.00  0.00    +0.107 C 
ATOM     19  C   UNL     1      -0.035  -3.300  -1.620  0.00  0.00    +0.066 C 
ENDROOT
BRANCH  16  20
ATOM     20  C   UNL     1      -2.042  -9.207   6.374  0.00  0.00    +0.220 C 
ATOM     21  O   UNL     1      -3.138  -9.490   5.938  0.00  0.00    -0.275 OA
ATOM     22  N   UNL     1      -1.752  -9.434   7.670  0.00  0.00    -0.284 N 
ATOM     23  H   UNL     1      -0.897  -9.155   8.033  0.00  0.00    +0.155 HD
BRANCH  22  24
ATOM     24  C   UNL     1      -2.688 -10.073   8.495  0.00  0.00    +0.047 A 
ATOM     25  C   UNL     1      -4.039 -10.008   8.195  0.00  0.00    +0.024 A 
ATOM     26  C   UNL     1      -4.960 -10.639   9.010  0.00  0.00    +0.002 A 
ATOM     27  C   UNL     1      -4.538 -11.337  10.127  0.00  0.00    +0.001 A 
ATOM     28  C   UNL     1      -3.193 -11.408  10.434  0.00  0.00    +0.016 A 
ATOM     29  C   UNL     1      -2.260 -10.782   9.618  0.00  0.00    +0.029 A 
BRANCH  29  30
ATOM     30  S   UNL     1      -0.544 -10.876  10.004  0.00  0.00    -0.127 S 
ATOM     31  C   UNL     1      -0.488 -11.879  11.515  0.00  0.00    +0.090 C 
ENDBRANCH  29  30
ENDBRANCH  22  24
ENDBRANCH  16  20
TORSDOF 3
