REMARK  Name = ZINC63571654
REMARK  8 active torsions:
REMARK  status: ('A' for Active; 'I' for Inactive)
REMARK    1  A    between atoms: C_1  and  C_2
REMARK    2  A    between atoms: C_2  and  O_3
REMARK    3  A    between atoms: O_3  and  C_4
REMARK    4  A    between atoms: C_4  and  C_6
REMARK    5  A    between atoms: C_9  and  C_12
REMARK    6  A    between atoms: C_12  and  N_13
REMARK    7  A    between atoms: C_29  and  C_31
REMARK    8  A    between atoms: C_34  and  C_37
REMARK                            x       y       z     vdW  Elec       q    Type
REMARK                         _______ _______ _______ _____ _____    ______ ____
ROOT
ATOM      1  N   UNL     1       1.686  -6.295  -6.064  0.00  0.00    -0.299 N 
ATOM      2  C   UNL     1       2.348  -6.880  -7.081  0.00  0.00    +0.303 C 
ATOM      3  O   UNL     1       2.894  -6.196  -7.925  0.00  0.00    -0.253 OA
ATOM      4  N   UNL     1       2.405  -8.225  -7.163  0.00  0.00    -0.276 N 
ATOM      5  C   UNL     1       1.643  -9.042  -6.213  0.00  0.00    +0.114 C 
ATOM      6  C   UNL     1       0.685  -9.966  -6.986  0.00  0.00    +0.052 C 
ATOM      7  C   UNL     1       1.482 -10.569  -8.117  0.00  0.00    -0.035 C 
ATOM      8  C   UNL     1       1.654 -11.829  -8.495  0.00  0.00    -0.001 A 
ATOM      9  C   UNL     1       1.048 -13.085  -8.024  0.00  0.00    +0.010 A 
ATOM     10  C   UNL     1       1.476 -14.222  -8.633  0.00  0.00    +0.001 A 
ATOM     11  C   UNL     1       2.434 -14.236  -9.652  0.00  0.00    +0.002 A 
ATOM     12  C   UNL     1       3.038 -13.128 -10.152  0.00  0.00    +0.026 A 
ATOM     13  C   UNL     1       2.663 -11.870  -9.597  0.00  0.00    +0.043 A 
ATOM     14  N   UNL     1       3.057 -10.668  -9.897  0.00  0.00    -0.375 N 
ATOM     15  C   UNL     1       2.308  -9.718  -9.074  0.00  0.00    +0.131 C 
ATOM     16  C   UNL     1       3.225  -8.856  -8.209  0.00  0.00    +0.134 C 
ATOM     17  H   UNL     1       1.190  -6.838  -5.431  0.00  0.00    +0.150 HD
ATOM     18  H   UNL     1       3.732 -10.439 -10.555  0.00  0.00    +0.160 HD
ENDROOT
BRANCH  16  19
ATOM     19  C   UNL     1       4.284  -9.721  -7.574  0.00  0.00    -0.025 A 
ATOM     20  C   UNL     1       5.619  -9.494  -7.850  0.00  0.00    +0.006 A 
ATOM     21  C   UNL     1       6.590 -10.288  -7.268  0.00  0.00    +0.004 A 
ATOM     22  C   UNL     1       6.225 -11.308  -6.410  0.00  0.00    -0.050 A 
ATOM     23  C   UNL     1       4.890 -11.535  -6.134  0.00  0.00    +0.004 A 
ATOM     24  C   UNL     1       3.919 -10.738  -6.712  0.00  0.00    +0.006 A 
ATOM     25  C   UNL     1       7.283 -12.174  -5.777  0.00  0.00    +0.044 C 
ENDBRANCH  16  19
BRANCH   1  26
ATOM     26  C   UNL     1       1.716  -4.838  -5.912  0.00  0.00    +0.109 C 
BRANCH  26  30
ATOM     27  C   UNL     1       0.656  -3.058  -2.113  0.00  0.00    +0.098 C 
ATOM     28  C   UNL     1      -0.006  -2.507  -3.377  0.00  0.00    +0.015 C 
ATOM     29  C   UNL     1       0.819  -2.909  -4.602  0.00  0.00    +0.006 C 
ATOM     30  C   UNL     1       0.891  -4.435  -4.688  0.00  0.00    +0.006 C 
ATOM     31  C   UNL     1       1.554  -4.987  -3.424  0.00  0.00    +0.006 C 
ATOM     32  C   UNL     1       0.729  -4.584  -2.199  0.00  0.00    +0.015 C 
BRANCH  27  33
ATOM     33  C   UNL     1      -0.156  -2.662  -0.907  0.00  0.00    +0.310 C 
ATOM     34  O   UNL     1      -0.628  -3.512  -0.190  0.00  0.00    -0.251 OA
BRANCH  33  35
ATOM     35  O   UNL     1      -0.354  -1.364  -0.629  0.00  0.00    -0.465 OA
BRANCH  35  37
ATOM     36  C   UNL     1      -1.251   0.458   0.682  0.00  0.00    +0.048 C 
ATOM     37  C   UNL     1      -1.134  -1.060   0.530  0.00  0.00    +0.229 C 
ENDBRANCH  35  37
ENDBRANCH  33  35
ENDBRANCH  27  33
ENDBRANCH  26  30
ENDBRANCH   1  26
TORSDOF 6
