REMARK  Name = ZINC19454689
REMARK  7 active torsions:
REMARK  status: ('A' for Active; 'I' for Inactive)
REMARK    1  A    between atoms: C_1  and  C_2
REMARK    2  A    between atoms: C_2  and  C_3
REMARK    3  A    between atoms: C_2  and  N_4
REMARK    4  A    between atoms: C_7  and  C_16
REMARK    5  A    between atoms: C_9  and  C_11
REMARK    6  A    between atoms: N_19  and  C_22
REMARK    7  A    between atoms: C_22  and  C_23
REMARK                            x       y       z     vdW  Elec       q    Type
REMARK                         _______ _______ _______ _____ _____    ______ ____
ROOT
ATOM      1  N   UNL     1       3.414   2.210   0.023  0.00  0.00    -0.274 N 
ATOM      2  C   UNL     1       2.423   1.292  -0.273  0.00  0.00    +0.166 A 
ATOM      3  C   UNL     1       1.219   2.015  -0.366  0.00  0.00    +0.120 A 
ATOM      4  C   UNL     1       0.044   1.323  -0.659  0.00  0.00    +0.155 A 
ATOM      5  N   UNL     1       0.109   0.003  -0.839  0.00  0.00    -0.220 NA
ATOM      6  C   UNL     1       1.263  -0.642  -0.743  0.00  0.00    +0.169 A 
ATOM      7  N   UNL     1       2.404  -0.014  -0.465  0.00  0.00    -0.207 NA
ATOM      8  N   UNL     1       1.528   3.342  -0.122  0.00  0.00    -0.280 N 
ATOM      9  C   UNL     1       2.853   3.432   0.108  0.00  0.00    +0.332 A 
ATOM     10  O   UNL     1       3.452   4.461   0.355  0.00  0.00    -0.246 OA
ENDROOT
BRANCH   6  11
ATOM     11  C   UNL     1       1.285  -2.103  -0.951  0.00  0.00    +0.056 A 
ATOM     12  C   UNL     1       0.246  -2.950  -1.238  0.00  0.00    +0.019 A 
ATOM     13  C   UNL     1       0.509  -4.291  -1.394  0.00  0.00    +0.008 A 
ATOM     14  C   UNL     1       1.785  -4.737  -1.249  0.00  0.00    +0.046 A 
ATOM     15  S   UNL     1       2.669  -3.229  -0.886  0.00  0.00    -0.094 S 
ENDBRANCH   6  11
BRANCH   4  16
ATOM     16  C   UNL     1      -1.247   2.039  -0.774  0.00  0.00    +0.262 C 
ATOM     17  O   UNL     1      -1.316   3.217  -0.485  0.00  0.00    -0.269 OA
ATOM     18  N   UNL     1      -2.346   1.383  -1.198  0.00  0.00    -0.324 N 
ATOM     19  H   UNL     1      -3.305   1.915  -1.284  0.00  0.00    +0.145 HD
ATOM     20  H   UNL     1      -2.283   0.317  -1.459  0.00  0.00    +0.145 HD
ENDBRANCH   4  16
BRANCH   1  22
ATOM     21  C   UNL     1       5.663   2.674  -0.819  0.00  0.00    +0.031 C 
ATOM     22  C   UNL     1       4.834   1.905   0.212  0.00  0.00    +0.088 C 
ATOM     23  C   UNL     1       5.261   2.321   1.621  0.00  0.00    +0.031 C 
ENDBRANCH   1  22
BRANCH   8  24
ATOM     24  C   UNL     1       0.579   4.458  -0.117  0.00  0.00    +0.222 C 
BRANCH  24  25
ATOM     25  C   UNL     1      -0.160   4.482   1.197  0.00  0.00    +0.236 C 
ATOM     26  O   UNL     1       0.138   3.699   2.074  0.00  0.00    -0.274 OA
ATOM     27  N   UNL     1      -1.150   5.373   1.397  0.00  0.00    -0.300 N 
ATOM     28  C   UNL     1      -1.405   6.366   0.377  0.00  0.00    +0.108 C 
ATOM     29  C   UNL     1      -0.542   7.619   0.636  0.00  0.00    +0.019 C 
ATOM     30  C   UNL     1      -1.040   8.346   1.814  0.00  0.00    +0.002 C 
ATOM     31  C   UNL     1      -0.965   7.558   3.118  0.00  0.00    +0.002 C 
ATOM     32  C   UNL     1      -2.193   6.692   3.250  0.00  0.00    +0.019 C 
ATOM     33  C   UNL     1      -1.927   5.300   2.650  0.00  0.00    +0.108 C 
ENDBRANCH  24  25
ENDBRANCH   8  24
TORSDOF 5
