REMARK  Name = ZINC35591859
REMARK  12 active torsions:
REMARK  status: ('A' for Active; 'I' for Inactive)
REMARK    1  A    between atoms: C_1  and  C_2
REMARK    2  A    between atoms: C_2  and  C_41
REMARK    3  A    between atoms: C_7  and  C_24
REMARK    4  A    between atoms: C_7  and  O_31
REMARK    5  A    between atoms: C_9  and  O_14
REMARK    6  A    between atoms: O_14  and  C_15
REMARK    7  A    between atoms: C_15  and  C_16
REMARK    8  A    between atoms: N_26  and  C_27
REMARK    9  A    between atoms: C_27  and  C_28
REMARK   10  A    between atoms: O_31  and  C_32
REMARK   11  A    between atoms: C_32  and  C_33
REMARK   12  A    between atoms: C_36  and  C_39
REMARK                            x       y       z     vdW  Elec       q    Type
REMARK                         _______ _______ _______ _____ _____    ______ ____
ROOT
ATOM      1  C   UNL     1      -0.273   1.494  -0.295  0.00  0.00    +0.074 C 
ATOM      2  C   UNL     1      -0.295  -0.035  -0.333  0.00  0.00    +0.165 C 
ATOM      3  O   UNL     1      -1.646  -0.506  -0.146  0.00  0.00    -0.343 OA
ATOM      4  C   UNL     1      -1.477  -1.713   0.620  0.00  0.00    +0.156 C 
ATOM      5  C   UNL     1      -2.731  -2.160   1.319  0.00  0.00    +0.079 C 
ATOM      6  C   UNL     1      -3.209  -1.199   2.387  0.00  0.00    +0.150 C 
ATOM      7  C   UNL     1      -2.106  -0.789   3.336  0.00  0.00    +0.079 C 
ATOM      8  C   UNL     1      -0.860  -0.316   2.623  0.00  0.00    +0.153 C 
ATOM      9  C   UNL     1      -0.360  -1.309   1.603  0.00  0.00    +0.179 C 
ATOM     10  O   UNL     1       0.525  -0.557   0.726  0.00  0.00    -0.341 OA
ATOM     11  C   UNL     1       0.236  -0.524  -1.683  0.00  0.00    +0.074 C 
ENDROOT
BRANCH   6  12
ATOM     12  C   UNL     1      -4.311  -1.857   3.176  0.00  0.00    +0.245 C 
ATOM     13  O   UNL     1      -4.387  -3.067   3.218  0.00  0.00    -0.273 OA
ATOM     14  N   UNL     1      -5.212  -1.102   3.835  0.00  0.00    -0.313 N 
ATOM     15  H   UNL     1      -5.195  -0.137   3.744  0.00  0.00    +0.149 HD
BRANCH  14  16
ATOM     16  C   UNL     1      -6.218  -1.739   4.688  0.00  0.00    +0.107 C 
BRANCH  16  17
ATOM     17  C   UNL     1      -7.110  -0.665   5.314  0.00  0.00    +0.006 C 
ATOM     18  C   UNL     1      -7.080  -0.522   6.837  0.00  0.00    +0.005 C 
ATOM     19  C   UNL     1      -8.302  -1.136   6.150  0.00  0.00    +0.005 C 
ENDBRANCH  16  17
ENDBRANCH  14  16
ENDBRANCH   6  12
BRANCH   8  20
ATOM     20  O   UNL     1       0.167  -0.092   3.591  0.00  0.00    -0.369 OA
BRANCH  20  21
ATOM     21  C   UNL     1       0.191   1.237   4.117  0.00  0.00    +0.201 C 
BRANCH  21  22
ATOM     22  C   UNL     1       1.306   1.359   5.122  0.00  0.00    +0.048 A 
ATOM     23  C   UNL     1       1.070   1.079   6.457  0.00  0.00    +0.131 A 
ATOM     24  C   UNL     1       2.095   1.192   7.380  0.00  0.00    +0.039 A 
ATOM     25  C   UNL     1       3.355   1.585   6.970  0.00  0.00    +0.006 A 
ATOM     26  C   UNL     1       3.593   1.866   5.638  0.00  0.00    +0.039 A 
ATOM     27  C   UNL     1       2.570   1.748   4.712  0.00  0.00    +0.131 A 
ATOM     28  F   UNL     1       2.804   2.017   3.409  0.00  0.00    -0.205 F 
ATOM     29  F   UNL     1      -0.162   0.695   6.859  0.00  0.00    -0.205 F 
ENDBRANCH  21  22
ENDBRANCH  20  21
ENDBRANCH   8  20
BRANCH   6  30
ATOM     30  O   UNL     1      -3.733  -0.029   1.754  0.00  0.00    -0.359 OA
BRANCH  30  31
ATOM     31  C   UNL     1      -4.851  -0.281   0.901  0.00  0.00    +0.196 C 
BRANCH  31  32
ATOM     32  C   UNL     1      -5.406   1.027   0.400  0.00  0.00    -0.022 A 
ATOM     33  C   UNL     1      -6.390   1.679   1.121  0.00  0.00    +0.007 A 
ATOM     34  C   UNL     1      -6.902   2.878   0.669  0.00  0.00    +0.019 A 
ATOM     35  C   UNL     1      -6.425   3.433  -0.520  0.00  0.00    +0.052 A 
ATOM     36  C   UNL     1      -5.431   2.769  -1.243  0.00  0.00    +0.019 A 
ATOM     37  C   UNL     1      -4.924   1.574  -0.776  0.00  0.00    +0.007 A 
BRANCH  35  38
ATOM     38  C   UNL     1      -6.952   4.676  -0.996  0.00  0.00    +0.099 C 
ATOM     39  N   UNL     1      -7.370   5.662  -1.374  0.00  0.00    -0.191 NA
ENDBRANCH  35  38
ENDBRANCH  31  32
ENDBRANCH  30  31
ENDBRANCH   6  30
TORSDOF 10
