REMARK  Name = ZINC19352213
REMARK  11 active torsions:
REMARK  status: ('A' for Active; 'I' for Inactive)
REMARK    1  A    between atoms: C_1  and  C_2
REMARK    2  A    between atoms: C_2  and  O_3
REMARK    3  A    between atoms: O_3  and  C_4
REMARK    4  A    between atoms: C_7  and  C_10
REMARK    5  A    between atoms: C_13  and  S_16
REMARK    6  A    between atoms: N_14  and  N_15
REMARK    7  A    between atoms: S_16  and  C_17
REMARK    8  A    between atoms: C_17  and  C_18
REMARK    9  A    between atoms: N_20  and  C_21
REMARK   10  A    between atoms: C_21  and  C_23
REMARK   11  A    between atoms: C_21  and  C_30
REMARK                            x       y       z     vdW  Elec       q    Type
REMARK                         _______ _______ _______ _____ _____    ______ ____
ROOT
ATOM      1  S   UNL     1       0.287   1.712   0.435  0.00  0.00    -0.075 S 
ENDROOT
BRANCH   1   5
ATOM      2  C   UNL     1      -0.679  -2.019  -0.204  0.00  0.00    +0.182 A 
ATOM      3  N   UNL     1       0.627  -2.077  -0.079  0.00  0.00    -0.127 NA
ATOM      4  N   UNL     1       1.099  -0.901   0.134  0.00  0.00    -0.121 NA
ATOM      5  C   UNL     1       0.123  -0.021   0.168  0.00  0.00    +0.209 A 
ATOM      6  N   UNL     1      -1.042  -0.702  -0.049  0.00  0.00    -0.224 N 
BRANCH   2  10
ATOM      7  C   UNL     1      -3.291  -5.288  -0.944  0.00  0.00    +0.121 A 
ATOM      8  C   UNL     1      -3.730  -3.989  -1.159  0.00  0.00    +0.046 A 
ATOM      9  C   UNL     1      -2.886  -2.925  -0.920  0.00  0.00    +0.015 A 
ATOM     10  C   UNL     1      -1.587  -3.157  -0.461  0.00  0.00    +0.021 A 
ATOM     11  C   UNL     1      -1.148  -4.465  -0.251  0.00  0.00    +0.015 A 
ATOM     12  C   UNL     1      -2.000  -5.523  -0.487  0.00  0.00    +0.046 A 
BRANCH   7  13
ATOM     13  O   UNL     1      -4.125  -6.334  -1.181  0.00  0.00    -0.492 OA
BRANCH  13  15
ATOM     14  C   UNL     1      -4.686  -8.683  -1.260  0.00  0.00    +0.048 C 
ATOM     15  C   UNL     1      -3.609  -7.644  -0.939  0.00  0.00    +0.225 C 
ENDBRANCH  13  15
ENDBRANCH   7  13
ENDBRANCH   2  10
BRANCH   6  16
ATOM     16  N   UNL     1      -2.304  -0.181  -0.101  0.00  0.00    -0.295 N 
ATOM     17  H   UNL     1      -2.460   0.898   0.039  0.00  0.00    +0.163 HD
ATOM     18  H   UNL     1      -3.164  -0.842  -0.284  0.00  0.00    +0.163 HD
ENDBRANCH   6  16
ENDBRANCH   1   5
BRANCH   1  19
ATOM     19  C   UNL     1       2.082   1.831   0.635  0.00  0.00    +0.173 C 
BRANCH  19  20
ATOM     20  C   UNL     1       2.466   3.267   0.881  0.00  0.00    +0.224 C 
ATOM     21  O   UNL     1       1.611   4.126   0.918  0.00  0.00    -0.275 OA
ATOM     22  N   UNL     1       3.761   3.598   1.061  0.00  0.00    -0.303 N 
ATOM     23  H   UNL     1       4.537   2.819   1.027  0.00  0.00    +0.150 HD
BRANCH  22  24
ATOM     24  C   UNL     1       4.134   4.994   1.301  0.00  0.00    +0.140 C 
BRANCH  24  25
ATOM     25  C   UNL     1       5.561   5.214   0.868  0.00  0.00    -0.022 A 
ATOM     26  C   UNL     1       6.518   4.251   1.128  0.00  0.00    +0.008 A 
ATOM     27  C   UNL     1       7.825   4.449   0.727  0.00  0.00    +0.038 A 
ATOM     28  C   UNL     1       8.179   5.617   0.074  0.00  0.00    +0.123 A 
ATOM     29  C   UNL     1       7.221   6.584  -0.181  0.00  0.00    +0.038 A 
ATOM     30  C   UNL     1       5.912   6.381   0.216  0.00  0.00    +0.008 A 
ATOM     31  F   UNL     1       9.458   5.815  -0.313  0.00  0.00    -0.205 F 
ENDBRANCH  24  25
BRANCH  24  32
ATOM     32  C   UNL     1       4.001   5.304   2.769  0.00  0.00    +0.014 A 
ATOM     33  C   UNL     1       3.531   6.427   3.365  0.00  0.00    +0.013 A 
ATOM     34  C   UNL     1       3.498   6.490   4.746  0.00  0.00    +0.008 A 
ATOM     35  C   UNL     1       3.946   5.430   5.463  0.00  0.00    +0.045 A 
ATOM     36  S   UNL     1       4.428   4.291   4.176  0.00  0.00    -0.099 S 
ENDBRANCH  24  32
ENDBRANCH  22  24
ENDBRANCH  19  20
ENDBRANCH   1  19
TORSDOF 10
