REMARK  Name = ZINC10750454
REMARK  11 active torsions:
REMARK  status: ('A' for Active; 'I' for Inactive)
REMARK    1  A    between atoms: C_1  and  C_2
REMARK    2  A    between atoms: C_5  and  C_36
REMARK    3  A    between atoms: C_6  and  N_8
REMARK    4  A    between atoms: C_9  and  C_11
REMARK    5  A    between atoms: C_11  and  C_12
REMARK    6  A    between atoms: C_14  and  C_17
REMARK    7  A    between atoms: C_17  and  O_18
REMARK    8  A    between atoms: O_18  and  C_19
REMARK    9  A    between atoms: C_19  and  C_21
REMARK   10  A    between atoms: C_21  and  N_22
REMARK   11  A    between atoms: C_30  and  C_32
REMARK                            x       y       z     vdW  Elec       q    Type
REMARK                         _______ _______ _______ _____ _____    ______ ____
ROOT
ATOM      1  C   UNL     1       4.499   0.666  -3.107  0.00  0.00    +0.288 C 
ENDROOT
BRANCH   1   4
ATOM      2  C   UNL     1       7.680  -0.583  -4.466  0.00  0.00    +0.087 A 
ATOM      3  N   UNL     1       6.462  -0.102  -4.370  0.00  0.00    -0.245 NA
ATOM      4  C   UNL     1       5.898   0.113  -3.200  0.00  0.00    +0.086 A 
ATOM      5  C   UNL     1       6.609  -0.171  -2.079  0.00  0.00    +0.073 A 
ATOM      6  S   UNL     1       8.130  -0.774  -2.800  0.00  0.00    -0.080 S 
BRANCH   2   7
ATOM      7  C   UNL     1       8.481  -0.893  -5.704  0.00  0.00    +0.159 C 
BRANCH   7   9
ATOM      8  N   UNL     1      10.066   0.282  -7.196  0.00  0.00    -0.285 N 
ATOM      9  C   UNL     1       9.271   0.325  -6.108  0.00  0.00    +0.224 C 
ATOM     10  O   UNL     1       9.192   1.344  -5.455  0.00  0.00    -0.275 OA
ATOM     11  H   UNL     1      10.193  -0.553  -7.671  0.00  0.00    +0.155 HD
BRANCH   8  17
ATOM     12  C   UNL     1      10.243   5.189  -7.444  0.00  0.00    +0.044 C 
ATOM     13  C   UNL     1      10.817   3.835  -7.773  0.00  0.00    -0.049 A 
ATOM     14  C   UNL     1      11.982   3.740  -8.513  0.00  0.00    +0.004 A 
ATOM     15  C   UNL     1      12.512   2.499  -8.816  0.00  0.00    +0.005 A 
ATOM     16  C   UNL     1      11.882   1.351  -8.376  0.00  0.00    -0.029 A 
ATOM     17  C   UNL     1      10.710   1.444  -7.638  0.00  0.00    +0.037 A 
ATOM     18  C   UNL     1      10.180   2.691  -7.335  0.00  0.00    +0.027 A 
ATOM     19  C   UNL     1      12.464  -0.000  -8.701  0.00  0.00    +0.045 C 
ENDBRANCH   8  17
ENDBRANCH   7   9
ENDBRANCH   2   7
ENDBRANCH   1   4
BRANCH   1  20
ATOM     20  O   UNL     1       4.126   0.805  -1.711  0.00  0.00    -0.457 OA
BRANCH  20  21
ATOM     21  C   UNL     1       2.900   1.288  -1.453  0.00  0.00    +0.326 C 
ATOM     22  O   UNL     1       2.164   1.586  -2.364  0.00  0.00    -0.249 OA
BRANCH  21  23
ATOM     23  C   UNL     1       2.442   1.460  -0.028  0.00  0.00    +0.238 C 
BRANCH  23  24
ATOM     24  N   UNL     1       1.080   2.000  -0.014  0.00  0.00    -0.213 N 
ATOM     25  C   UNL     1       0.786   3.316   0.001  0.00  0.00    +0.247 C 
ATOM     26  O   UNL     1       1.568   4.243   0.004  0.00  0.00    -0.273 OA
ATOM     27  C   UNL     1      -0.723   3.393   0.012  0.00  0.00    +0.115 C 
ATOM     28  C   UNL     1      -1.228   4.115  -1.233  0.00  0.00    +0.035 C 
ATOM     29  C   UNL     1      -2.758   4.157  -1.217  0.00  0.00    +0.003 C 
ATOM     30  C   UNL     1      -3.233   4.884   0.043  0.00  0.00    +0.000 C 
ATOM     31  C   UNL     1      -2.741   4.134   1.282  0.00  0.00    +0.006 C 
ATOM     32  C   UNL     1      -1.210   4.091   1.276  0.00  0.00    +0.018 C 
ATOM     33  C   UNL     1      -0.718   3.323   2.505  0.00  0.00    +0.010 C 
ATOM     34  N   UNL     1      -1.152   1.988  -0.004  0.00  0.00    -0.285 N 
ATOM     35  C   UNL     1      -0.027   1.247  -0.014  0.00  0.00    +0.310 C 
ATOM     36  O   UNL     1      -0.018   0.032  -0.025  0.00  0.00    -0.252 OA
ATOM     37  H   UNL     1      -2.064   1.659  -0.006  0.00  0.00    +0.151 HD
ENDBRANCH  23  24
ENDBRANCH  21  23
ENDBRANCH  20  21
ENDBRANCH   1  20
TORSDOF 8
