REMARK  Name = ZINC00909141
REMARK  11 active torsions:
REMARK  status: ('A' for Active; 'I' for Inactive)
REMARK    1  A    between atoms: C_1  and  C_2
REMARK    2  A    between atoms: C_2  and  C_3
REMARK    3  A    between atoms: C_3  and  C_4
REMARK    4  A    between atoms: C_3  and  C_5
REMARK    5  A    between atoms: C_3  and  N_6
REMARK    6  A    between atoms: C_7  and  C_11
REMARK    7  A    between atoms: C_11  and  C_13
REMARK    8  A    between atoms: C_11  and  N_65
REMARK    9  A    between atoms: C_18  and  C_26
REMARK   10  A    between atoms: C_19  and  C_25
REMARK   11  A    between atoms: C_29  and  C_32
REMARK                            x       y       z     vdW  Elec       q    Type
REMARK                         _______ _______ _______ _____ _____    ______ ____
ROOT
ATOM      1  C   UNL     1       4.942   1.150   0.077  0.00  0.00    +0.039 C 
ENDROOT
BRANCH   1   2
ATOM      2  C   UNL     1       3.726   2.002   0.330  0.00  0.00    +0.011 A 
ATOM      3  C   UNL     1       2.515   1.416   0.505  0.00  0.00    +0.017 A 
ATOM      4  C   UNL     1       1.353   2.272   0.749  0.00  0.00    -0.001 A 
ATOM      5  C   UNL     1       0.079   1.726   0.937  0.00  0.00    +0.010 A 
ATOM      6  C   UNL     1      -0.986   2.553   1.157  0.00  0.00    +0.004 A 
ATOM      7  C   UNL     1      -0.814   3.930   1.206  0.00  0.00    -0.046 A 
ATOM      8  C   UNL     1       0.432   4.489   1.024  0.00  0.00    -0.024 A 
ATOM      9  C   UNL     1       1.531   3.668   0.793  0.00  0.00    +0.052 A 
ATOM     10  N   UNL     1       2.788   4.201   0.607  0.00  0.00    -0.322 N 
ATOM     11  H   UNL     1       2.913   5.193   0.638  0.00  0.00    +0.169 HD
ATOM     12  C   UNL     1       3.850   3.407   0.384  0.00  0.00    +0.251 A 
ATOM     13  O   UNL     1       4.947   3.913   0.224  0.00  0.00    -0.268 OA
ATOM     14  C   UNL     1       0.604   5.986   1.075  0.00  0.00    +0.046 C 
ATOM     15  C   UNL     1      -2.003   4.822   1.457  0.00  0.00    +0.044 C 
ENDBRANCH   1   2
BRANCH   1  22
ATOM     16  C   UNL     1       5.464   1.354   2.432  0.00  0.00    -0.077 C 
ATOM     17  C   UNL     1       6.524   1.838   3.424  0.00  0.00    -0.015 C 
ATOM     18  C   UNL     1       7.791   0.994   3.261  0.00  0.00    -0.018 C 
ATOM     19  C   UNL     1       8.283   1.098   1.815  0.00  0.00    -0.015 C 
ATOM     20  C   UNL     1       7.171   0.636   0.870  0.00  0.00    -0.077 C 
ATOM     21  C   UNL     1       8.876   1.512   4.208  0.00  0.00    +0.007 C 
ATOM     22  N   UNL     1       5.989   1.503   1.058  0.00  0.00    +0.389 N 
ATOM     23  H   UNL     1       6.267   2.481   0.912  0.00  0.00    -0.080 HD
ENDBRANCH   1  22
BRANCH   1  25
ATOM     24  N   UNL     1       5.437   0.575  -2.358  0.00  0.00    -0.225 N 
ATOM     25  C   UNL     1       5.465   1.420  -1.311  0.00  0.00    +0.143 A 
ATOM     26  N   UNL     1       6.039   2.521  -1.730  0.00  0.00    -0.115 NA
ATOM     27  N   UNL     1       6.344   2.362  -2.972  0.00  0.00    -0.023 NA
ATOM     28  N   UNL     1       5.979   1.189  -3.356  0.00  0.00    -0.043 NA
BRANCH  24  29
ATOM     29  C   UNL     1       4.892  -0.785  -2.365  0.00  0.00    +0.061 C 
ATOM     30  C   UNL     1       5.678  -1.655  -1.382  0.00  0.00    +0.036 C 
ATOM     31  C   UNL     1       3.421  -0.747  -1.948  0.00  0.00    +0.036 C 
BRANCH  29  33
ATOM     32  C   UNL     1       4.439  -2.794  -3.780  0.00  0.00    +0.006 C 
ATOM     33  C   UNL     1       5.008  -1.374  -3.773  0.00  0.00    +0.026 C 
ENDBRANCH  29  33
ENDBRANCH  24  29
ENDBRANCH   1  25
TORSDOF 5
