REMARK  Name = ZINC43262562
REMARK  7 active torsions:
REMARK  status: ('A' for Active; 'I' for Inactive)
REMARK    1  A    between atoms: C_1  and  C_2
REMARK    2  A    between atoms: C_2  and  C_37
REMARK    3  A    between atoms: C_7  and  C_12
REMARK    4  A    between atoms: C_12  and  N_13
REMARK    5  A    between atoms: C_14  and  C_16
REMARK    6  A    between atoms: C_22  and  C_25
REMARK    7  A    between atoms: C_28  and  C_31
REMARK                            x       y       z     vdW  Elec       q    Type
REMARK                         _______ _______ _______ _____ _____    ______ ____
ROOT
ATOM      1  C   UNL     1       4.114   2.761   5.122  0.00  0.00    +0.029 C 
ATOM      2  C   UNL     1       4.830   1.546   5.723  0.00  0.00    +0.097 C 
ATOM      3  S   UNL     1       6.396   2.112   6.458  0.00  0.00    +0.020 S 
ATOM      4  O   UNL     1       7.264   2.569   5.431  0.00  0.00    -0.257 OA
ATOM      5  C   UNL     1       5.869   3.523   7.480  0.00  0.00    +0.092 C 
ATOM      6  C   UNL     1       4.997   4.442   6.617  0.00  0.00    -0.027 C 
ATOM      7  N   UNL     1       3.798   3.723   6.180  0.00  0.00    +0.392 N 
ATOM      8  H   UNL     1       3.124   4.388   5.832  0.00  0.00    -0.084 HD
ATOM      9  H   UNL     1       3.401   3.232   6.966  0.00  0.00    -0.084 HD
ENDROOT
BRANCH   6  10
ATOM     10  C   UNL     1       4.590   5.649   7.423  0.00  0.00    -0.060 A 
ATOM     11  C   UNL     1       3.547   5.554   8.326  0.00  0.00    +0.002 A 
ATOM     12  C   UNL     1       3.170   6.655   9.067  0.00  0.00    +0.009 A 
ATOM     13  C   UNL     1       3.842   7.865   8.905  0.00  0.00    -0.018 A 
ATOM     14  C   UNL     1       4.893   7.955   7.993  0.00  0.00    +0.009 A 
ATOM     15  C   UNL     1       5.265   6.845   7.262  0.00  0.00    +0.002 A 
BRANCH  13  16
ATOM     16  C   UNL     1       3.441   9.053   9.698  0.00  0.00    -0.018 A 
ATOM     17  C   UNL     1       2.394   8.961  10.613  0.00  0.00    +0.008 A 
ATOM     18  C   UNL     1       2.026  10.069  11.349  0.00  0.00    +0.001 A 
ATOM     19  C   UNL     1       2.693  11.269  11.179  0.00  0.00    +0.000 A 
ATOM     20  C   UNL     1       3.733  11.365  10.272  0.00  0.00    +0.001 A 
ATOM     21  C   UNL     1       4.114  10.262   9.536  0.00  0.00    +0.008 A 
ENDBRANCH  13  16
ENDBRANCH   6  10
BRANCH   1  23
ATOM     22  N   UNL     1       2.883   1.424   3.444  0.00  0.00    -0.316 N 
ATOM     23  C   UNL     1       2.839   2.313   4.457  0.00  0.00    +0.200 C 
ATOM     24  O   UNL     1       1.772   2.752   4.831  0.00  0.00    -0.278 OA
ATOM     25  H   UNL     1       3.736   1.073   3.145  0.00  0.00    +0.149 HD
BRANCH  22  26
ATOM     26  C   UNL     1       1.643   0.988   2.797  0.00  0.00    +0.108 C 
BRANCH  26  32
ATOM     27  C   UNL     1      -0.019   1.521   0.010  0.00  0.00    +0.011 C 
ATOM     28  C   UNL     1       0.002  -0.004   0.002  0.00  0.00    -0.029 C 
ATOM     29  C   UNL     1       1.110  -0.635  -0.859  0.00  0.00    -0.005 C 
ATOM     30  C   UNL     1       2.412   0.167  -0.822  0.00  0.00    +0.004 C 
ATOM     31  C   UNL     1       2.774   0.644   0.578  0.00  0.00    +0.005 C 
ATOM     32  C   UNL     1       1.972  -0.016   1.688  0.00  0.00    +0.010 C 
ATOM     33  C   UNL     1       0.704  -0.695   1.173  0.00  0.00    -0.000 C 
ATOM     34  C   UNL     1       1.105  -1.793   0.155  0.00  0.00    +0.008 C 
ATOM     35  C   UNL     1      -1.394  -0.579  -0.299  0.00  0.00    +0.011 C 
ENDBRANCH  26  32
ENDBRANCH  22  26
ENDBRANCH   1  23
TORSDOF 5
