REMARK  Name = ZINC39687454
REMARK  8 active torsions:
REMARK  status: ('A' for Active; 'I' for Inactive)
REMARK    1  A    between atoms: C_1  and  C_2
REMARK    2  A    between atoms: C_2  and  C_3
REMARK    3  A    between atoms: C_3  and  C_4
REMARK    4  A    between atoms: C_4  and  C_5
REMARK    5  A    between atoms: C_5  and  C_6
REMARK    6  A    between atoms: C_6  and  C_7
REMARK    7  A    between atoms: C_11  and  C_20
REMARK    8  A    between atoms: N_22  and  C_23
REMARK                            x       y       z     vdW  Elec       q    Type
REMARK                         _______ _______ _______ _____ _____    ______ ____
ROOT
ATOM      1  C   UNL     1       2.197  -4.542  -3.864  0.00  0.00    +0.216 C 
ATOM      2  O   UNL     1       2.585  -3.759  -4.705  0.00  0.00    -0.276 OA
ATOM      3  N   UNL     1       2.300  -5.869  -4.080  0.00  0.00    -0.300 N 
ATOM      4  C   UNL     1       1.879  -6.970  -3.182  0.00  0.00    +0.121 C 
ATOM      5  C   UNL     1       1.277  -8.035  -4.127  0.00  0.00    +0.100 C 
ATOM      6  C   UNL     1       1.926  -7.759  -5.493  0.00  0.00    -0.004 C 
ATOM      7  C   UNL     1       2.854  -6.556  -5.271  0.00  0.00    +0.115 C 
ATOM      8  C   UNL     1       2.731  -8.971  -5.950  0.00  0.00    -0.010 C 
ATOM      9  C   UNL     1       3.319  -8.694  -7.337  0.00  0.00    -0.082 C 
ATOM     10  N   UNL     1       2.232  -8.418  -8.285  0.00  0.00    +0.379 N 
ATOM     11  C   UNL     1       1.521  -7.197  -7.888  0.00  0.00    -0.082 C 
ATOM     12  C   UNL     1       0.857  -7.410  -6.525  0.00  0.00    -0.010 C 
ATOM     13  H   UNL     1       2.618  -8.296  -9.210  0.00  0.00    -0.086 HD
ATOM     14  H   UNL     1       1.588  -9.194  -8.291  0.00  0.00    -0.086 HD
ENDROOT
BRANCH   5  15
ATOM     15  C   UNL     1       1.627  -9.420  -3.647  0.00  0.00    +0.218 C 
ATOM     16  O   UNL     1       2.672  -9.613  -3.061  0.00  0.00    -0.275 OA
ATOM     17  N   UNL     1       0.780 -10.444  -3.869  0.00  0.00    -0.312 N 
ATOM     18  H   UNL     1      -0.055 -10.290  -4.337  0.00  0.00    +0.149 HD
BRANCH  17  19
ATOM     19  C   UNL     1       1.121 -11.791  -3.402  0.00  0.00    +0.076 C 
ATOM     20  C   UNL     1       2.002 -12.484  -4.445  0.00  0.00    +0.041 C 
ATOM     21  C   UNL     1       2.384 -13.878  -3.938  0.00  0.00    +0.108 C 
ATOM     22  N   UNL     1       1.157 -14.612  -3.601  0.00  0.00    -0.317 N 
ATOM     23  C   UNL     1       0.196 -13.995  -2.677  0.00  0.00    +0.108 C 
ATOM     24  C   UNL     1      -0.162 -12.599  -3.198  0.00  0.00    +0.041 C 
ATOM     25  C   UNL     1       0.909 -15.866  -4.147  0.00  0.00    +0.099 A 
ATOM     26  C   UNL     1      -0.316 -16.486  -3.922  0.00  0.00    +0.042 A 
ATOM     27  C   UNL     1      -0.548 -17.734  -4.471  0.00  0.00    +0.005 A 
ATOM     28  C   UNL     1       0.456 -18.323  -5.229  0.00  0.00    +0.018 A 
ATOM     29  C   UNL     1       1.647 -17.650  -5.412  0.00  0.00    +0.084 A 
ATOM     30  N   UNL     1       1.839 -16.458  -4.880  0.00  0.00    -0.350 N 
ATOM     31  H   UNL     1       2.685 -16.005  -5.027  0.00  0.00    +0.166 HD
ENDBRANCH  17  19
ENDBRANCH   5  15
BRANCH   1  32
ATOM     32  C   UNL     1       1.599  -4.032  -2.578  0.00  0.00    +0.096 C 
BRANCH  32  33
ATOM     33  C   UNL     1       1.600  -2.502  -2.587  0.00  0.00    +0.009 C 
BRANCH  33  34
ATOM     34  C   UNL     1       0.994  -1.984  -1.282  0.00  0.00    +0.000 C 
BRANCH  34  35
ATOM     35  C   UNL     1       0.995  -0.454  -1.291  0.00  0.00    -0.000 C 
BRANCH  35  37
ATOM     36  C   UNL     1       0.389   1.594   0.006  0.00  0.00    +0.004 C 
ATOM     37  C   UNL     1       0.388   0.064   0.015  0.00  0.00    -0.003 C 
ENDBRANCH  35  37
ENDBRANCH  34  35
ENDBRANCH  33  34
ENDBRANCH  32  33
ENDBRANCH   1  32
TORSDOF 7
