REMARK  Name = ZINC09382248
REMARK  6 active torsions:
REMARK  status: ('A' for Active; 'I' for Inactive)
REMARK    1  A    between atoms: C_1  and  S_2
REMARK    2  A    between atoms: S_2  and  N_5
REMARK    3  A    between atoms: N_5  and  C_6
REMARK    4  A    between atoms: C_10  and  C_12
REMARK    5  A    between atoms: C_15  and  C_18
REMARK    6  A    between atoms: C_26  and  C_28
REMARK                            x       y       z     vdW  Elec       q    Type
REMARK                         _______ _______ _______ _____ _____    ______ ____
ROOT
ATOM      1  C   UNL     1      -4.546   3.054  -1.022  0.00  0.00    +0.069 C 
ATOM      2  N   UNL     1      -4.609   2.791   0.238  0.00  0.00    -0.181 NA
ATOM      3  N   UNL     1      -3.501   3.221   0.965  0.00  0.00    -0.181 N 
ATOM      4  C   UNL     1      -2.553   3.873   0.047  0.00  0.00    +0.141 C 
ATOM      5  C   UNL     1      -3.248   3.774  -1.325  0.00  0.00    +0.087 C 
ATOM      6  C   UNL     1      -3.326   3.066   2.292  0.00  0.00    +0.273 C 
ATOM      7  O   UNL     1      -2.314   3.483   2.826  0.00  0.00    -0.268 OA
ENDROOT
BRANCH   4   8
ATOM      8  C   UNL     1      -1.239   3.136   0.031  0.00  0.00    +0.029 A 
ATOM      9  C   UNL     1      -1.221   1.752   0.017  0.00  0.00    +0.130 A 
ATOM     10  C   UNL     1      -0.013   1.076   0.008  0.00  0.00    +0.039 A 
ATOM     11  C   UNL     1       1.175   1.783   0.000  0.00  0.00    +0.004 A 
ATOM     12  C   UNL     1       1.157   3.165   0.007  0.00  0.00    +0.020 A 
ATOM     13  C   UNL     1      -0.050   3.842   0.023  0.00  0.00    +0.049 A 
ATOM     14 CL   UNL     1      -0.071   5.578   0.032  0.00  0.00    -0.083 Cl
ATOM     15  F   UNL     1      -2.382   1.061   0.019  0.00  0.00    -0.205 F 
ENDBRANCH   4   8
BRANCH   1  20
ATOM     16  C   UNL     1      -7.708   1.725  -2.557  0.00  0.00    +0.048 A 
ATOM     17  C   UNL     1      -7.520   2.067  -3.891  0.00  0.00    +0.024 A 
ATOM     18  C   UNL     1      -6.371   2.725  -4.286  0.00  0.00    +0.002 A 
ATOM     19  C   UNL     1      -5.402   3.048  -3.359  0.00  0.00    +0.010 A 
ATOM     20  C   UNL     1      -5.580   2.710  -2.015  0.00  0.00    -0.000 A 
ATOM     21  C   UNL     1      -6.739   2.040  -1.617  0.00  0.00    +0.034 A 
BRANCH  16  22
ATOM     22  N   UNL     1      -8.871   1.059  -2.163  0.00  0.00    -0.221 N 
ATOM     23  H   UNL     1      -9.349   1.345  -1.369  0.00  0.00    +0.173 HD
BRANCH  22  25
ATOM     24  C   UNL     1      -8.159  -1.497  -2.894  0.00  0.00    +0.218 C 
ATOM     25  S   UNL     1      -9.435  -0.218  -3.053  0.00  0.00    +0.040 S 
ATOM     26  O   UNL     1     -10.623  -0.627  -2.389  0.00  0.00    -0.155 OA
ATOM     27  O   UNL     1      -9.482   0.263  -4.389  0.00  0.00    -0.155 OA
ENDBRANCH  22  25
ENDBRANCH  16  22
ENDBRANCH   1  20
BRANCH   6  28
ATOM     28  C   UNL     1      -4.353   2.395   3.093  0.00  0.00    +0.076 A 
ATOM     29  C   UNL     1      -4.369   2.136   4.455  0.00  0.00    +0.021 A 
ATOM     30  C   UNL     1      -5.468   1.484   4.955  0.00  0.00    +0.008 A 
ATOM     31  C   UNL     1      -6.471   1.129   4.109  0.00  0.00    +0.046 A 
ATOM     32  S   UNL     1      -5.913   1.705   2.571  0.00  0.00    -0.092 S 
ENDBRANCH   6  28
TORSDOF 5
