REMARK  Name = ZINC50593362
REMARK  6 active torsions:
REMARK  status: ('A' for Active; 'I' for Inactive)
REMARK    1  A    between atoms: C_1  and  C_2
REMARK    2  A    between atoms: C_4  and  C_20
REMARK    3  A    between atoms: C_7  and  C_8
REMARK    4  A    between atoms: N_9  and  O_10
REMARK    5  A    between atoms: C_13  and  C_19
REMARK    6  A    between atoms: C_15  and  C_17
REMARK                            x       y       z     vdW  Elec       q    Type
REMARK                         _______ _______ _______ _____ _____    ______ ____
ROOT
ATOM      1  C   UNL     1      -0.018   1.503   0.010  0.00  0.00    +0.044 C 
ATOM      2  C   UNL     1       0.002  -0.004   0.002  0.00  0.00    -0.035 A 
ATOM      3  C   UNL     1       0.006  -0.707  -1.191  0.00  0.00    +0.027 A 
ATOM      4  C   UNL     1       0.026  -2.089  -1.165  0.00  0.00    +0.041 A 
ATOM      5  N   UNL     1       0.040  -2.750  -0.024  0.00  0.00    -0.232 NA
ATOM      6  C   UNL     1       0.037  -2.127   1.142  0.00  0.00    +0.165 A 
ATOM      7  C   UNL     1       0.023  -0.727   1.198  0.00  0.00    +0.065 A 
ATOM      8  N   UNL     1       0.053  -2.868   2.324  0.00  0.00    -0.217 N 
ATOM      9  C   UNL     1       0.078  -4.224   2.419  0.00  0.00    +0.058 A 
ATOM     10  C   UNL     1       0.086  -4.542   3.735  0.00  0.00    +0.062 A 
ATOM     11  C   UNL     1       0.066  -3.348   4.467  0.00  0.00    +0.075 A 
ATOM     12  N   UNL     1       0.052  -2.348   3.625  0.00  0.00    -0.169 NA
ATOM     13  C   UNL     1       0.067  -3.236   5.970  0.00  0.00    +0.069 C 
ATOM     14 BR   UNL     1       0.119  -6.289   4.456  0.00  0.00    -0.047 Br
ATOM     15  C   UNL     1       0.092  -5.197   1.268  0.00  0.00    +0.067 C 
ATOM     16  C   UNL     1       0.029  -2.854  -2.464  0.00  0.00    +0.065 C 
ENDROOT
BRANCH   7  17
ATOM     17  C   UNL     1       0.026  -0.026   2.501  0.00  0.00    +0.166 C 
ATOM     18  N   UNL     1      -1.100   0.267   3.084  0.00  0.00    -0.071 NA
ATOM     19  N   UNL     1       1.226   0.319   3.099  0.00  0.00    -0.340 N 
ATOM     20  H   UNL     1       2.065   0.101   2.664  0.00  0.00    +0.144 HD
ATOM     21  H   UNL     1       1.228   0.779   3.953  0.00  0.00    +0.144 HD
BRANCH  18  22
ATOM     22  O   UNL     1      -1.097   0.938   4.331  0.00  0.00    -0.408 OA
ATOM     23  H   UNL     1      -1.980   1.113   4.686  0.00  0.00    +0.328 HD
ENDBRANCH  18  22
ENDBRANCH   7  17
TORSDOF 2
