REMARK  Name = ZINC40707733
REMARK  10 active torsions:
REMARK  status: ('A' for Active; 'I' for Inactive)
REMARK    1  A    between atoms: C_1  and  C_2
REMARK    2  A    between atoms: C_2  and  C_3
REMARK    3  A    between atoms: C_3  and  N_4
REMARK    4  A    between atoms: C_6  and  N_22
REMARK    5  A    between atoms: C_7  and  N_11
REMARK    6  A    between atoms: N_11  and  C_12
REMARK    7  A    between atoms: C_14  and  C_20
REMARK    8  A    between atoms: C_14  and  C_21
REMARK    9  A    between atoms: C_16  and  C_18
REMARK   10  A    between atoms: C_16  and  C_19
REMARK                            x       y       z     vdW  Elec       q    Type
REMARK                         _______ _______ _______ _____ _____    ______ ____
ROOT
ATOM      1  N   UNL     1      -1.544  -1.886   0.329  0.00  0.00    -0.327 N 
ATOM      2  C   UNL     1      -2.741  -2.591   0.370  0.00  0.00    +0.145 A 
ATOM      3  C   UNL     1      -2.746  -3.985   0.305  0.00  0.00    +0.105 A 
ATOM      4  C   UNL     1      -3.976  -4.643   0.351  0.00  0.00    +0.145 A 
ATOM      5  N   UNL     1      -5.089  -3.921   0.454  0.00  0.00    -0.219 NA
ATOM      6  C   UNL     1      -5.041  -2.606   0.512  0.00  0.00    +0.225 A 
ATOM      7  N   UNL     1      -3.901  -1.946   0.477  0.00  0.00    -0.219 NA
ATOM      8  H   UNL     1      -0.703  -2.363   0.251  0.00  0.00    +0.148 HD
ENDROOT
BRANCH   3   9
ATOM      9  N   UNL     1      -1.545  -4.706   0.196  0.00  0.00    -0.353 N 
ATOM     10  H   UNL     1      -0.698  -4.236   0.165  0.00  0.00    +0.143 HD
ATOM     11  H   UNL     1      -1.564  -5.675   0.152  0.00  0.00    +0.143 HD
ENDBRANCH   3   9
BRANCH   4  12
ATOM     12  N   UNL     1      -4.037  -6.030   0.289  0.00  0.00    -0.325 N 
ATOM     13  H   UNL     1      -3.220  -6.549   0.214  0.00  0.00    +0.148 HD
BRANCH  12  14
ATOM     14  C   UNL     1      -5.337  -6.711   0.339  0.00  0.00    +0.069 C 
ATOM     15  C   UNL     1      -5.730  -6.939   1.800  0.00  0.00    +0.009 C 
ATOM     16  C   UNL     1      -7.077  -7.658   1.867  0.00  0.00    -0.072 C 
ATOM     17  N   UNL     1      -7.081  -8.888   1.090  0.00  0.00    +0.386 N 
ATOM     18  C   UNL     1      -6.535  -8.838  -0.257  0.00  0.00    -0.072 C 
ATOM     19  C   UNL     1      -5.219  -8.073  -0.344  0.00  0.00    +0.009 C 
ATOM     20  C   UNL     1      -6.249 -10.294  -0.697  0.00  0.00    -0.010 C 
ATOM     21  C   UNL     1      -7.542  -8.260  -1.255  0.00  0.00    -0.010 C 
ATOM     22  C   UNL     1      -7.318  -8.039   3.346  0.00  0.00    -0.010 C 
ATOM     23  C   UNL     1      -8.203  -6.712   1.454  0.00  0.00    -0.010 C 
ATOM     24  H   UNL     1      -6.572  -9.602   1.617  0.00  0.00    -0.084 HD
ATOM     25  H   UNL     1      -8.043  -9.230   1.035  0.00  0.00    -0.084 HD
ENDBRANCH  12  14
ENDBRANCH   4  12
BRANCH   1  26
ATOM     26  C   UNL     1      -1.552  -0.423   0.404  0.00  0.00    +0.103 C 
BRANCH  26  28
ATOM     27  C   UNL     1      -0.123   1.627   0.416  0.00  0.00    +0.005 C 
ATOM     28  C   UNL     1      -0.115   0.099   0.338  0.00  0.00    +0.015 C 
ENDBRANCH  26  28
ENDBRANCH   1  26
TORSDOF 5
