REMARK  Name = ZINC09157454
REMARK  13 active torsions:
REMARK  status: ('A' for Active; 'I' for Inactive)
REMARK    1  A    between atoms: C_1  and  C_2
REMARK    2  A    between atoms: C_4  and  S_21
REMARK    3  A    between atoms: C_6  and  N_9
REMARK    4  A    between atoms: C_7  and  C_8
REMARK    5  A    between atoms: N_9  and  C_10
REMARK    6  A    between atoms: C_10  and  C_11
REMARK    7  A    between atoms: N_16  and  C_17
REMARK    8  A    between atoms: C_17  and  C_18
REMARK    9  A    between atoms: C_17  and  C_19
REMARK   10  A    between atoms: C_17  and  C_20
REMARK   11  A    between atoms: S_21  and  N_24
REMARK   12  A    between atoms: N_24  and  C_25
REMARK   13  A    between atoms: N_24  and  C_26
REMARK                            x       y       z     vdW  Elec       q    Type
REMARK                         _______ _______ _______ _____ _____    ______ ____
ROOT
ATOM      1  N   UNL     1       1.390  -0.473  -0.014  0.00  0.00    -0.335 N 
ATOM      2  H   UNL     1       2.118   0.167  -0.017  0.00  0.00    +0.147 HD
ENDROOT
BRANCH   1   8
ATOM      3  C   UNL     1       4.673  -4.130  -0.068  0.00  0.00    +0.044 C 
ATOM      4  C   UNL     1       3.246  -3.645  -0.050  0.00  0.00    -0.044 A 
ATOM      5  C   UNL     1       2.206  -4.556  -0.045  0.00  0.00    +0.032 A 
ATOM      6  C   UNL     1       0.896  -4.115  -0.029  0.00  0.00    +0.107 A 
ATOM      7  C   UNL     1       0.621  -2.761  -0.019  0.00  0.00    +0.051 A 
ATOM      8  C   UNL     1       1.663  -1.843  -0.024  0.00  0.00    +0.033 A 
ATOM      9  C   UNL     1       2.979  -2.290  -0.044  0.00  0.00    -0.027 A 
ATOM     10  C   UNL     1       4.113  -1.298  -0.056  0.00  0.00    +0.046 C 
BRANCH   6  11
ATOM     11  S   UNL     1      -0.425  -5.281  -0.023  0.00  0.00    +0.060 S 
ATOM     12  O   UNL     1       0.099  -6.486   0.516  0.00  0.00    -0.153 OA
ATOM     13  O   UNL     1      -1.548  -4.619   0.543  0.00  0.00    -0.153 OA
BRANCH  11  14
ATOM     14  N   UNL     1      -0.808  -5.596  -1.603  0.00  0.00    -0.183 NA
ATOM     15  C   UNL     1      -0.138  -6.686  -2.315  0.00  0.00    +0.131 C 
ATOM     16  C   UNL     1      -1.817  -4.784  -2.288  0.00  0.00    +0.131 C 
ENDBRANCH  11  14
ENDBRANCH   6  11
ENDBRANCH   1   8
BRANCH   1  17
ATOM     17  C   UNL     1       0.002  -0.004   0.002  0.00  0.00    +0.198 C 
BRANCH  17  18
ATOM     18  C   UNL     1      -0.018   1.503   0.010  0.00  0.00    +0.237 C 
ATOM     19  O   UNL     1       1.023   2.123   0.004  0.00  0.00    -0.274 OA
ATOM     20  N   UNL     1      -1.195   2.161   0.019  0.00  0.00    -0.239 N 
ATOM     21  C   UNL     1      -1.213   3.508   0.027  0.00  0.00    +0.306 C 
ATOM     22  O   UNL     1      -0.169   4.130   0.025  0.00  0.00    -0.252 OA
ATOM     23  N   UNL     1      -2.389   4.166   0.036  0.00  0.00    -0.294 N 
ATOM     24  H   UNL     1      -2.028   1.664   0.021  0.00  0.00    +0.159 HD
ATOM     25  H   UNL     1      -3.223   3.670   0.037  0.00  0.00    +0.151 HD
BRANCH  23  26
ATOM     26  C   UNL     1      -2.409   5.631   0.044  0.00  0.00    +0.028 C 
ATOM     27  C   UNL     1      -1.701   6.158  -1.206  0.00  0.00    +0.031 C 
ATOM     28  C   UNL     1      -3.858   6.122   0.054  0.00  0.00    +0.031 C 
ATOM     29  C   UNL     1      -1.689   6.144   1.293  0.00  0.00    +0.031 C 
ENDBRANCH  23  26
ENDBRANCH  17  18
ENDBRANCH   1  17
TORSDOF 6
