REMARK  Name = ZINC38604714
REMARK  12 active torsions:
REMARK  status: ('A' for Active; 'I' for Inactive)
REMARK    1  A    between atoms: C_1  and  C_2
REMARK    2  A    between atoms: C_2  and  O_3
REMARK    3  A    between atoms: O_3  and  C_4
REMARK    4  A    between atoms: C_4  and  C_6
REMARK    5  A    between atoms: N_9  and  C_12
REMARK    6  A    between atoms: C_12  and  C_14
REMARK    7  A    between atoms: C_12  and  C_15
REMARK    8  A    between atoms: N_17  and  C_18
REMARK    9  A    between atoms: C_21  and  C_32
REMARK   10  A    between atoms: C_26  and  C_28
REMARK   11  A    between atoms: C_28  and  O_30
REMARK   12  A    between atoms: O_30  and  C_31
REMARK                            x       y       z     vdW  Elec       q    Type
REMARK                         _______ _______ _______ _____ _____    ______ ____
ROOT
ATOM      1  C   UNL     1       4.328  -6.428   5.642  0.00  0.00    +0.203 C 
ATOM      2  O   UNL     1       3.838  -6.527   4.537  0.00  0.00    -0.277 OA
ATOM      3  N   UNL     1       4.779  -7.525   6.281  0.00  0.00    -0.288 N 
ATOM      4  H   UNL     1       5.114  -7.455   7.188  0.00  0.00    +0.155 HD
ENDROOT
BRANCH   3   5
ATOM      5  C   UNL     1       4.764  -8.734   5.652  0.00  0.00    +0.053 C 
ATOM      6  C   UNL     1       5.306  -9.922   6.112  0.00  0.00    +0.018 A 
ATOM      7  C   UNL     1       6.003 -10.258   7.297  0.00  0.00    +0.015 A 
ATOM      8  C   UNL     1       6.428 -11.531   7.489  0.00  0.00    -0.050 A 
ATOM      9  C   UNL     1       6.196 -12.531   6.541  0.00  0.00    +0.005 A 
ATOM     10  C   UNL     1       5.535 -12.282   5.384  0.00  0.00    +0.026 A 
ATOM     11  C   UNL     1       5.059 -10.974   5.111  0.00  0.00    +0.045 A 
ATOM     12  N   UNL     1       4.401 -10.483   4.080  0.00  0.00    -0.367 N 
ATOM     13  C   UNL     1       4.146  -9.057   4.309  0.00  0.00    +0.234 C 
ATOM     14  C   UNL     1       7.169 -11.876   8.755  0.00  0.00    +0.044 C 
ATOM     15  H   UNL     1       4.126 -10.985   3.297  0.00  0.00    +0.161 HD
BRANCH  13  16
ATOM     16  C   UNL     1       2.664  -8.790   4.342  0.00  0.00    +0.335 C 
ATOM     17  O   UNL     1       1.931  -9.526   4.960  0.00  0.00    -0.248 OA
BRANCH  16  18
ATOM     18  O   UNL     1       2.157  -7.734   3.686  0.00  0.00    -0.466 OA
ATOM     19  C   UNL     1       0.743  -7.541   3.760  0.00  0.00    +0.280 C 
ENDBRANCH  16  18
ENDBRANCH  13  16
ENDBRANCH   3   5
BRANCH   1  20
ATOM     20  C   UNL     1       4.433  -5.076   6.300  0.00  0.00    +0.016 C 
ATOM     21  C   UNL     1       5.848  -4.525   6.111  0.00  0.00    -0.004 C 
BRANCH  20  25
ATOM     22  C   UNL     1       1.218  -2.328   5.776  0.00  0.00    +0.094 C 
ATOM     23  C   UNL     1       2.660  -1.844   5.596  0.00  0.00    -0.004 C 
ATOM     24  C   UNL     1       3.611  -2.824   6.286  0.00  0.00    -0.077 C 
ATOM     25  N   UNL     1       3.464  -4.157   5.689  0.00  0.00    +0.387 N 
ATOM     26  C   UNL     1       2.103  -4.658   5.920  0.00  0.00    -0.077 C 
ATOM     27  C   UNL     1       1.094  -3.748   5.216  0.00  0.00    -0.004 C 
ATOM     28  H   UNL     1       3.636  -4.101   4.696  0.00  0.00    -0.081 HD
BRANCH  22  29
ATOM     29  C   UNL     1       0.282  -1.410   5.033  0.00  0.00    +0.310 C 
ATOM     30  O   UNL     1      -0.414  -1.846   4.146  0.00  0.00    -0.251 OA
BRANCH  29  31
ATOM     31  O   UNL     1       0.222  -0.109   5.356  0.00  0.00    -0.465 OA
BRANCH  31  33
ATOM     32  C   UNL     1      -0.618   2.145   5.118  0.00  0.00    +0.048 C 
ATOM     33  C   UNL     1      -0.688   0.703   4.611  0.00  0.00    +0.229 C 
ENDBRANCH  31  33
ENDBRANCH  29  31
ENDBRANCH  22  29
ENDBRANCH  20  25
ENDBRANCH   1  20
TORSDOF 8
