REMARK  Name = ZINC02067823
REMARK  4 active torsions:
REMARK  status: ('A' for Active; 'I' for Inactive)
REMARK    1  A    between atoms: C_9  and  O_32
REMARK    2  A    between atoms: C_10  and  C_11
REMARK    3  A    between atoms: N_12  and  C_13
REMARK    4  A    between atoms: C_16  and  C_19
REMARK                            x       y       z     vdW  Elec       q    Type
REMARK                         _______ _______ _______ _____ _____    ______ ____
ROOT
ATOM      1  C   UNL     1       7.293   0.119  -0.067  0.00  0.00    +0.064 A 
ATOM      2  C   UNL     1       7.459   1.219  -0.916  0.00  0.00    +0.028 A 
ATOM      3  C   UNL     1       8.640   1.903  -0.924  0.00  0.00    +0.015 A 
ATOM      4  C   UNL     1       9.685   1.505  -0.083  0.00  0.00    +0.037 A 
ATOM      5  C   UNL     1       9.520   0.406   0.765  0.00  0.00    +0.015 A 
ATOM      6  C   UNL     1       8.336  -0.275   0.778  0.00  0.00    +0.028 A 
ENDROOT
BRANCH   4   7
ATOM      7  C   UNL     1      10.962   2.244  -0.093  0.00  0.00    +0.228 A 
ATOM      8  N   UNL     1      12.006   1.956   0.647  0.00  0.00    -0.208 NA
ATOM      9  C   UNL     1      12.986   2.837   0.377  0.00  0.00    +0.118 A 
ATOM     10  C   UNL     1      14.348   3.025   0.870  0.00  0.00    +0.011 A 
ATOM     11  C   UNL     1      14.900   2.181   1.839  0.00  0.00    +0.011 A 
ATOM     12  C   UNL     1      16.177   2.393   2.270  0.00  0.00    +0.001 A 
ATOM     13  C   UNL     1      16.939   3.439   1.758  0.00  0.00    +0.001 A 
ATOM     14  C   UNL     1      16.432   4.279   0.814  0.00  0.00    +0.008 A 
ATOM     15  C   UNL     1      15.121   4.090   0.347  0.00  0.00    -0.016 A 
ATOM     16  C   UNL     1      14.564   4.938  -0.630  0.00  0.00    +0.012 A 
ATOM     17  C   UNL     1      13.297   4.751  -1.078  0.00  0.00    +0.049 A 
ATOM     18  C   UNL     1      12.495   3.716  -0.594  0.00  0.00    +0.156 A 
ATOM     19  O   UNL     1      11.233   3.312  -0.866  0.00  0.00    -0.435 OA
ENDBRANCH   4   7
BRANCH   1  21
ATOM     20  C   UNL     1       4.979   0.087  -0.045  0.00  0.00    +0.123 C 
ATOM     21  N   UNL     1       6.112  -0.565  -0.059  0.00  0.00    -0.255 NA
BRANCH  20  31
ATOM     22  C   UNL     1      -0.016   1.358   0.009  0.00  0.00    +0.001 A 
ATOM     23  C   UNL     1       1.167   2.091   0.002  0.00  0.00    +0.001 A 
ATOM     24  C   UNL     1       2.378   1.464  -0.013  0.00  0.00    +0.009 A 
ATOM     25  C   UNL     1       2.434   0.066  -0.021  0.00  0.00    -0.006 A 
ATOM     26  C   UNL     1       1.232  -0.682  -0.013  0.00  0.00    -0.017 A 
ATOM     27  C   UNL     1       0.002  -0.004   0.002  0.00  0.00    +0.008 A 
ATOM     28  C   UNL     1       1.290  -2.088  -0.021  0.00  0.00    +0.012 A 
ATOM     29  C   UNL     1       2.485  -2.736  -0.035  0.00  0.00    +0.046 A 
ATOM     30  C   UNL     1       3.696  -2.045  -0.043  0.00  0.00    +0.126 A 
ATOM     31  C   UNL     1       3.712  -0.647  -0.036  0.00  0.00    +0.042 A 
BRANCH  30  32
ATOM     32  O   UNL     1       4.864  -2.733  -0.057  0.00  0.00    -0.506 OA
ATOM     33  H   UNL     1       5.195  -2.928  -0.944  0.00  0.00    +0.292 HD
ENDBRANCH  30  32
ENDBRANCH  20  31
ENDBRANCH   1  21
TORSDOF 4
