REMARK  Name = ZINC13134766
REMARK  7 active torsions:
REMARK  status: ('A' for Active; 'I' for Inactive)
REMARK    1  A    between atoms: C_1  and  C_2
REMARK    2  A    between atoms: C_3  and  C_30
REMARK    3  A    between atoms: C_11  and  C_13
REMARK    4  A    between atoms: C_13  and  S_14
REMARK    5  A    between atoms: S_14  and  C_15
REMARK    6  A    between atoms: C_15  and  C_17
REMARK    7  A    between atoms: C_15  and  C_18
REMARK                            x       y       z     vdW  Elec       q    Type
REMARK                         _______ _______ _______ _____ _____    ______ ____
ROOT
ATOM      1  S   UNL     1      -0.022   1.810   0.012  0.00  0.00    -0.141 S 
ENDROOT
BRANCH   1   2
ATOM      2  C   UNL     1       0.002  -0.004   0.002  0.00  0.00    +0.130 C 
ATOM      3  C   UNL     1       0.606  -0.499  -1.314  0.00  0.00    +0.029 C 
BRANCH   2   4
ATOM      4  C   UNL     1      -1.405  -0.526   0.137  0.00  0.00    +0.231 C 
ATOM      5  O   UNL     1      -2.342   0.158  -0.216  0.00  0.00    -0.274 OA
ATOM      6  N   UNL     1      -1.622  -1.754   0.648  0.00  0.00    -0.264 N 
ATOM      7  C   UNL     1      -2.920  -2.236   0.772  0.00  0.00    +0.165 A 
ATOM      8  N   UNL     1      -4.055  -1.648   0.455  0.00  0.00    -0.229 NA
ATOM      9  C   UNL     1      -5.234  -2.241   0.629  0.00  0.00    +0.054 A 
ATOM     10  C   UNL     1      -5.199  -3.489   1.165  0.00  0.00    +0.014 A 
ATOM     11  S   UNL     1      -3.463  -3.766   1.393  0.00  0.00    -0.057 S 
ATOM     12  C   UNL     1      -6.351  -4.383   1.476  0.00  0.00    +0.044 C 
ATOM     13  C   UNL     1      -7.637  -3.542   1.437  0.00  0.00    +0.006 C 
ATOM     14  C   UNL     1      -7.630  -2.692   0.164  0.00  0.00    +0.006 C 
ATOM     15  C   UNL     1      -6.567  -1.597   0.268  0.00  0.00    +0.056 C 
ATOM     16  H   UNL     1      -0.873  -2.302   0.930  0.00  0.00    +0.157 HD
ENDBRANCH   2   4
ENDBRANCH   1   2
BRANCH   1  17
ATOM     17  C   UNL     1       1.731   2.272  -0.002  0.00  0.00    +0.144 C 
BRANCH  17  28
ATOM     18  C   UNL     1       3.228   8.808   0.019  0.00  0.00    +0.045 C 
ATOM     19  C   UNL     1       1.981   7.961   0.026  0.00  0.00    -0.026 A 
ATOM     20  C   UNL     1       0.768   8.537   0.041  0.00  0.00    -0.008 A 
ATOM     21  S   UNL     1      -0.348   7.147   0.044  0.00  0.00    -0.073 S 
ATOM     22  C   UNL     1       0.846   5.835   0.025  0.00  0.00    +0.116 A 
ATOM     23  C   UNL     1       2.078   6.513   0.017  0.00  0.00    +0.075 A 
ATOM     24  C   UNL     1       3.243   5.679   0.001  0.00  0.00    +0.260 A 
ATOM     25  O   UNL     1       4.357   6.173  -0.007  0.00  0.00    -0.267 OA
ATOM     26  N   UNL     1       3.088   4.342   0.002  0.00  0.00    -0.310 N 
ATOM     27  H   UNL     1       3.873   3.773  -0.005  0.00  0.00    +0.170 HD
ATOM     28  C   UNL     1       1.855   3.774   0.005  0.00  0.00    +0.121 A 
ATOM     29  N   UNL     1       0.773   4.507   0.019  0.00  0.00    -0.226 NA
ATOM     30  C   UNL     1       0.432  10.005   0.052  0.00  0.00    +0.052 C 
ENDBRANCH  17  28
ENDBRANCH   1  17
TORSDOF 4
