REMARK  Name = ZINC36371040
REMARK  10 active torsions:
REMARK  status: ('A' for Active; 'I' for Inactive)
REMARK    1  A    between atoms: C_1  and  C_2
REMARK    2  A    between atoms: C_2  and  C_4
REMARK    3  A    between atoms: C_10  and  C_38
REMARK    4  A    between atoms: C_12  and  O_34
REMARK    5  A    between atoms: C_19  and  O_30
REMARK    6  A    between atoms: C_23  and  C_29
REMARK    7  A    between atoms: O_30  and  C_31
REMARK    8  A    between atoms: C_31  and  C_33
REMARK    9  A    between atoms: O_34  and  C_35
REMARK   10  A    between atoms: C_35  and  C_37
REMARK                            x       y       z     vdW  Elec       q    Type
REMARK                         _______ _______ _______ _____ _____    ______ ____
ROOT
ATOM      1  C   UNL     1      -1.353  -1.054   0.364  0.00  0.00    +0.061 C 
ATOM      2  C   UNL     1      -1.677  -1.439   1.822  0.00  0.00    +0.012 C 
ATOM      3  C   UNL     1      -1.976  -2.949   1.829  0.00  0.00    +0.005 C 
ATOM      4  C   UNL     1      -1.276  -3.514   0.576  0.00  0.00    -0.001 C 
ATOM      5  C   UNL     1      -1.255  -2.357  -0.425  0.00  0.00    -0.016 C 
ATOM      6  C   UNL     1      -0.188  -2.435  -1.480  0.00  0.00    +0.052 C 
ATOM      7  C   UNL     1       1.150  -3.009  -1.025  0.00  0.00    +0.181 C 
ATOM      8  C   UNL     1       0.897  -4.332  -0.299  0.00  0.00    +0.040 C 
ATOM      9  C   UNL     1       0.118  -3.999   0.972  0.00  0.00    +0.003 C 
ATOM     10  C   UNL     1      -0.023  -5.255   1.830  0.00  0.00    +0.049 C 
ATOM     11  C   UNL     1       1.345  -5.761   2.273  0.00  0.00    +0.181 C 
ATOM     12  C   UNL     1       2.470  -5.064   1.506  0.00  0.00    +0.043 C 
ATOM     13  C   UNL     1       2.199  -5.068   0.006  0.00  0.00    -0.019 C 
ATOM     14  C   UNL     1       3.352  -4.403  -0.747  0.00  0.00    +0.015 C 
ATOM     15  C   UNL     1       4.667  -5.152  -0.517  0.00  0.00    +0.075 C 
ATOM     16  C   UNL     1       4.896  -5.250   0.975  0.00  0.00    +0.134 C 
ATOM     17  O   UNL     1       5.947  -4.905   1.465  0.00  0.00    -0.297 OA
ATOM     18  C   UNL     1       3.779  -5.792   1.832  0.00  0.00    +0.082 C 
ATOM     19  C   UNL     1       2.057  -6.516  -0.494  0.00  0.00    +0.012 C 
ATOM     20  C   UNL     1      -2.598  -2.464  -1.213  0.00  0.00    +0.012 C 
ENDROOT
BRANCH   1  22
ATOM     21  C   UNL     1       0.022   0.812  -0.823  0.00  0.00    +0.086 C 
ATOM     22  C   UNL     1      -0.134  -0.181   0.299  0.00  0.00    +0.134 C 
ATOM     23  O   UNL     1       0.721  -0.274   1.147  0.00  0.00    -0.297 OA
ENDBRANCH   1  22
BRANCH  11  24
ATOM     24  O   UNL     1       1.505  -5.498   3.674  0.00  0.00    -0.461 OA
BRANCH  24  25
ATOM     25  C   UNL     1       1.096  -6.453   4.524  0.00  0.00    +0.304 C 
ATOM     26  O   UNL     1       0.618  -7.477   4.097  0.00  0.00    -0.251 OA
ATOM     27  C   UNL     1       1.233  -6.247   6.011  0.00  0.00    +0.136 C 
ENDBRANCH  24  25
ENDBRANCH  11  24
BRANCH   7  28
ATOM     28  O   UNL     1       1.831  -2.093  -0.169  0.00  0.00    -0.461 OA
BRANCH  28  29
ATOM     29  C   UNL     1       2.700  -1.250  -0.748  0.00  0.00    +0.304 C 
ATOM     30  O   UNL     1       2.876  -1.288  -1.943  0.00  0.00    -0.251 OA
ATOM     31  C   UNL     1       3.457  -0.254   0.093  0.00  0.00    +0.136 C 
ENDBRANCH  28  29
ENDBRANCH   7  28
TORSDOF 5
