REMARK  Name = ZINC14132423
REMARK  4 active torsions:
REMARK  status: ('A' for Active; 'I' for Inactive)
REMARK    1  A    between atoms: C_1  and  C_2
REMARK    2  A    between atoms: C_18  and  S_19
REMARK    3  A    between atoms: S_19  and  C_20
REMARK    4  A    between atoms: C_20  and  C_21
REMARK                            x       y       z     vdW  Elec       q    Type
REMARK                         _______ _______ _______ _____ _____    ______ ____
ROOT
ATOM      1  C   UNL     1      -1.235  -0.862   0.109  0.00  0.00    +0.045 C 
ATOM      2  C   UNL     1       0.020  -0.031   0.036  0.00  0.00    -0.032 A 
ATOM      3  C   UNL     1       0.566   0.310  -1.194  0.00  0.00    +0.008 A 
ATOM      4  C   UNL     1       1.719   1.075  -1.216  0.00  0.00    +0.047 A 
ATOM      5  C   UNL     1       2.288   1.473  -0.012  0.00  0.00    +0.142 A 
ATOM      6  N   UNL     1       1.738   1.128   1.141  0.00  0.00    -0.237 NA
ATOM      7  C   UNL     1       0.639   0.400   1.193  0.00  0.00    +0.116 A 
ATOM      8  N   UNL     1       3.452   2.246  -0.019  0.00  0.00    -0.239 N 
ATOM      9  C   UNL     1       4.661   1.638  -0.035  0.00  0.00    +0.268 A 
ATOM     10  O   UNL     1       4.757   0.425  -0.041  0.00  0.00    -0.267 OA
ATOM     11  C   UNL     1       5.853   2.497  -0.043  0.00  0.00    +0.065 A 
ATOM     12  C   UNL     1       7.142   1.966  -0.059  0.00  0.00    +0.015 A 
ATOM     13  C   UNL     1       8.218   2.811  -0.066  0.00  0.00    +0.001 A 
ATOM     14  C   UNL     1       8.039   4.188  -0.058  0.00  0.00    +0.002 A 
ATOM     15  C   UNL     1       6.787   4.735  -0.041  0.00  0.00    +0.028 A 
ATOM     16  C   UNL     1       5.667   3.898  -0.034  0.00  0.00    +0.079 A 
ATOM     17  N   UNL     1       4.409   4.397  -0.018  0.00  0.00    -0.223 NA
ATOM     18  C   UNL     1       3.361   3.611  -0.017  0.00  0.00    +0.178 A 
ENDROOT
BRANCH  18  19
ATOM     19  S   UNL     1       1.759   4.346  -0.004  0.00  0.00    -0.079 S 
BRANCH  19  20
ATOM     20  C   UNL     1       2.217   6.097  -0.005  0.00  0.00    +0.151 C 
BRANCH  20  21
ATOM     21  C   UNL     1       0.970   6.943   0.005  0.00  0.00    +0.121 A 
ATOM     22  N   UNL     1       1.108   8.295   0.011  0.00  0.00    -0.310 N 
ATOM     23  H   UNL     1       1.994   8.687   0.009  0.00  0.00    +0.170 HD
ATOM     24  C   UNL     1       0.018   9.098   0.015  0.00  0.00    +0.259 A 
ATOM     25  O   UNL     1       0.127  10.310   0.016  0.00  0.00    -0.267 OA
ATOM     26  C   UNL     1      -1.301   8.449   0.024  0.00  0.00    +0.066 A 
ATOM     27  C   UNL     1      -2.484   9.186   0.033  0.00  0.00    +0.035 A 
ATOM     28  C   UNL     1      -3.695   8.526   0.040  0.00  0.00    +0.042 A 
ATOM     29  C   UNL     1      -3.742   7.137   0.039  0.00  0.00    +0.022 A 
ATOM     30  C   UNL     1      -2.584   6.392   0.030  0.00  0.00    +0.030 A 
ATOM     31  C   UNL     1      -1.346   7.038   0.022  0.00  0.00    +0.078 A 
ATOM     32  N   UNL     1      -0.181   6.342   0.013  0.00  0.00    -0.233 NA
ATOM     33 CL   UNL     1      -5.172   9.437   0.052  0.00  0.00    -0.084 Cl
ENDBRANCH  20  21
ENDBRANCH  19  20
ENDBRANCH  18  19
TORSDOF 3
