REMARK  Name = ZINC03894950
REMARK  8 active torsions:
REMARK  status: ('A' for Active; 'I' for Inactive)
REMARK    1  A    between atoms: C_1  and  C_2
REMARK    2  A    between atoms: C_4  and  C_22
REMARK    3  A    between atoms: C_7  and  C_14
REMARK    4  A    between atoms: C_9  and  C_13
REMARK    5  A    between atoms: C_17  and  O_20
REMARK    6  A    between atoms: O_20  and  C_21
REMARK    7  A    between atoms: C_25  and  O_28
REMARK    8  A    between atoms: O_28  and  C_29
REMARK                            x       y       z     vdW  Elec       q    Type
REMARK                         _______ _______ _______ _____ _____    ______ ____
ROOT
ATOM      1  C   UNL     1       0.064   1.571  -0.600  0.00  0.00    +0.014 C 
ATOM      2  C   UNL     1       0.054   0.041  -0.564  0.00  0.00    +0.043 C 
ATOM      3  C   UNL     1       1.000  -0.508  -1.638  0.00  0.00    -0.030 C 
ATOM      4  N   UNL     1       2.380  -0.126  -1.316  0.00  0.00    +0.389 N 
ATOM      5  C   UNL     1       2.820  -0.803  -0.090  0.00  0.00    -0.030 C 
ATOM      6  C   UNL     1       2.014  -0.277   1.103  0.00  0.00    +0.043 C 
ATOM      7  C   UNL     1       0.540  -0.441   0.787  0.00  0.00    +0.136 C 
ATOM      8  O   UNL     1      -0.219  -0.938   1.584  0.00  0.00    -0.297 OA
ATOM      9  C   UNL     1       2.366  -1.077   2.358  0.00  0.00    +0.014 C 
ATOM     10  H   UNL     1       2.986  -0.389  -2.078  0.00  0.00    -0.084 HD
ATOM     11  H   UNL     1       2.428   0.873  -1.181  0.00  0.00    -0.084 HD
ENDROOT
BRANCH   5  12
ATOM     12  C   UNL     1       2.600  -2.288  -0.229  0.00  0.00    -0.060 A 
ATOM     13  C   UNL     1       1.564  -2.898   0.453  0.00  0.00    +0.005 A 
ATOM     14  C   UNL     1       1.361  -4.259   0.328  0.00  0.00    +0.046 A 
ATOM     15  C   UNL     1       2.196  -5.012  -0.484  0.00  0.00    +0.120 A 
ATOM     16  C   UNL     1       3.234  -4.397  -1.168  0.00  0.00    +0.046 A 
ATOM     17  C   UNL     1       3.430  -3.035  -1.043  0.00  0.00    +0.005 A 
BRANCH  15  18
ATOM     18  O   UNL     1       1.998  -6.351  -0.609  0.00  0.00    -0.495 OA
ATOM     19  C   UNL     1       2.897  -7.063  -1.462  0.00  0.00    +0.277 C 
ENDBRANCH  15  18
ENDBRANCH   5  12
BRANCH   3  20
ATOM     20  C   UNL     1       0.621   0.062  -2.980  0.00  0.00    -0.060 A 
ATOM     21  C   UNL     1       1.029   1.337  -3.328  0.00  0.00    +0.005 A 
ATOM     22  C   UNL     1       0.683   1.862  -4.558  0.00  0.00    +0.046 A 
ATOM     23  C   UNL     1      -0.074   1.110  -5.444  0.00  0.00    +0.120 A 
ATOM     24  C   UNL     1      -0.482  -0.169  -5.093  0.00  0.00    +0.046 A 
ATOM     25  C   UNL     1      -0.129  -0.692  -3.864  0.00  0.00    +0.005 A 
BRANCH  23  26
ATOM     26  O   UNL     1      -0.416   1.625  -6.654  0.00  0.00    -0.495 OA
ATOM     27  C   UNL     1      -1.197   0.794  -7.516  0.00  0.00    +0.277 C 
ENDBRANCH  23  26
ENDBRANCH   3  20
TORSDOF 4
