REMARK  Name = ZINC28487543
REMARK  8 active torsions:
REMARK  status: ('A' for Active; 'I' for Inactive)
REMARK    1  A    between atoms: C_1  and  C_2
REMARK    2  A    between atoms: C_2  and  O_3
REMARK    3  A    between atoms: O_3  and  C_4
REMARK    4  A    between atoms: C_7  and  S_10
REMARK    5  A    between atoms: S_10  and  N_13
REMARK    6  A    between atoms: C_16  and  C_19
REMARK    7  A    between atoms: C_23  and  C_30
REMARK    8  A    between atoms: C_26  and  C_29
REMARK                            x       y       z     vdW  Elec       q    Type
REMARK                         _______ _______ _______ _____ _____    ______ ____
ROOT
ATOM      1  N   UNL     1      -3.966   3.615   0.222  0.00  0.00    -0.177 NA
ATOM      2  C   UNL     1      -3.930   2.483  -0.714  0.00  0.00    +0.110 C 
ATOM      3  C   UNL     1      -2.652   1.677  -0.465  0.00  0.00    +0.030 C 
ATOM      4  C   UNL     1      -1.440   2.607  -0.557  0.00  0.00    +0.078 C 
ATOM      5  C   UNL     1      -1.545   3.692   0.518  0.00  0.00    +0.030 C 
ATOM      6  C   UNL     1      -2.811   4.521   0.279  0.00  0.00    +0.110 C 
ENDROOT
BRANCH   4   7
ATOM      7  C   UNL     1      -0.178   1.811  -0.346  0.00  0.00    +0.219 C 
ATOM      8  O   UNL     1      -0.238   0.693   0.120  0.00  0.00    -0.275 OA
ATOM      9  N   UNL     1       1.015   2.339  -0.682  0.00  0.00    -0.301 N 
ATOM     10  C   UNL     1       2.262   1.625  -0.375  0.00  0.00    +0.111 C 
ATOM     11  C   UNL     1       3.079   1.490  -1.669  0.00  0.00    +0.004 C 
ATOM     12  C   UNL     1       3.284   2.876  -2.284  0.00  0.00    +0.009 C 
ATOM     13  C   UNL     1       1.925   3.487  -2.634  0.00  0.00    +0.004 C 
ATOM     14  C   UNL     1       1.095   3.642  -1.355  0.00  0.00    +0.111 C 
ATOM     15  C   UNL     1       2.132   4.859  -3.278  0.00  0.00    +0.009 C 
ATOM     16  C   UNL     1       2.328   0.598  -2.660  0.00  0.00    +0.009 C 
ENDBRANCH   4   7
BRANCH   1  17
ATOM     17  S   UNL     1      -5.283   3.864   1.194  0.00  0.00    +0.061 S 
ATOM     18  O   UNL     1      -5.283   5.244   1.533  0.00  0.00    -0.153 OA
ATOM     19  O   UNL     1      -6.386   3.237   0.554  0.00  0.00    -0.153 OA
BRANCH  17  23
ATOM     20  C   UNL     1      -4.557   1.589   5.042  0.00  0.00    +0.121 A 
ATOM     21  C   UNL     1      -4.137   2.905   4.923  0.00  0.00    +0.047 A 
ATOM     22  C   UNL     1      -4.360   3.597   3.749  0.00  0.00    +0.032 A 
ATOM     23  C   UNL     1      -5.001   2.979   2.692  0.00  0.00    +0.106 A 
ATOM     24  C   UNL     1      -5.426   1.668   2.809  0.00  0.00    +0.032 A 
ATOM     25  C   UNL     1      -5.201   0.970   3.980  0.00  0.00    +0.047 A 
BRANCH  20  26
ATOM     26  O   UNL     1      -4.340   0.906   6.197  0.00  0.00    -0.492 OA
BRANCH  26  28
ATOM     27  C   UNL     1      -4.468  -1.047   7.615  0.00  0.00    +0.048 C 
ATOM     28  C   UNL     1      -4.799  -0.446   6.247  0.00  0.00    +0.225 C 
ENDBRANCH  26  28
ENDBRANCH  20  26
ENDBRANCH  17  23
ENDBRANCH   1  17
TORSDOF 5
