REMARK  Name = ZINC02747501
REMARK  8 active torsions:
REMARK  status: ('A' for Active; 'I' for Inactive)
REMARK    1  A    between atoms: C_1  and  C_2
REMARK    2  A    between atoms: C_2  and  O_3
REMARK    3  A    between atoms: O_3  and  C_4
REMARK    4  A    between atoms: C_4  and  C_6
REMARK    5  A    between atoms: C_7  and  C_30
REMARK    6  A    between atoms: C_14  and  C_15
REMARK    7  A    between atoms: C_21  and  C_23
REMARK    8  A    between atoms: C_26  and  O_29
REMARK                            x       y       z     vdW  Elec       q    Type
REMARK                         _______ _______ _______ _____ _____    ______ ____
ROOT
ATOM      1  C   UNL     1      -1.375   8.633   0.009  0.00  0.00    +0.085 C 
ATOM      2  C   UNL     1      -2.488   7.843   0.090  0.00  0.00    +0.053 C 
ATOM      3  N   UNL     1      -2.375   6.522   0.136  0.00  0.00    -0.228 NA
ATOM      4  C   UNL     1      -1.241   5.867   0.108  0.00  0.00    +0.178 A 
ATOM      5  N   UNL     1      -0.006   6.469   0.029  0.00  0.00    -0.275 N 
ATOM      6  C   UNL     1       1.085   5.693   0.014  0.00  0.00    +0.268 A 
ATOM      7  O   UNL     1       2.199   6.181  -0.049  0.00  0.00    -0.266 OA
ATOM      8  C   UNL     1       0.900   4.239   0.072  0.00  0.00    +0.081 A 
ATOM      9  C   UNL     1       1.831   3.248   0.067  0.00  0.00    +0.031 C 
ATOM     10  S   UNL     1      -0.880   4.123   0.158  0.00  0.00    -0.046 S 
ATOM     11  C   UNL     1      -0.024   7.957  -0.027  0.00  0.00    +0.162 C 
ATOM     12  C   UNL     1      -3.854   8.479   0.129  0.00  0.00    +0.066 C 
ENDROOT
BRANCH  11  13
ATOM     13  C   UNL     1       0.673   8.382  -1.294  0.00  0.00    -0.020 A 
ATOM     14  C   UNL     1       0.473   7.671  -2.463  0.00  0.00    +0.009 A 
ATOM     15  C   UNL     1       1.107   8.062  -3.627  0.00  0.00    +0.046 A 
ATOM     16  C   UNL     1       1.952   9.161  -3.619  0.00  0.00    +0.117 A 
ATOM     17  C   UNL     1       2.155   9.870  -2.444  0.00  0.00    +0.046 A 
ATOM     18  C   UNL     1       1.515   9.479  -1.284  0.00  0.00    +0.009 A 
BRANCH  16  19
ATOM     19  O   UNL     1       2.582   9.543  -4.762  0.00  0.00    -0.507 OA
ATOM     20  H   UNL     1       3.445   9.128  -4.893  0.00  0.00    +0.292 HD
ENDBRANCH  16  19
ENDBRANCH  11  13
BRANCH   9  21
ATOM     21  C   UNL     1       1.409   1.845   0.139  0.00  0.00    +0.014 A 
ATOM     22  C   UNL     1       2.274   0.655   0.146  0.00  0.00    +0.049 A 
ATOM     23  C   UNL     1       1.450  -0.401   0.223  0.00  0.00    +0.195 A 
ATOM     24  O   UNL     1       0.180   0.032   0.264  0.00  0.00    -0.470 OA
ATOM     25  C   UNL     1       0.129   1.369   0.215  0.00  0.00    +0.202 A 
ENDBRANCH   9  21
BRANCH   1  26
ATOM     26  C   UNL     1      -1.484  10.033  -0.038  0.00  0.00    +0.339 C 
ATOM     27  O   UNL     1      -2.582  10.555  -0.118  0.00  0.00    -0.245 OA
BRANCH  26  28
ATOM     28  O   UNL     1      -0.372  10.799   0.005  0.00  0.00    -0.462 OA
BRANCH  28  30
ATOM     29  C   UNL     1       0.804  12.910   0.012  0.00  0.00    +0.048 C 
ATOM     30  C   UNL     1      -0.558  12.215  -0.048  0.00  0.00    +0.229 C 
ENDBRANCH  28  30
ENDBRANCH  26  28
ENDBRANCH   1  26
TORSDOF 6
