REMARK  Name = ZINC22313332
REMARK  11 active torsions:
REMARK  status: ('A' for Active; 'I' for Inactive)
REMARK    1  A    between atoms: C_4  and  S_7
REMARK    2  A    between atoms: S_7  and  N_10
REMARK    3  A    between atoms: N_10  and  C_11
REMARK    4  A    between atoms: N_10  and  C_25
REMARK    5  A    between atoms: C_11  and  C_12
REMARK    6  A    between atoms: N_14  and  C_15
REMARK    7  A    between atoms: C_15  and  C_16
REMARK    8  A    between atoms: C_16  and  C_17
REMARK    9  A    between atoms: C_17  and  O_18
REMARK   10  A    between atoms: O_18  and  C_19
REMARK   11  A    between atoms: C_29  and  N_31
REMARK                            x       y       z     vdW  Elec       q    Type
REMARK                         _______ _______ _______ _____ _____    ______ ____
ROOT
ATOM      1  N   UNL     1       4.278  -1.182  -1.624  0.00  0.00    -0.194 N 
ENDROOT
BRANCH   1   2
ATOM      2  C   UNL     1       5.097  -0.328  -2.366  0.00  0.00    +0.054 A 
ATOM      3  C   UNL     1       5.282   0.987  -1.959  0.00  0.00    +0.025 A 
ATOM      4  C   UNL     1       6.097   1.827  -2.692  0.00  0.00    +0.004 A 
ATOM      5  C   UNL     1       6.720   1.363  -3.837  0.00  0.00    +0.033 A 
ATOM      6  C   UNL     1       6.534   0.056  -4.247  0.00  0.00    +0.128 A 
ATOM      7  C   UNL     1       5.724  -0.791  -3.515  0.00  0.00    +0.057 A 
BRANCH   6   8
ATOM      8  N   UNL     1       7.202  -0.436  -5.473  0.00  0.00    +0.056 N 
ATOM      9  O   UNL     1       7.038  -1.587  -5.836  0.00  0.00    -0.126 OA
ATOM     10  O   UNL     1       7.916   0.310  -6.119  0.00  0.00    -0.126 OA
ENDBRANCH   6   8
ENDBRANCH   1   2
BRANCH   1  11
ATOM     11  S   UNL     1       4.652  -1.526  -0.048  0.00  0.00    +0.075 S 
ATOM     12  O   UNL     1       6.057  -1.357   0.082  0.00  0.00    -0.150 OA
ATOM     13  O   UNL     1       3.999  -2.748   0.268  0.00  0.00    -0.150 OA
BRANCH  11  17
ATOM     14  C   UNL     1       2.723   1.670   2.513  0.00  0.00    +0.000 A 
ATOM     15  C   UNL     1       4.043   1.801   2.122  0.00  0.00    +0.002 A 
ATOM     16  C   UNL     1       4.631   0.825   1.340  0.00  0.00    +0.029 A 
ATOM     17  C   UNL     1       3.901  -0.282   0.949  0.00  0.00    +0.109 A 
ATOM     18  C   UNL     1       2.582  -0.413   1.341  0.00  0.00    +0.029 A 
ATOM     19  C   UNL     1       1.993   0.563   2.122  0.00  0.00    +0.002 A 
ENDBRANCH  11  17
ENDBRANCH   1  11
BRANCH   1  20
ATOM     20  C   UNL     1       3.087  -1.773  -2.240  0.00  0.00    +0.227 C 
BRANCH  20  21
ATOM     21  C   UNL     1       1.934  -0.808  -2.132  0.00  0.00    +0.232 C 
ATOM     22  O   UNL     1       2.092   0.267  -1.594  0.00  0.00    -0.274 OA
ATOM     23  N   UNL     1       0.729  -1.140  -2.634  0.00  0.00    -0.314 N 
ATOM     24  H   UNL     1       0.586  -2.116  -3.122  0.00  0.00    +0.149 HD
BRANCH  23  25
ATOM     25  C   UNL     1      -0.392  -0.203  -2.529  0.00  0.00    +0.106 C 
BRANCH  25  26
ATOM     26  C   UNL     1      -1.635  -0.820  -3.173  0.00  0.00    +0.047 C 
BRANCH  26  27
ATOM     27  C   UNL     1      -2.806   0.160  -3.063  0.00  0.00    +0.161 C 
BRANCH  27  28
ATOM     28  O   UNL     1      -3.967  -0.417  -3.664  0.00  0.00    -0.377 OA
BRANCH  28  29
ATOM     29  C   UNL     1      -5.123   0.421  -3.616  0.00  0.00    +0.118 C 
ATOM     30  C   UNL     1      -5.904   0.140  -2.330  0.00  0.00    +0.031 C 
ATOM     31  C   UNL     1      -7.142   1.037  -2.278  0.00  0.00    +0.003 C 
ATOM     32  C   UNL     1      -8.032   0.749  -3.489  0.00  0.00    +0.000 C 
ATOM     33  C   UNL     1      -7.252   1.030  -4.774  0.00  0.00    +0.003 C 
ATOM     34  C   UNL     1      -6.014   0.133  -4.826  0.00  0.00    +0.031 C 
ENDBRANCH  28  29
ENDBRANCH  27  28
ENDBRANCH  26  27
ENDBRANCH  25  26
ENDBRANCH  23  25
ENDBRANCH  20  21
ENDBRANCH   1  20
TORSDOF 11
