REMARK  Name = ZINC15945198
REMARK  7 active torsions:
REMARK  status: ('A' for Active; 'I' for Inactive)
REMARK    1  A    between atoms: C_1  and  C_2
REMARK    2  A    between atoms: C_2  and  C_3
REMARK    3  A    between atoms: C_2  and  C_4
REMARK    4  A    between atoms: C_2  and  C_5
REMARK    5  A    between atoms: C_17  and  C_20
REMARK    6  A    between atoms: C_23  and  C_25
REMARK    7  A    between atoms: C_29  and  N_31
REMARK                            x       y       z     vdW  Elec       q    Type
REMARK                         _______ _______ _______ _____ _____    ______ ____
ROOT
ATOM      1  C   UNL     1       4.050  -5.796  -7.049  0.00  0.00    -0.000 C 
ATOM      2  C   UNL     1       2.595  -5.997  -6.617  0.00  0.00    +0.009 C 
ATOM      3  C   UNL     1       2.549  -6.639  -5.230  0.00  0.00    +0.037 C 
ATOM      4  C   UNL     1       3.412  -5.818  -4.279  0.00  0.00    -0.023 A 
ATOM      5  C   UNL     1       4.344  -4.962  -4.754  0.00  0.00    -0.004 A 
ATOM      6  S   UNL     1       5.083  -4.242  -3.311  0.00  0.00    -0.078 S 
ATOM      7  C   UNL     1       4.176  -5.059  -2.110  0.00  0.00    +0.080 A 
ATOM      8  C   UNL     1       3.304  -5.890  -2.831  0.00  0.00    +0.068 A 
ATOM      9  C   UNL     1       2.378  -6.745  -2.054  0.00  0.00    +0.248 C 
ATOM     10  O   UNL     1       1.714  -7.613  -2.591  0.00  0.00    -0.270 OA
ATOM     11  N   UNL     1       2.299  -6.521  -0.725  0.00  0.00    -0.287 N 
ATOM     12  C   UNL     1       2.944  -5.397  -0.054  0.00  0.00    +0.227 C 
ATOM     13  N   UNL     1       4.187  -5.005  -0.742  0.00  0.00    -0.314 N 
ATOM     14  C   UNL     1       4.672  -4.687  -6.189  0.00  0.00    +0.046 C 
ATOM     15  H   UNL     1       1.786  -7.143  -0.185  0.00  0.00    +0.151 HD
ATOM     16  H   UNL     1       4.974  -4.721  -0.251  0.00  0.00    +0.149 HD
ENDROOT
BRANCH  12  17
ATOM     17  C   UNL     1       1.997  -4.224  -0.039  0.00  0.00    +0.144 A 
ATOM     18  C   UNL     1       0.652  -4.300  -0.026  0.00  0.00    +0.049 A 
ATOM     19  C   UNL     1       0.164  -2.978  -0.015  0.00  0.00    +0.050 A 
ATOM     20  C   UNL     1       1.250  -2.160  -0.021  0.00  0.00    +0.135 A 
ATOM     21  O   UNL     1       2.355  -2.930  -0.042  0.00  0.00    -0.456 OA
BRANCH  20  22
ATOM     22  C   UNL     1       1.222  -0.682  -0.013  0.00  0.00    +0.019 A 
ATOM     23  C   UNL     1       0.002  -0.004   0.002  0.00  0.00    +0.012 A 
ATOM     24  C   UNL     1      -0.017   1.375   0.010  0.00  0.00    +0.003 A 
ATOM     25  C   UNL     1       1.170   2.086   0.002  0.00  0.00    +0.033 A 
ATOM     26  C   UNL     1       2.383   1.420  -0.013  0.00  0.00    +0.127 A 
ATOM     27  C   UNL     1       2.416   0.041  -0.021  0.00  0.00    +0.044 A 
BRANCH  26  28
ATOM     28  N   UNL     1       3.648   2.189  -0.021  0.00  0.00    +0.056 N 
ATOM     29  O   UNL     1       4.716   1.604  -0.034  0.00  0.00    -0.126 OA
ATOM     30  O   UNL     1       3.620   3.407  -0.014  0.00  0.00    -0.126 OA
ENDBRANCH  26  28
ENDBRANCH  20  22
ENDBRANCH  12  17
BRANCH   1  32
ATOM     31  C   UNL     1       5.550  -5.170  -8.947  0.00  0.00    +0.011 C 
ATOM     32  C   UNL     1       4.096  -5.388  -8.523  0.00  0.00    -0.035 C 
ATOM     33  C   UNL     1       3.476  -6.495  -9.378  0.00  0.00    +0.011 C 
ATOM     34  C   UNL     1       3.308  -4.092  -8.719  0.00  0.00    +0.011 C 
ENDBRANCH   1  32
TORSDOF 4
