REMARK  Name = ZINC47553583
REMARK  7 active torsions:
REMARK  status: ('A' for Active; 'I' for Inactive)
REMARK    1  A    between atoms: C_1  and  C_2
REMARK    2  A    between atoms: C_4  and  C_27
REMARK    3  A    between atoms: C_6  and  C_8
REMARK    4  A    between atoms: N_10  and  C_11
REMARK    5  A    between atoms: C_11  and  C_12
REMARK    6  A    between atoms: N_14  and  C_15
REMARK    7  A    between atoms: C_17  and  C_23
REMARK                            x       y       z     vdW  Elec       q    Type
REMARK                         _______ _______ _______ _____ _____    ______ ____
ROOT
ATOM      1  C   UNL     1      -0.116  -1.956   6.062  0.00  0.00    +0.235 C 
ATOM      2  O   UNL     1      -0.286  -0.770   5.872  0.00  0.00    -0.274 OA
ATOM      3  N   UNL     1       0.068  -2.419   7.314  0.00  0.00    -0.280 N 
ATOM      4  H   UNL     1       0.132  -3.374   7.473  0.00  0.00    +0.155 HD
ENDROOT
BRANCH   3   5
ATOM      5  C   UNL     1       0.167  -1.521   8.386  0.00  0.00    +0.099 A 
ATOM      6  C   UNL     1      -0.709  -1.596   9.434  0.00  0.00    +0.042 A 
ATOM      7  C   UNL     1      -0.588  -0.685  10.493  0.00  0.00    +0.073 A 
ATOM      8  C   UNL     1       0.387   0.253  10.472  0.00  0.00    +0.098 A 
ATOM      9  N   UNL     1       1.258   0.328   9.431  0.00  0.00    -0.327 N 
ATOM     10  H   UNL     1       1.950   1.008   9.434  0.00  0.00    +0.168 HD
ATOM     11  C   UNL     1       1.175  -0.533   8.399  0.00  0.00    +0.270 A 
ATOM     12  O   UNL     1       1.967  -0.455   7.474  0.00  0.00    -0.266 OA
BRANCH   7  13
ATOM     13  C   UNL     1      -1.544  -0.752  11.657  0.00  0.00    +0.419 C 
ATOM     14  F   UNL     1      -1.225   0.250  12.580  0.00  0.00    -0.166 F 
ATOM     15  F   UNL     1      -2.851  -0.563  11.197  0.00  0.00    -0.166 F 
ATOM     16  F   UNL     1      -1.442  -2.004  12.273  0.00  0.00    -0.166 F 
ENDBRANCH   7  13
ENDBRANCH   3   5
BRANCH   1  17
ATOM     17  C   UNL     1      -0.109  -2.912   4.896  0.00  0.00    +0.200 C 
BRANCH  17  20
ATOM     18  C   UNL     1      -0.361  -2.820   2.475  0.00  0.00    +0.244 C 
ATOM     19  O   UNL     1      -0.210  -4.026   2.443  0.00  0.00    -0.270 OA
ATOM     20  N   UNL     1      -0.328  -2.168   3.653  0.00  0.00    -0.303 N 
ATOM     21  H   UNL     1      -0.448  -1.205   3.679  0.00  0.00    +0.150 HD
BRANCH  18  27
ATOM     22  C   UNL     1      -1.151   1.504   0.113  0.00  0.00    +0.044 C 
ATOM     23  C   UNL     1      -0.962   0.010   0.079  0.00  0.00    -0.049 A 
ATOM     24  C   UNL     1      -0.996  -0.663  -1.129  0.00  0.00    +0.006 A 
ATOM     25  C   UNL     1      -0.824  -2.035  -1.169  0.00  0.00    -0.049 A 
ATOM     26  C   UNL     1      -0.617  -2.742  -0.002  0.00  0.00    +0.016 A 
ATOM     27  C   UNL     1      -0.582  -2.069   1.220  0.00  0.00    +0.037 A 
ATOM     28  C   UNL     1      -0.751  -0.684   1.253  0.00  0.00    +0.016 A 
ATOM     29  C   UNL     1      -0.863  -2.760  -2.490  0.00  0.00    +0.044 C 
ENDBRANCH  18  27
ENDBRANCH  17  20
ENDBRANCH   1  17
TORSDOF 5
