REMARK  Name = ZINC04455723
REMARK  10 active torsions:
REMARK  status: ('A' for Active; 'I' for Inactive)
REMARK    1  A    between atoms: C_1  and  C_2
REMARK    2  A    between atoms: C_7  and  O_8
REMARK    3  A    between atoms: O_8  and  C_9
REMARK    4  A    between atoms: C_9  and  C_10
REMARK    5  A    between atoms: C_10  and  N_11
REMARK    6  A    between atoms: N_11  and  C_12
REMARK    7  A    between atoms: C_14  and  N_21
REMARK    8  A    between atoms: C_17  and  N_18
REMARK    9  A    between atoms: C_23  and  C_29
REMARK   10  A    between atoms: C_25  and  C_28
REMARK                            x       y       z     vdW  Elec       q    Type
REMARK                         _______ _______ _______ _____ _____    ______ ____
ROOT
ATOM      1  C   UNL     1      -1.187  -0.715   0.115  0.00  0.00    +0.060 A 
ATOM      2  C   UNL     1      -1.168  -2.103   0.094  0.00  0.00    +0.048 A 
ATOM      3  C   UNL     1       0.039  -2.776  -0.027  0.00  0.00    +0.031 A 
ATOM      4  C   UNL     1       1.226  -2.058  -0.126  0.00  0.00    +0.025 A 
ATOM      5  C   UNL     1       1.203  -0.677  -0.111  0.00  0.00    +0.036 A 
ATOM      6  C   UNL     1       0.003  -0.004   0.015  0.00  0.00    +0.147 A 
ENDROOT
BRANCH   3   7
ATOM      7  N   UNL     1       0.062  -4.172  -0.048  0.00  0.00    -0.333 N 
ATOM      8  C   UNL     1      -0.793  -4.696  -1.122  0.00  0.00    +0.089 C 
ATOM      9  C   UNL     1      -0.803  -6.225  -1.062  0.00  0.00    -0.057 C 
ATOM     10  C   UNL     1       1.427  -6.203  -0.122  0.00  0.00    -0.057 C 
ATOM     11  C   UNL     1       1.437  -4.674  -0.182  0.00  0.00    +0.089 C 
ATOM     12  C   UNL     1       0.881  -6.657   1.234  0.00  0.00    -0.012 C 
ATOM     13  C   UNL     1      -1.661  -6.775  -2.203  0.00  0.00    -0.012 C 
ATOM     14  N   UNL     1       0.574  -6.733  -1.202  0.00  0.00    +0.384 N 
ATOM     15  H   UNL     1       0.954  -6.438  -2.110  0.00  0.00    -0.085 HD
ATOM     16  H   UNL     1       0.564  -7.759  -1.154  0.00  0.00    -0.085 HD
ENDBRANCH   3   7
BRANCH   6  17
ATOM     17  N   UNL     1      -0.016   1.476   0.036  0.00  0.00    +0.058 N 
ATOM     18  O   UNL     1       1.031   2.098   0.057  0.00  0.00    -0.126 OA
ATOM     19  O   UNL     1      -1.078   2.071   0.028  0.00  0.00    -0.126 OA
ENDBRANCH   6  17
BRANCH   1  20
ATOM     20  N   UNL     1      -2.400  -0.034   0.235  0.00  0.00    -0.339 N 
ATOM     21  H   UNL     1      -2.422   0.934   0.168  0.00  0.00    +0.146 HD
BRANCH  20  22
ATOM     22  C   UNL     1      -3.640  -0.780   0.463  0.00  0.00    +0.142 C 
BRANCH  22  23
ATOM     23  C   UNL     1      -4.813   0.197   0.557  0.00  0.00    +0.247 C 
BRANCH  23  24
ATOM     24  O   UNL     1      -4.991   0.850  -0.702  0.00  0.00    -0.490 OA
BRANCH  24  31
ATOM     25  C   UNL     1      -5.360   2.152  -3.182  0.00  0.00    +0.047 C 
ATOM     26  C   UNL     1      -6.229   2.427  -1.982  0.00  0.00    -0.009 A 
ATOM     27  C   UNL     1      -7.255   3.349  -2.068  0.00  0.00    +0.007 A 
ATOM     28  C   UNL     1      -8.053   3.602  -0.968  0.00  0.00    +0.000 A 
ATOM     29  C   UNL     1      -7.827   2.933   0.222  0.00  0.00    +0.004 A 
ATOM     30  C   UNL     1      -6.806   2.008   0.312  0.00  0.00    +0.046 A 
ATOM     31  C   UNL     1      -6.000   1.756  -0.789  0.00  0.00    +0.123 A 
ENDBRANCH  24  31
ENDBRANCH  23  24
ENDBRANCH  22  23
ENDBRANCH  20  22
ENDBRANCH   1  20
TORSDOF 7
