REMARK  Name = ZINC12462571
REMARK  6 active torsions:
REMARK  status: ('A' for Active; 'I' for Inactive)
REMARK    1  A    between atoms: C_1  and  C_2
REMARK    2  A    between atoms: C_12  and  S_16
REMARK    3  A    between atoms: S_16  and  C_17
REMARK    4  A    between atoms: C_17  and  C_18
REMARK    5  A    between atoms: C_26  and  N_30
REMARK    6  A    between atoms: C_27  and  C_28
REMARK                            x       y       z     vdW  Elec       q    Type
REMARK                         _______ _______ _______ _____ _____    ______ ____
ROOT
ATOM      1  C   UNL     1      -0.018   1.503   0.010  0.00  0.00    +0.044 C 
ATOM      2  C   UNL     1       0.002  -0.004   0.002  0.00  0.00    -0.050 A 
ATOM      3  C   UNL     1       0.005  -0.673  -1.205  0.00  0.00    +0.005 A 
ATOM      4  C   UNL     1       0.024  -2.057  -1.277  0.00  0.00    +0.024 A 
ATOM      5  C   UNL     1       0.040  -2.759  -0.071  0.00  0.00    +0.038 A 
ATOM      6  C   UNL     1       0.036  -2.068   1.147  0.00  0.00    -0.001 A 
ATOM      7  C   UNL     1       0.023  -0.691   1.211  0.00  0.00    +0.010 A 
ATOM      8  C   UNL     1       0.054  -3.110   2.224  0.00  0.00    +0.144 C 
ATOM      9  C   UNL     1       1.295  -2.993   3.058  0.00  0.00    +0.083 A 
ATOM     10  C   UNL     1       1.239  -2.509   4.359  0.00  0.00    +0.137 A 
ATOM     11  N   UNL     1       2.360  -2.417   5.068  0.00  0.00    -0.206 NA
ATOM     12  C   UNL     1       3.521  -2.784   4.543  0.00  0.00    +0.194 A 
ATOM     13  N   UNL     1       3.610  -3.251   3.307  0.00  0.00    -0.183 NA
ATOM     14  C   UNL     1       2.529  -3.368   2.542  0.00  0.00    +0.281 A 
ATOM     15  O   UNL     1       2.629  -3.846   1.277  0.00  0.00    -0.265 OA
ATOM     16  N   UNL     1       0.025  -2.130   4.912  0.00  0.00    -0.287 N 
ATOM     17  C   UNL     1      -1.153  -2.547   4.339  0.00  0.00    +0.102 C 
ATOM     18  C   UNL     1      -1.184  -3.023   3.067  0.00  0.00    +0.089 C 
ATOM     19  C   UNL     1       0.067  -4.423   1.466  0.00  0.00    +0.238 C 
ATOM     20  O   UNL     1       0.082  -5.535   1.952  0.00  0.00    -0.274 OA
ATOM     21  N   UNL     1       0.059  -4.124   0.151  0.00  0.00    -0.284 N 
ATOM     22  H   UNL     1       0.066  -4.788  -0.555  0.00  0.00    +0.155 HD
ATOM     23  H   UNL     1       0.006  -1.571   5.704  0.00  0.00    +0.155 HD
ENDROOT
BRANCH  17  24
ATOM     24  N   UNL     1      -2.318  -2.481   5.064  0.00  0.00    -0.346 N 
ATOM     25  H   UNL     1      -2.305  -2.143   5.973  0.00  0.00    +0.144 HD
ATOM     26  H   UNL     1      -3.153  -2.774   4.668  0.00  0.00    +0.144 HD
ENDBRANCH  17  24
BRANCH  18  27
ATOM     27  C   UNL     1      -2.433  -3.454   2.516  0.00  0.00    +0.100 C 
ATOM     28  N   UNL     1      -3.424  -3.796   2.079  0.00  0.00    -0.191 NA
ENDBRANCH  18  27
BRANCH  12  29
ATOM     29  S   UNL     1       4.984  -2.647   5.516  0.00  0.00    -0.081 S 
BRANCH  29  30
ATOM     30  C   UNL     1       6.298  -3.248   4.420  0.00  0.00    +0.112 C 
BRANCH  30  31
ATOM     31  C   UNL     1       7.621  -3.183   5.138  0.00  0.00    -0.034 A 
ATOM     32  C   UNL     1       8.393  -2.038   5.064  0.00  0.00    +0.004 A 
ATOM     33  C   UNL     1       9.606  -1.977   5.723  0.00  0.00    +0.003 A 
ATOM     34  C   UNL     1      10.050  -3.061   6.457  0.00  0.00    +0.038 A 
ATOM     35  C   UNL     1       9.278  -4.208   6.532  0.00  0.00    +0.124 A 
ATOM     36  C   UNL     1       8.060  -4.266   5.877  0.00  0.00    +0.042 A 
ATOM     37  F   UNL     1       9.711  -5.268   7.249  0.00  0.00    -0.205 F 
ENDBRANCH  30  31
ENDBRANCH  29  30
ENDBRANCH  12  29
TORSDOF 5
