REMARK  Name = ZINC22740544
REMARK  7 active torsions:
REMARK  status: ('A' for Active; 'I' for Inactive)
REMARK    1  A    between atoms: C_8  and  O_9
REMARK    2  A    between atoms: C_10  and  N_12
REMARK    3  A    between atoms: N_12  and  C_13
REMARK    4  A    between atoms: C_13  and  N_15
REMARK    5  A    between atoms: C_16  and  C_18
REMARK    6  A    between atoms: C_19  and  C_20
REMARK    7  A    between atoms: C_23  and  C_25
REMARK                            x       y       z     vdW  Elec       q    Type
REMARK                         _______ _______ _______ _____ _____    ______ ____
ROOT
ATOM      1  N   UNL     1       0.062  -4.114   0.185  0.00  0.00    -0.264 N 
ATOM      2  C   UNL     1      -1.095  -4.795   0.294  0.00  0.00    +0.242 C 
ATOM      3  O   UNL     1      -2.156  -4.196   0.308  0.00  0.00    -0.270 OA
ATOM      4  H   UNL     1       0.907  -4.591   0.174  0.00  0.00    +0.157 HD
ENDROOT
BRANCH   1   5
ATOM      5  C   UNL     1       0.047  -2.770   0.090  0.00  0.00    +0.141 C 
ATOM      6  S   UNL     1      -1.444  -1.927   0.109  0.00  0.00    -0.018 S 
BRANCH   5   7
ATOM      7  N   UNL     1       1.204  -2.088  -0.020  0.00  0.00    -0.296 N 
ATOM      8  H   UNL     1       2.043  -2.568  -0.110  0.00  0.00    +0.154 HD
BRANCH   7  17
ATOM      9  C   UNL     1       0.419   1.379   0.946  0.00  0.00    +0.003 A 
ATOM     10  C   UNL     1       1.158   2.105   0.062  0.00  0.00    +0.012 A 
ATOM     11  C   UNL     1       1.950   1.450  -0.895  0.00  0.00    +0.025 A 
ATOM     12  C   UNL     1       1.972   0.035  -0.931  0.00  0.00    +0.007 A 
ATOM     13  C   UNL     1       2.764  -0.619  -1.889  0.00  0.00    +0.010 A 
ATOM     14  C   UNL     1       3.500   0.113  -2.771  0.00  0.00    +0.004 A 
ATOM     15  C   UNL     1       3.482   1.505  -2.740  0.00  0.00    +0.046 A 
ATOM     16  C   UNL     1       2.724   2.176  -1.823  0.00  0.00    +0.125 A 
ATOM     17  C   UNL     1       1.197  -0.692  -0.003  0.00  0.00    +0.040 A 
ATOM     18  C   UNL     1       0.433  -0.012   0.921  0.00  0.00    +0.024 A 
BRANCH  16  19
ATOM     19  O   UNL     1       2.717   3.534  -1.805  0.00  0.00    -0.506 OA
ATOM     20  H   UNL     1       3.395   3.924  -1.235  0.00  0.00    +0.292 HD
ENDBRANCH  16  19
ENDBRANCH   7  17
ENDBRANCH   5   7
ENDBRANCH   1   5
BRANCH   2  21
ATOM     21  C   UNL     1      -1.079  -6.205   0.393  0.00  0.00    +0.071 C 
ATOM     22  C   UNL     1      -2.247  -6.891   0.504  0.00  0.00    +0.051 C 
BRANCH  22  23
ATOM     23  C   UNL     1      -2.230  -8.301   0.603  0.00  0.00    +0.129 A 
ATOM     24  C   UNL     1      -3.340  -9.118   0.714  0.00  0.00    +0.050 A 
ATOM     25  C   UNL     1      -2.869 -10.431   0.784  0.00  0.00    +0.050 A 
ATOM     26  C   UNL     1      -1.495 -10.370   0.714  0.00  0.00    +0.137 A 
ATOM     27  O   UNL     1      -1.129  -9.081   0.600  0.00  0.00    -0.455 OA
BRANCH  26  28
ATOM     28  C   UNL     1      -0.578 -11.526   0.751  0.00  0.00    +0.037 A 
ATOM     29  C   UNL     1      -0.708 -12.493   1.751  0.00  0.00    +0.013 A 
ATOM     30  C   UNL     1       0.151 -13.571   1.780  0.00  0.00    +0.002 A 
ATOM     31  C   UNL     1       1.143 -13.697   0.823  0.00  0.00    +0.021 A 
ATOM     32  C   UNL     1       1.279 -12.744  -0.171  0.00  0.00    +0.060 A 
ATOM     33  C   UNL     1       0.421 -11.661  -0.217  0.00  0.00    +0.070 A 
ATOM     34 CL   UNL     1       0.589 -10.469  -1.468  0.00  0.00    -0.081 Cl
ATOM     35 CL   UNL     1       2.527 -12.911  -1.367  0.00  0.00    -0.082 Cl
ENDBRANCH  26  28
ENDBRANCH  22  23
ENDBRANCH   2  21
TORSDOF 7
