REMARK  Name = ZINC08519936
REMARK  3 active torsions:
REMARK  status: ('A' for Active; 'I' for Inactive)
REMARK    1  A    between atoms: C_8  and  N_9
REMARK    2  A    between atoms: N_9  and  C_10
REMARK    3  A    between atoms: N_20  and  C_23
REMARK                            x       y       z     vdW  Elec       q    Type
REMARK                         _______ _______ _______ _____ _____    ______ ____
ROOT
ATOM      1  C   UNL     1       0.013  -7.019  -0.307  0.00  0.00    +0.001 A 
ATOM      2  C   UNL     1      -1.182  -6.333  -0.147  0.00  0.00    +0.001 A 
ATOM      3  C   UNL     1      -1.191  -4.965   0.021  0.00  0.00    +0.014 A 
ATOM      4  C   UNL     1       0.015  -4.263   0.030  0.00  0.00    +0.046 A 
ATOM      5  C   UNL     1       1.228  -4.964  -0.134  0.00  0.00    +0.000 A 
ATOM      6  C   UNL     1       1.216  -6.344  -0.301  0.00  0.00    +0.009 A 
ATOM      7  C   UNL     1       2.487  -4.192  -0.120  0.00  0.00    +0.059 C 
ATOM      8  C   UNL     1       3.705  -4.818  -0.274  0.00  0.00    +0.081 C 
ATOM      9  C   UNL     1       2.403  -2.738   0.057  0.00  0.00    +0.259 C 
ATOM     10  O   UNL     1       3.422  -2.072   0.068  0.00  0.00    -0.269 OA
ATOM     11  N   UNL     1       1.213  -2.135   0.212  0.00  0.00    -0.202 N 
ATOM     12  C   UNL     1       0.050  -2.805   0.205  0.00  0.00    +0.258 C 
ATOM     13  O   UNL     1      -0.993  -2.195   0.346  0.00  0.00    -0.269 OA
ENDROOT
BRANCH  11  14
ATOM     14  C   UNL     1       1.184  -0.744   0.382  0.00  0.00    +0.045 A 
ATOM     15  C   UNL     1       1.249  -0.198   1.657  0.00  0.00    +0.027 A 
ATOM     16  C   UNL     1       1.219   1.173   1.823  0.00  0.00    +0.040 A 
ATOM     17  C   UNL     1       1.125   2.003   0.719  0.00  0.00    +0.124 A 
ATOM     18  C   UNL     1       1.061   1.461  -0.553  0.00  0.00    +0.040 A 
ATOM     19  C   UNL     1       1.090   0.090  -0.724  0.00  0.00    +0.027 A 
ATOM     20  F   UNL     1       1.097   3.344   0.884  0.00  0.00    -0.205 F 
ENDBRANCH  11  14
BRANCH   8  21
ATOM     21  N   UNL     1       3.786  -5.985  -0.965  0.00  0.00    -0.345 N 
ATOM     22  H   UNL     1       2.904  -6.371  -1.498  0.00  0.00    +0.146 HD
BRANCH  21  23
ATOM     23  C   UNL     1       5.048  -6.728  -1.001  0.00  0.00    +0.092 C 
ATOM     24  C   UNL     1       5.151  -7.619   0.248  0.00  0.00    +0.046 C 
ATOM     25  C   UNL     1       6.325  -8.617   0.036  0.00  0.00    +0.168 C 
ATOM     26  S   UNL     1       6.076  -9.059  -1.736  0.00  0.00    -0.029 S 
ATOM     27  O   UNL     1       5.261 -10.221  -1.812  0.00  0.00    -0.174 OA
ATOM     28  O   UNL     1       7.333  -9.041  -2.398  0.00  0.00    -0.174 OA
ATOM     29  C   UNL     1       5.093  -7.602  -2.278  0.00  0.00    +0.188 C 
ENDBRANCH  21  23
ENDBRANCH   8  21
TORSDOF 3
