REMARK  Name = ZINC21121890
REMARK  9 active torsions:
REMARK  status: ('A' for Active; 'I' for Inactive)
REMARK    1  A    between atoms: C_1  and  C_2
REMARK    2  A    between atoms: C_2  and  C_4
REMARK    3  A    between atoms: C_2  and  S_17
REMARK    4  A    between atoms: C_4  and  C_6
REMARK    5  A    between atoms: C_7  and  N_16
REMARK    6  A    between atoms: N_8  and  C_15
REMARK    7  A    between atoms: N_11  and  C_14
REMARK    8  A    between atoms: S_17  and  C_18
REMARK    9  A    between atoms: N_28  and  C_29
REMARK                            x       y       z     vdW  Elec       q    Type
REMARK                         _______ _______ _______ _____ _____    ______ ____
ROOT
ATOM      1  C   UNL     1       5.420   2.133   1.886  0.00  0.00    +0.028 C 
ATOM      2  C   UNL     1       5.323   1.092   0.768  0.00  0.00    +0.122 C 
ENDROOT
BRANCH   2   3
ATOM      3  C   UNL     1       6.692   0.528   0.487  0.00  0.00    +0.185 C 
ATOM      4  O   UNL     1       7.045  -0.504   1.022  0.00  0.00    -0.291 OA
BRANCH   3   5
ATOM      5  C   UNL     1       7.563   1.199  -0.397  0.00  0.00    +0.121 A 
ATOM      6  C   UNL     1       8.793   0.631  -0.774  0.00  0.00    +0.116 A 
ATOM      7  N   UNL     1       9.600   1.316  -1.637  0.00  0.00    -0.284 N 
ATOM      8  C   UNL     1       9.246   2.517  -2.119  0.00  0.00    +0.333 A 
ATOM      9  O   UNL     1      10.002   3.088  -2.880  0.00  0.00    -0.246 OA
ATOM     10  N   UNL     1       8.087   3.112  -1.790  0.00  0.00    -0.263 N 
ATOM     11  C   UNL     1       7.218   2.515  -0.949  0.00  0.00    +0.269 A 
ATOM     12  O   UNL     1       6.168   3.056  -0.654  0.00  0.00    -0.267 OA
ATOM     13  C   UNL     1       7.764   4.425  -2.353  0.00  0.00    +0.157 C 
ATOM     14  C   UNL     1      10.881   0.730  -2.040  0.00  0.00    +0.155 C 
BRANCH   6  15
ATOM     15  N   UNL     1       9.170  -0.584  -0.291  0.00  0.00    -0.344 N 
ATOM     16  H   UNL     1      10.134  -1.020  -0.591  0.00  0.00    +0.144 HD
ATOM     17  H   UNL     1       8.511  -1.130   0.400  0.00  0.00    +0.144 HD
ENDBRANCH   6  15
ENDBRANCH   3   5
ENDBRANCH   2   3
BRANCH   2  18
ATOM     18  S   UNL     1       4.214  -0.243   1.281  0.00  0.00    -0.076 S 
BRANCH  18  19
ATOM     19  C   UNL     1       2.696   0.646   1.393  0.00  0.00    +0.173 A 
ATOM     20  N   UNL     1       2.700   1.926   1.113  0.00  0.00    -0.223 NA
ATOM     21  C   UNL     1       1.570   2.668   1.178  0.00  0.00    +0.079 A 
ATOM     22  C   UNL     1       1.571   4.034   0.881  0.00  0.00    +0.028 A 
ATOM     23  C   UNL     1       0.407   4.744   0.960  0.00  0.00    +0.002 A 
ATOM     24  C   UNL     1      -0.781   4.129   1.332  0.00  0.00    +0.001 A 
ATOM     25  C   UNL     1      -0.814   2.796   1.635  0.00  0.00    +0.015 A 
ATOM     26  C   UNL     1       0.359   2.046   1.557  0.00  0.00    +0.065 A 
ATOM     27  C   UNL     1       0.383   0.609   1.865  0.00  0.00    +0.263 A 
ATOM     28  O   UNL     1      -0.627   0.018   2.196  0.00  0.00    -0.267 OA
ATOM     29  N   UNL     1       1.571  -0.032   1.766  0.00  0.00    -0.284 N 
BRANCH  29  30
ATOM     30  C   UNL     1       1.650  -1.464   2.063  0.00  0.00    +0.093 C 
ATOM     31  C   UNL     1       0.688  -2.248   1.146  0.00  0.00    +0.025 C 
ATOM     32  C   UNL     1       0.133  -3.374   2.054  0.00  0.00    +0.002 C 
ATOM     33  C   UNL     1      -0.029  -2.664   3.421  0.00  0.00    +0.002 C 
ATOM     34  C   UNL     1       1.195  -1.729   3.509  0.00  0.00    +0.025 C 
ENDBRANCH  29  30
ENDBRANCH  18  19
ENDBRANCH   2  18
TORSDOF 6
