REMARK  Name = ZINC28305376
REMARK  8 active torsions:
REMARK  status: ('A' for Active; 'I' for Inactive)
REMARK    1  A    between atoms: C_1  and  C_2
REMARK    2  A    between atoms: C_2  and  C_4
REMARK    3  A    between atoms: C_2  and  N_14
REMARK    4  A    between atoms: C_7  and  S_10
REMARK    5  A    between atoms: S_10  and  N_13
REMARK    6  A    between atoms: N_14  and  C_15
REMARK    7  A    between atoms: C_16  and  C_18
REMARK    8  A    between atoms: C_18  and  C_19
REMARK                            x       y       z     vdW  Elec       q    Type
REMARK                         _______ _______ _______ _____ _____    ______ ____
ROOT
ATOM      1  N   UNL     1       4.799   5.944  -1.567  0.00  0.00    -0.297 N 
ATOM      2  C   UNL     1       5.938   6.614  -0.936  0.00  0.00    +0.132 C 
ATOM      3  C   UNL     1       3.757   5.536  -0.816  0.00  0.00    +0.220 C 
ATOM      4  O   UNL     1       2.813   4.981  -1.338  0.00  0.00    -0.275 OA
ENDROOT
BRANCH   1   6
ATOM      5  C   UNL     1       6.094   5.030  -3.429  0.00  0.00    +0.033 C 
ATOM      6  C   UNL     1       4.792   5.718  -3.014  0.00  0.00    +0.103 C 
BRANCH   6   7
ATOM      7  C   UNL     1       4.671   7.039  -3.729  0.00  0.00    -0.027 A 
ATOM      8  C   UNL     1       5.011   8.210  -3.078  0.00  0.00    +0.007 A 
ATOM      9  C   UNL     1       4.906   9.422  -3.735  0.00  0.00    +0.029 A 
ATOM     10  C   UNL     1       4.450   9.464  -5.039  0.00  0.00    +0.105 A 
ATOM     11  C   UNL     1       4.105   8.293  -5.688  0.00  0.00    +0.029 A 
ATOM     12  C   UNL     1       4.216   7.081  -5.033  0.00  0.00    +0.007 A 
BRANCH  10  13
ATOM     13  S   UNL     1       4.309  11.009  -5.874  0.00  0.00    +0.056 S 
ATOM     14  O   UNL     1       5.210  11.901  -5.233  0.00  0.00    -0.153 OA
ATOM     15  O   UNL     1       4.377  10.726  -7.265  0.00  0.00    -0.153 OA
BRANCH  13  16
ATOM     16  N   UNL     1       2.784  11.585  -5.582  0.00  0.00    -0.204 NA
ATOM     17  H   UNL     1       2.655  12.553  -6.089  0.00  0.00    +0.144 HD
ATOM     18  H   UNL     1       2.643  11.716  -4.499  0.00  0.00    +0.144 HD
ENDBRANCH  13  16
ENDBRANCH  10  13
ENDBRANCH   6   7
ENDBRANCH   1   6
BRANCH   3  19
ATOM     19  C   UNL     1       3.764   5.769   0.673  0.00  0.00    +0.135 C 
BRANCH  19  20
ATOM     20  C   UNL     1       2.494   5.222   1.273  0.00  0.00    +0.007 A 
ATOM     21  C   UNL     1       1.366   5.904   1.534  0.00  0.00    +0.200 A 
ATOM     22  O   UNL     1       0.448   5.082   2.068  0.00  0.00    -0.463 OA
ATOM     23  C   UNL     1       0.932   3.828   2.180  0.00  0.00    +0.136 A 
ATOM     24  C   UNL     1       2.241   3.845   1.689  0.00  0.00    +0.031 A 
ATOM     25  C   UNL     1       3.018   2.612   1.687  0.00  0.00    -0.007 A 
ATOM     26  C   UNL     1       4.332   2.568   1.207  0.00  0.00    +0.009 A 
ATOM     27  C   UNL     1       5.019   1.390   1.226  0.00  0.00    +0.001 A 
ATOM     28  C   UNL     1       4.430   0.228   1.716  0.00  0.00    +0.001 A 
ATOM     29  C   UNL     1       3.151   0.234   2.185  0.00  0.00    +0.008 A 
ATOM     30  C   UNL     1       2.417   1.431   2.186  0.00  0.00    -0.017 A 
ATOM     31  C   UNL     1       1.095   1.477   2.668  0.00  0.00    +0.012 A 
ATOM     32  C   UNL     1       0.386   2.633   2.663  0.00  0.00    +0.047 A 
ENDBRANCH  19  20
ENDBRANCH   3  19
TORSDOF 6
