REMARK  Name = ZINC12358947
REMARK  10 active torsions:
REMARK  status: ('A' for Active; 'I' for Inactive)
REMARK    1  A    between atoms: C_1  and  C_2
REMARK    2  A    between atoms: C_2  and  O_29
REMARK    3  A    between atoms: C_3  and  C_27
REMARK    4  A    between atoms: C_6  and  C_13
REMARK    5  A    between atoms: C_6  and  O_14
REMARK    6  A    between atoms: C_7  and  C_11
REMARK    7  A    between atoms: C_7  and  O_12
REMARK    8  A    between atoms: C_8  and  C_9
REMARK    9  A    between atoms: C_8  and  O_10
REMARK   10  A    between atoms: O_14  and  C_15
REMARK                            x       y       z     vdW  Elec       q    Type
REMARK                         _______ _______ _______ _____ _____    ______ ____
ROOT
ATOM      1  C   UNL     1       2.082   1.113  -0.848  0.00  0.00    +0.048 C 
ATOM      2  C   UNL     1       1.228   1.730   0.262  0.00  0.00    +0.131 C 
ATOM      3  C   UNL     1       1.904   1.501   1.616  0.00  0.00    +0.269 C 
ATOM      4  O   UNL     1       1.134   2.127   2.644  0.00  0.00    -0.319 OA
ATOM      5  C   UNL     1       1.005   3.542   2.496  0.00  0.00    +0.242 C 
ATOM      6  C   UNL     1       0.293   3.854   1.177  0.00  0.00    +0.159 C 
ATOM      7  C   UNL     1       1.084   3.236   0.021  0.00  0.00    +0.129 C 
ATOM      8  C   UNL     1       2.471   3.877  -0.052  0.00  0.00    +0.047 C 
ATOM      9  C   UNL     1      -1.118   3.262   1.206  0.00  0.00    +0.051 C 
ATOM     10  C   UNL     1       0.190   4.105   3.662  0.00  0.00    +0.092 C 
ENDROOT
BRANCH   3  11
ATOM     11  C   UNL     1       1.996   0.021   1.888  0.00  0.00    +0.387 C 
ATOM     12  O   UNL     1       1.384  -0.463   2.811  0.00  0.00    -0.243 OA
ATOM     13  O   UNL     1       2.758  -0.759   1.105  0.00  0.00    -0.243 OA
ENDBRANCH   3  11
BRANCH   7  14
ATOM     14  O   UNL     1       0.390   3.458  -1.208  0.00  0.00    -0.383 OA
ATOM     15  H   UNL     1       0.833   3.087  -1.984  0.00  0.00    +0.210 HD
ENDBRANCH   7  14
BRANCH   6  16
ATOM     16  O   UNL     1       0.213   5.269   0.999  0.00  0.00    -0.379 OA
ATOM     17  H   UNL     1      -0.275   5.727   1.696  0.00  0.00    +0.211 HD
ENDBRANCH   6  16
BRANCH   2  18
ATOM     18  O   UNL     1      -0.065   1.121   0.265  0.00  0.00    -0.383 OA
ATOM     19  H   UNL     1      -0.049   0.165   0.413  0.00  0.00    +0.210 HD
ENDBRANCH   2  18
BRANCH   5  20
ATOM     20  O   UNL     1       2.303   4.141   2.490  0.00  0.00    -0.456 OA
BRANCH  20  21
ATOM     21  C   UNL     1       3.113   3.872   3.551  0.00  0.00    +0.151 A 
ATOM     22  C   UNL     1       2.813   3.102   4.612  0.00  0.00    +0.130 A 
ATOM     23  N   UNL     1       3.882   3.063   5.476  0.00  0.00    -0.358 N 
ATOM     24  H   UNL     1       3.906   2.571   6.311  0.00  0.00    +0.165 HD
ATOM     25  C   UNL     1       4.911   3.833   4.981  0.00  0.00    +0.052 A 
ATOM     26  C   UNL     1       4.477   4.372   3.757  0.00  0.00    +0.061 A 
ATOM     27  C   UNL     1       5.324   5.204   3.022  0.00  0.00    +0.068 A 
ATOM     28  C   UNL     1       6.584   5.490   3.503  0.00  0.00    +0.037 A 
ATOM     29  C   UNL     1       7.011   4.957   4.712  0.00  0.00    +0.019 A 
ATOM     30  C   UNL     1       6.186   4.135   5.448  0.00  0.00    +0.027 A 
ATOM     31 BR   UNL     1       7.736   6.616   2.512  0.00  0.00    -0.049 Br
ATOM     32 CL   UNL     1       4.795   5.873   1.510  0.00  0.00    -0.082 Cl
ENDBRANCH  20  21
ENDBRANCH   5  20
TORSDOF 6
