REMARK  Name = ZINC38834926
REMARK  8 active torsions:
REMARK  status: ('A' for Active; 'I' for Inactive)
REMARK    1  A    between atoms: C_1  and  C_2
REMARK    2  A    between atoms: C_2  and  C_3
REMARK    3  A    between atoms: C_2  and  C_4
REMARK    4  A    between atoms: C_2  and  C_5
REMARK    5  A    between atoms: N_11  and  S_26
REMARK    6  A    between atoms: C_13  and  C_16
REMARK    7  A    between atoms: N_18  and  C_19
REMARK    8  A    between atoms: S_26  and  C_29
REMARK                            x       y       z     vdW  Elec       q    Type
REMARK                         _______ _______ _______ _____ _____    ______ ____
ROOT
ATOM      1  C   UNL     1       0.673  -0.469  -1.272  0.00  0.00    -0.040 A 
ATOM      2  C   UNL     1       0.007  -1.267  -2.183  0.00  0.00    +0.008 A 
ATOM      3  C   UNL     1       0.655  -1.722  -3.316  0.00  0.00    +0.048 A 
ATOM      4  C   UNL     1       1.978  -1.378  -3.545  0.00  0.00    +0.144 A 
ATOM      5  C   UNL     1       2.646  -0.572  -2.627  0.00  0.00    +0.093 A 
ATOM      6  C   UNL     1       1.991  -0.115  -1.494  0.00  0.00    +0.032 A 
ATOM      7  N   UNL     1       3.984  -0.214  -2.858  0.00  0.00    -0.200 N 
ATOM      8  C   UNL     1       4.722  -0.956  -3.895  0.00  0.00    +0.185 C 
ATOM      9  C   UNL     1       3.779  -1.137  -5.094  0.00  0.00    +0.278 C 
ATOM     10  O   UNL     1       2.610  -1.834  -4.659  0.00  0.00    -0.476 OA
ENDROOT
BRANCH   1  12
ATOM     11  C   UNL     1      -0.062   1.552  -0.037  0.00  0.00    +0.015 C 
ATOM     12  C   UNL     1      -0.041   0.022  -0.039  0.00  0.00    -0.013 C 
ATOM     13  C   UNL     1       0.692  -0.478   1.208  0.00  0.00    +0.015 C 
ATOM     14  C   UNL     1      -1.476  -0.508  -0.035  0.00  0.00    +0.015 C 
ENDBRANCH   1  12
BRANCH   9  15
ATOM     15  C   UNL     1       4.475  -1.933  -6.168  0.00  0.00    +0.260 C 
ATOM     16  O   UNL     1       4.062  -3.032  -6.472  0.00  0.00    -0.271 OA
ATOM     17  N   UNL     1       5.558  -1.425  -6.789  0.00  0.00    -0.281 N 
ATOM     18  H   UNL     1       5.850  -0.521  -6.593  0.00  0.00    +0.155 HD
BRANCH  17  19
ATOM     19  C   UNL     1       6.260  -2.200  -7.718  0.00  0.00    +0.048 A 
ATOM     20  C   UNL     1       5.580  -3.095  -8.534  0.00  0.00    +0.024 A 
ATOM     21  C   UNL     1       6.275  -3.858  -9.451  0.00  0.00    +0.002 A 
ATOM     22  C   UNL     1       7.649  -3.734  -9.556  0.00  0.00    +0.001 A 
ATOM     23  C   UNL     1       8.330  -2.845  -8.745  0.00  0.00    +0.017 A 
ATOM     24  C   UNL     1       7.639  -2.074  -7.831  0.00  0.00    +0.039 A 
ATOM     25 BR   UNL     1       8.570  -0.852  -6.727  0.00  0.00    -0.048 Br
ENDBRANCH  17  19
ENDBRANCH   9  15
BRANCH   7  26
ATOM     26  S   UNL     1       4.708   0.999  -1.994  0.00  0.00    +0.043 S 
ATOM     27  O   UNL     1       5.737   1.486  -2.845  0.00  0.00    -0.155 OA
ATOM     28  O   UNL     1       3.639   1.845  -1.592  0.00  0.00    -0.155 OA
ATOM     29  C   UNL     1       5.431   0.175  -0.548  0.00  0.00    +0.218 C 
ENDBRANCH   7  26
TORSDOF 4
