REMARK  Name = ZINC22859855
REMARK  10 active torsions:
REMARK  status: ('A' for Active; 'I' for Inactive)
REMARK    1  A    between atoms: C_1  and  C_2
REMARK    2  A    between atoms: C_2  and  N_3
REMARK    3  A    between atoms: N_3  and  C_4
REMARK    4  A    between atoms: C_14  and  C_16
REMARK    5  A    between atoms: C_16  and  S_17
REMARK    6  A    between atoms: S_17  and  C_18
REMARK    7  A    between atoms: C_21  and  C_30
REMARK    8  A    between atoms: N_22  and  C_23
REMARK    9  A    between atoms: C_23  and  C_24
REMARK   10  A    between atoms: C_30  and  N_31
REMARK                            x       y       z     vdW  Elec       q    Type
REMARK                         _______ _______ _______ _____ _____    ______ ____
ROOT
ATOM      1  C   UNL     1      -0.856   3.095   2.808  0.00  0.00    +0.192 A 
ATOM      2  N   UNL     1      -1.537   1.989   2.994  0.00  0.00    -0.123 NA
ATOM      3  N   UNL     1      -1.340   1.183   2.012  0.00  0.00    -0.135 NA
ATOM      4  C   UNL     1      -0.528   1.723   1.148  0.00  0.00    +0.118 A 
ATOM      5  N   UNL     1      -0.186   2.958   1.626  0.00  0.00    -0.303 N 
ENDROOT
BRANCH   1   6
ATOM      6  S   UNL     1      -0.809   4.491   3.882  0.00  0.00    -0.077 S 
BRANCH   6   7
ATOM      7  C   UNL     1      -1.917   3.915   5.193  0.00  0.00    +0.173 C 
BRANCH   7   9
ATOM      8  N   UNL     1      -2.811   4.768   7.336  0.00  0.00    -0.270 N 
ATOM      9  C   UNL     1      -2.033   4.978   6.255  0.00  0.00    +0.230 C 
ATOM     10  O   UNL     1      -1.426   6.021   6.138  0.00  0.00    -0.274 OA
BRANCH   8  11
ATOM     11  C   UNL     1      -2.918   5.753   8.320  0.00  0.00    +0.044 A 
ATOM     12  C   UNL     1      -3.899   6.718   8.235  0.00  0.00    +0.024 A 
ATOM     13  C   UNL     1      -4.015   7.703   9.210  0.00  0.00    +0.002 A 
ATOM     14  C   UNL     1      -3.166   7.742  10.274  0.00  0.00    +0.008 A 
ATOM     15  C   UNL     1      -2.152   6.777  10.399  0.00  0.00    -0.016 A 
ATOM     16  C   UNL     1      -2.028   5.766   9.414  0.00  0.00    +0.004 A 
ATOM     17  C   UNL     1      -1.012   4.804   9.538  0.00  0.00    +0.010 A 
ATOM     18  C   UNL     1      -0.167   4.850  10.604  0.00  0.00    +0.001 A 
ATOM     19  C   UNL     1      -0.291   5.842  11.575  0.00  0.00    +0.001 A 
ATOM     20  C   UNL     1      -1.261   6.792  11.486  0.00  0.00    +0.008 A 
ENDBRANCH   8  11
BRANCH   8  22
ATOM     21  C   UNL     1      -2.675   2.494   8.225  0.00  0.00    +0.025 C 
ATOM     22  C   UNL     1      -3.544   3.508   7.478  0.00  0.00    +0.110 C 
ENDBRANCH   8  22
ENDBRANCH   7   9
ENDBRANCH   6   7
ENDBRANCH   1   6
BRANCH   5  23
ATOM     23  C   UNL     1       0.710   3.933   0.998  0.00  0.00    +0.160 C 
BRANCH  23  24
ATOM     24  C   UNL     1      -0.094   4.870   0.134  0.00  0.00    -0.028 A 
ATOM     25  C   UNL     1      -0.259   4.599  -1.211  0.00  0.00    +0.005 A 
ATOM     26  C   UNL     1      -1.000   5.457  -2.003  0.00  0.00    +0.000 A 
ATOM     27  C   UNL     1      -1.567   6.590  -1.451  0.00  0.00    +0.000 A 
ATOM     28  C   UNL     1      -1.397   6.864  -0.107  0.00  0.00    +0.000 A 
ATOM     29  C   UNL     1      -0.660   6.004   0.686  0.00  0.00    +0.005 A 
ENDBRANCH  23  24
ENDBRANCH   5  23
BRANCH   4  30
ATOM     30  C   UNL     1      -0.049   1.099  -0.138  0.00  0.00    -0.001 C 
BRANCH  30  31
ATOM     31  N   UNL     1       1.165   0.312   0.122  0.00  0.00    +0.384 N 
ATOM     32  C   UNL     1       0.906  -0.747   1.131  0.00  0.00    -0.078 C 
ATOM     33  C   UNL     1       2.057  -1.755   0.889  0.00  0.00    -0.020 C 
ATOM     34  C   UNL     1       2.217  -1.735  -0.648  0.00  0.00    -0.020 C 
ATOM     35  C   UNL     1       1.610  -0.394  -1.098  0.00  0.00    -0.078 C 
ATOM     36  H   UNL     1       1.920   1.033   0.470  0.00  0.00    -0.081 HD
ENDBRANCH  30  31
ENDBRANCH   4  30
TORSDOF 9
