REMARK  Name = ZINC53304283
REMARK  12 active torsions:
REMARK  status: ('A' for Active; 'I' for Inactive)
REMARK    1  A    between atoms: C_1  and  C_2
REMARK    2  A    between atoms: C_5  and  C_29
REMARK    3  A    between atoms: N_8  and  C_10
REMARK    4  A    between atoms: C_10  and  C_11
REMARK    5  A    between atoms: C_10  and  C_12
REMARK    6  A    between atoms: C_10  and  C_13
REMARK    7  A    between atoms: C_13  and  N_14
REMARK    8  A    between atoms: C_15  and  C_17
REMARK    9  A    between atoms: C_17  and  C_18
REMARK   10  A    between atoms: C_18  and  N_19
REMARK   11  A    between atoms: C_20  and  C_22
REMARK   12  A    between atoms: C_23  and  C_24
REMARK                            x       y       z     vdW  Elec       q    Type
REMARK                         _______ _______ _______ _____ _____    ______ ____
ROOT
ATOM      1  N   UNL     1       2.001   1.661   3.436  0.00  0.00    -0.317 N 
ATOM      2  C   UNL     1       1.527   2.460   4.412  0.00  0.00    +0.214 C 
ATOM      3  O   UNL     1       1.212   1.986   5.484  0.00  0.00    -0.276 OA
ATOM      4  H   UNL     1       2.253   2.039   2.579  0.00  0.00    +0.149 HD
ENDROOT
BRANCH   1   5
ATOM      5  C   UNL     1       2.136   0.221   3.668  0.00  0.00    +0.092 C 
BRANCH   5   6
ATOM      6  C   UNL     1       2.570  -0.467   2.372  0.00  0.00    -0.055 C 
ATOM      7  C   UNL     1       2.628  -1.980   2.592  0.00  0.00    -0.008 C 
ATOM      8  C   UNL     1       3.953   0.043   1.963  0.00  0.00    -0.008 C 
BRANCH   6  14
ATOM      9  C   UNL     1      -0.773   1.282   0.483  0.00  0.00    +0.005 C 
ATOM     10  C   UNL     1      -0.757  -0.239   0.650  0.00  0.00    -0.031 C 
ATOM     11  C   UNL     1      -0.373  -0.895  -0.679  0.00  0.00    +0.003 C 
ATOM     12  C   UNL     1       1.048  -0.466  -1.058  0.00  0.00    -0.031 C 
ATOM     13  C   UNL     1       2.007  -0.843   0.073  0.00  0.00    -0.075 C 
ATOM     14  N   UNL     1       1.602  -0.164   1.310  0.00  0.00    +0.384 N 
ATOM     15  C   UNL     1       0.269  -0.624   1.718  0.00  0.00    -0.075 C 
ATOM     16  C   UNL     1       1.470  -1.176  -2.345  0.00  0.00    +0.005 C 
ATOM     17  H   UNL     1       1.579   0.833   1.153  0.00  0.00    -0.081 HD
ENDBRANCH   6  14
ENDBRANCH   5   6
ENDBRANCH   1   5
BRANCH   2  18
ATOM     18  C   UNL     1       1.389   3.941   4.173  0.00  0.00    +0.114 C 
BRANCH  18  19
ATOM     19  C   UNL     1       0.832   4.611   5.431  0.00  0.00    +0.113 C 
BRANCH  19  20
ATOM     20  N   UNL     1       0.697   6.051   5.198  0.00  0.00    -0.311 N 
ATOM     21  C   UNL     1       0.223   6.850   6.175  0.00  0.00    +0.237 C 
ATOM     22  O   UNL     1      -0.093   6.375   7.250  0.00  0.00    -0.271 OA
ATOM     23  H   UNL     1       0.949   6.430   4.342  0.00  0.00    +0.149 HD
BRANCH  21  24
ATOM     24  C   UNL     1       0.093   8.242   5.950  0.00  0.00    +0.071 C 
ATOM     25  C   UNL     1      -0.385   9.045   6.933  0.00  0.00    +0.051 C 
BRANCH  25  26
ATOM     26  C   UNL     1      -0.515  10.437   6.708  0.00  0.00    +0.128 A 
ATOM     27  C   UNL     1      -0.978  11.367   7.615  0.00  0.00    +0.049 A 
ATOM     28  C   UNL     1      -0.935  12.612   6.968  0.00  0.00    +0.042 A 
ATOM     29  C   UNL     1      -0.459  12.398   5.722  0.00  0.00    +0.195 A 
ATOM     30  O   UNL     1      -0.202  11.092   5.570  0.00  0.00    -0.464 OA
ENDBRANCH  25  26
ENDBRANCH  21  24
ENDBRANCH  19  20
ENDBRANCH  18  19
ENDBRANCH   2  18
TORSDOF 8
