REMARK  Name = ZINC65061350
REMARK  13 active torsions:
REMARK  status: ('A' for Active; 'I' for Inactive)
REMARK    1  A    between atoms: C_1  and  C_2
REMARK    2  A    between atoms: C_3  and  S_8
REMARK    3  A    between atoms: C_4  and  C_7
REMARK    4  A    between atoms: S_8  and  N_11
REMARK    5  A    between atoms: C_14  and  C_17
REMARK    6  A    between atoms: C_17  and  C_18
REMARK    7  A    between atoms: N_20  and  C_21
REMARK    8  A    between atoms: C_21  and  C_22
REMARK    9  A    between atoms: C_22  and  C_23
REMARK   10  A    between atoms: C_23  and  N_24
REMARK   11  A    between atoms: N_24  and  C_25
REMARK   12  A    between atoms: N_24  and  C_26
REMARK   13  A    between atoms: C_26  and  C_27
REMARK                            x       y       z     vdW  Elec       q    Type
REMARK                         _______ _______ _______ _____ _____    ______ ____
ROOT
ATOM      1  C   UNL     1       5.704  -0.373  -2.318  0.00  0.00    +0.099 C 
ENDROOT
BRANCH   1   5
ATOM      2  N   UNL     1       1.570  -0.091  -3.285  0.00  0.00    -0.176 NA
ATOM      3  C   UNL     1       2.270   1.187  -3.093  0.00  0.00    +0.110 C 
ATOM      4  C   UNL     1       3.570   0.926  -2.326  0.00  0.00    +0.021 C 
ATOM      5  C   UNL     1       4.389  -0.135  -3.063  0.00  0.00    +0.000 C 
ATOM      6  C   UNL     1       3.595  -1.442  -3.126  0.00  0.00    +0.021 C 
ATOM      7  C   UNL     1       2.298  -1.210  -3.897  0.00  0.00    +0.110 C 
BRANCH   2   8
ATOM      8  S   UNL     1      -0.008  -0.267  -2.813  0.00  0.00    +0.066 S 
ATOM      9  O   UNL     1      -0.547  -1.328  -3.589  0.00  0.00    -0.153 OA
ATOM     10  O   UNL     1      -0.577   1.035  -2.802  0.00  0.00    -0.153 OA
BRANCH   8  13
ATOM     11  C   UNL     1      -0.018   1.503   0.010  0.00  0.00    +0.071 C 
ATOM     12  C   UNL     1       0.002  -0.004   0.002  0.00  0.00    +0.107 A 
ATOM     13  C   UNL     1       0.008  -0.824  -1.141  0.00  0.00    +0.170 A 
ATOM     14  C   UNL     1       0.027  -2.108  -0.735  0.00  0.00    +0.161 A 
ATOM     15  O   UNL     1       0.034  -2.119   0.606  0.00  0.00    -0.358 OA
ATOM     16  N   UNL     1       0.023  -0.775   1.052  0.00  0.00    -0.081 NA
ATOM     17  C   UNL     1       0.039  -3.320  -1.631  0.00  0.00    +0.091 C 
ENDBRANCH   8  13
ENDBRANCH   2   8
ENDBRANCH   1   5
BRANCH   1  18
ATOM     18  C   UNL     1       6.564  -1.326  -3.108  0.00  0.00    +0.213 C 
ATOM     19  O   UNL     1       6.164  -1.771  -4.163  0.00  0.00    -0.276 OA
ATOM     20  N   UNL     1       7.777  -1.683  -2.642  0.00  0.00    -0.315 N 
ATOM     21  H   UNL     1       8.097  -1.327  -1.798  0.00  0.00    +0.149 HD
BRANCH  20  22
ATOM     22  C   UNL     1       8.613  -2.610  -3.410  0.00  0.00    +0.102 C 
BRANCH  22  23
ATOM     23  C   UNL     1       9.928  -2.848  -2.664  0.00  0.00    +0.000 C 
BRANCH  23  24
ATOM     24  C   UNL     1      10.801  -3.815  -3.466  0.00  0.00    -0.077 C 
BRANCH  24  25
ATOM     25  N   UNL     1      12.063  -4.043  -2.751  0.00  0.00    +0.381 N 
ATOM     26  C   UNL     1      11.789  -4.729  -1.481  0.00  0.00    -0.096 C 
ATOM     27  H   UNL     1      12.510  -3.158  -2.566  0.00  0.00    -0.082 HD
BRANCH  25  28
ATOM     28  C   UNL     1      12.950  -4.876  -3.575  0.00  0.00    -0.043 C 
BRANCH  28  29
ATOM     29  C   UNL     1      14.289  -5.008  -2.897  0.00  0.00    -0.064 A 
ATOM     30  C   UNL     1      15.288  -4.087  -3.153  0.00  0.00    +0.002 A 
ATOM     31  C   UNL     1      16.516  -4.209  -2.531  0.00  0.00    +0.000 A 
ATOM     32  C   UNL     1      16.745  -5.251  -1.652  0.00  0.00    +0.000 A 
ATOM     33  C   UNL     1      15.746  -6.171  -1.395  0.00  0.00    +0.000 A 
ATOM     34  C   UNL     1      14.516  -6.047  -2.014  0.00  0.00    +0.002 A 
ENDBRANCH  28  29
ENDBRANCH  25  28
ENDBRANCH  24  25
ENDBRANCH  23  24
ENDBRANCH  22  23
ENDBRANCH  20  22
ENDBRANCH   1  18
TORSDOF 10
