REMARK  Name = ZINC09317312
REMARK  8 active torsions:
REMARK  status: ('A' for Active; 'I' for Inactive)
REMARK    1  A    between atoms: C_1  and  C_2
REMARK    2  A    between atoms: C_5  and  N_9
REMARK    3  A    between atoms: C_6  and  C_8
REMARK    4  A    between atoms: C_12  and  C_18
REMARK    5  A    between atoms: C_13  and  O_17
REMARK    6  A    between atoms: C_15  and  O_16
REMARK    7  A    between atoms: C_24  and  O_30
REMARK    8  A    between atoms: O_30  and  C_31
REMARK                            x       y       z     vdW  Elec       q    Type
REMARK                         _______ _______ _______ _____ _____    ______ ____
ROOT
ATOM      1  N   UNL     1      -2.669   2.917   4.677  0.00  0.00    -0.230 N 
ATOM      2  C   UNL     1      -2.807   4.241   4.898  0.00  0.00    +0.267 A 
ATOM      3  O   UNL     1      -2.365   5.053   4.101  0.00  0.00    -0.267 OA
ATOM      4  C   UNL     1      -3.467   4.667   6.057  0.00  0.00    +0.071 A 
ATOM      5  C   UNL     1      -3.953   3.712   6.934  0.00  0.00    +0.224 A 
ATOM      6  N   UNL     1      -3.786   2.414   6.661  0.00  0.00    -0.161 NA
ATOM      7  C   UNL     1      -3.170   2.020   5.569  0.00  0.00    +0.306 A 
ENDROOT
BRANCH   4   8
ATOM      8  C   UNL     1      -3.645   6.135   6.345  0.00  0.00    +0.018 C 
ATOM      9  C   UNL     1      -2.295   6.779   6.555  0.00  0.00    +0.011 A 
ATOM     10  C   UNL     1      -1.958   7.974   6.013  0.00  0.00    -0.022 A 
ATOM     11  C   UNL     1      -0.601   8.261   6.421  0.00  0.00    +0.006 A 
ATOM     12  C   UNL     1       0.260   9.334   6.171  0.00  0.00    +0.056 A 
ATOM     13  C   UNL     1       1.523   9.268   6.740  0.00  0.00    +0.121 A 
ATOM     14  C   UNL     1       1.919   8.190   7.522  0.00  0.00    +0.047 A 
ATOM     15  C   UNL     1       1.081   7.119   7.779  0.00  0.00    +0.030 A 
ATOM     16  C   UNL     1      -0.194   7.161   7.220  0.00  0.00    +0.047 A 
ATOM     17  N   UNL     1      -1.244   6.287   7.275  0.00  0.00    -0.359 N 
ATOM     18  H   UNL     1      -1.245   5.444   7.756  0.00  0.00    +0.166 HD
ATOM     19  C   UNL     1      -2.891   8.792   5.155  0.00  0.00    +0.018 C 
ATOM     20  C   UNL     1      -4.313   8.249   5.350  0.00  0.00    -0.076 C 
ATOM     21  N   UNL     1      -4.309   6.780   5.190  0.00  0.00    +0.388 N 
ATOM     22  H   UNL     1      -5.277   6.444   5.126  0.00  0.00    -0.084 HD
ATOM     23  H   UNL     1      -3.804   6.535   4.330  0.00  0.00    -0.084 HD
BRANCH  13  24
ATOM     24  O   UNL     1       2.398  10.287   6.527  0.00  0.00    -0.495 OA
ATOM     25  C   UNL     1       3.687  10.173   7.134  0.00  0.00    +0.277 C 
ENDBRANCH  13  24
ENDBRANCH   4   8
BRANCH   1  30
ATOM     26  C   UNL     1      -0.013   1.086   0.008  0.00  0.00    +0.044 C 
ATOM     27  C   UNL     1      -0.718   1.572   1.248  0.00  0.00    -0.050 A 
ATOM     28  C   UNL     1       0.003   1.805   2.405  0.00  0.00    +0.005 A 
ATOM     29  C   UNL     1      -0.641   2.251   3.543  0.00  0.00    +0.027 A 
ATOM     30  C   UNL     1      -2.013   2.465   3.524  0.00  0.00    +0.057 A 
ATOM     31  C   UNL     1      -2.733   2.230   2.361  0.00  0.00    -0.026 A 
ATOM     32  C   UNL     1      -2.083   1.789   1.225  0.00  0.00    +0.008 A 
ATOM     33  C   UNL     1      -4.223   2.461   2.336  0.00  0.00    +0.046 C 
ENDBRANCH   1  30
BRANCH   7  34
ATOM     34  O   UNL     1      -3.028   0.701   5.330  0.00  0.00    -0.479 OA
ATOM     35  H   UNL     1      -3.397   0.093   5.986  0.00  0.00    +0.295 HD
ENDBRANCH   7  34
BRANCH   5  36
ATOM     36  O   UNL     1      -4.596   4.092   8.063  0.00  0.00    -0.492 OA
ATOM     37  H   UNL     1      -4.898   3.354   8.610  0.00  0.00    +0.294 HD
ENDBRANCH   5  36
TORSDOF 5
