REMARK  Name = ZINC63079641
REMARK  6 active torsions:
REMARK  status: ('A' for Active; 'I' for Inactive)
REMARK    1  A    between atoms: C_1  and  C_2
REMARK    2  A    between atoms: C_5  and  O_8
REMARK    3  A    between atoms: O_8  and  C_9
REMARK    4  A    between atoms: C_9  and  C_10
REMARK    5  A    between atoms: N_16  and  C_19
REMARK    6  A    between atoms: N_20  and  C_21
REMARK                            x       y       z     vdW  Elec       q    Type
REMARK                         _______ _______ _______ _____ _____    ______ ____
ROOT
ATOM      1  C   UNL     1      -0.614  -6.089   2.411  0.00  0.00    +0.159 A 
ATOM      2  N   UNL     1      -1.765  -6.736   2.363  0.00  0.00    -0.214 NA
ATOM      3  C   UNL     1      -1.806  -8.059   2.251  0.00  0.00    +0.133 A 
ATOM      4  C   UNL     1      -0.588  -8.763   2.184  0.00  0.00    +0.078 A 
ATOM      5  C   UNL     1      -0.234 -10.125   2.067  0.00  0.00    +0.148 A 
ATOM      6  N   UNL     1       1.065 -10.213   2.052  0.00  0.00    -0.177 NA
ATOM      7  N   UNL     1       1.627  -8.934   2.157  0.00  0.00    -0.249 N 
ATOM      8  C   UNL     1       0.612  -8.028   2.240  0.00  0.00    +0.163 A 
ATOM      9  N   UNL     1       0.548  -6.702   2.347  0.00  0.00    -0.210 NA
ATOM     10  C   UNL     1       3.058  -8.624   2.175  0.00  0.00    +0.174 C 
ATOM     11  N   UNL     1      -3.014  -8.727   2.202  0.00  0.00    -0.331 N 
ATOM     12  C   UNL     1      -4.270  -7.977   2.274  0.00  0.00    +0.127 C 
ATOM     13  H   UNL     1      -3.030  -9.694   2.121  0.00  0.00    +0.147 HD
ENDROOT
BRANCH   1  14
ATOM     14  C   UNL     1      -0.633  -4.587   2.538  0.00  0.00    +0.236 C 
BRANCH  14  15
ATOM     15  O   UNL     1      -0.653  -3.999   1.236  0.00  0.00    -0.369 OA
BRANCH  15  20
ATOM     16  C   UNL     1      -0.019   1.526   0.010  0.00  0.00    +0.007 C 
ATOM     17  C   UNL     1       0.002  -0.004   0.002  0.00  0.00    -0.014 C 
ATOM     18  C   UNL     1      -1.433  -0.534   0.013  0.00  0.00    +0.006 C 
ATOM     19  C   UNL     1      -1.413  -2.063   0.004  0.00  0.00    +0.032 C 
ATOM     20  C   UNL     1      -0.673  -2.570   1.244  0.00  0.00    +0.119 C 
ATOM     21  C   UNL     1       0.763  -2.041   1.233  0.00  0.00    +0.032 C 
ATOM     22  C   UNL     1       0.742  -0.511   1.242  0.00  0.00    +0.006 C 
ENDBRANCH  15  20
ENDBRANCH  14  15
ENDBRANCH   1  14
TORSDOF 3
