REMARK  Name = ZINC39964173
REMARK  6 active torsions:
REMARK  status: ('A' for Active; 'I' for Inactive)
REMARK    1  A    between atoms: C_1  and  C_2
REMARK    2  A    between atoms: C_3  and  C_26
REMARK    3  A    between atoms: C_21  and  S_24
REMARK    4  A    between atoms: S_24  and  C_25
REMARK    5  A    between atoms: C_29  and  O_32
REMARK    6  A    between atoms: O_32  and  C_33
REMARK                            x       y       z     vdW  Elec       q    Type
REMARK                         _______ _______ _______ _____ _____    ______ ____
ROOT
ATOM      1  C   UNL     1      -0.018   1.503   0.010  0.00  0.00    +0.068 C 
ATOM      2  C   UNL     1       0.002  -0.004   0.002  0.00  0.00    +0.070 A 
ATOM      3  C   UNL     1       0.008  -0.824  -1.149  0.00  0.00    +0.044 A 
ATOM      4  C   UNL     1       0.031  -2.119  -0.719  0.00  0.00    +0.130 A 
ATOM      5  N   UNL     1       0.029  -2.099   0.651  0.00  0.00    -0.238 N 
ATOM      6  N   UNL     1       0.023  -0.777   1.062  0.00  0.00    -0.173 NA
ATOM      7  C   UNL     1       0.029  -3.356   1.398  0.00  0.00    +0.169 C 
ATOM      8  C   UNL     1       0.633  -3.195   2.756  0.00  0.00    +0.020 C 
ATOM      9  C   UNL     1       1.492  -4.056   3.249  0.00  0.00    +0.085 C 
ATOM     10  N   UNL     1       1.908  -5.175   2.542  0.00  0.00    -0.211 N 
ATOM     11  C   UNL     1       1.594  -5.335   1.243  0.00  0.00    +0.257 C 
ATOM     12  O   UNL     1       2.003  -6.306   0.633  0.00  0.00    -0.269 OA
ATOM     13  C   UNL     1       0.805  -4.372   0.595  0.00  0.00    +0.057 C 
ATOM     14  H   UNL     1      -0.373  -3.472  -2.250  0.00  0.00    +0.153 HD
ATOM     15  C   UNL     1       0.776  -4.341  -0.759  0.00  0.00    +0.084 C 
ATOM     16  N   UNL     1       0.067  -3.338  -1.396  0.00  0.00    -0.305 N 
ATOM     17  C   UNL     1       2.667  -6.155   3.190  0.00  0.00    +0.248 A 
ATOM     18  H   UNL     1       4.279  -8.802   3.538  0.00  0.00    +0.191 HD
ATOM     19  N   UNL     1       3.047  -6.121   4.472  0.00  0.00    -0.187 NA
ATOM     20  C   UNL     1       3.748  -7.199   4.755  0.00  0.00    +0.186 A 
ATOM     21  N   UNL     1       3.825  -7.950   3.635  0.00  0.00    -0.252 N 
ATOM     22  N   UNL     1       3.116  -7.257   2.642  0.00  0.00    -0.135 NA
ENDROOT
BRANCH   3  23
ATOM     23  C   UNL     1      -0.009  -0.364  -2.559  0.00  0.00    -0.013 A 
ATOM     24  C   UNL     1      -1.105  -0.644  -3.372  0.00  0.00    +0.012 A 
ATOM     25  C   UNL     1      -1.118  -0.215  -4.683  0.00  0.00    +0.046 A 
ATOM     26  C   UNL     1      -0.040   0.496  -5.192  0.00  0.00    +0.120 A 
ATOM     27  C   UNL     1       1.054   0.776  -4.385  0.00  0.00    +0.046 A 
ATOM     28  C   UNL     1       1.070   0.354  -3.072  0.00  0.00    +0.012 A 
BRANCH  26  29
ATOM     29  O   UNL     1      -0.054   0.917  -6.485  0.00  0.00    -0.495 OA
ATOM     30  C   UNL     1       1.088   1.643  -6.944  0.00  0.00    +0.277 C 
ENDBRANCH  26  29
ENDBRANCH   3  23
BRANCH  20  31
ATOM     31  S   UNL     1       4.459  -7.592   6.318  0.00  0.00    -0.090 S 
ATOM     32  C   UNL     1       3.994  -6.193   7.376  0.00  0.00    +0.093 C 
ENDBRANCH  20  31
TORSDOF 3
