REMARK  Name = ZINC32810897
REMARK  7 active torsions:
REMARK  status: ('A' for Active; 'I' for Inactive)
REMARK    1  A    between atoms: C_1  and  C_2
REMARK    2  A    between atoms: C_2  and  C_4
REMARK    3  A    between atoms: C_2  and  N_13
REMARK    4  A    between atoms: N_13  and  C_14
REMARK    5  A    between atoms: C_17  and  N_20
REMARK    6  A    between atoms: N_20  and  S_21
REMARK    7  A    between atoms: S_21  and  C_24
REMARK                            x       y       z     vdW  Elec       q    Type
REMARK                         _______ _______ _______ _____ _____    ______ ____
ROOT
ATOM      1  C   UNL     1      -0.378  -0.718  -2.295  0.00  0.00    +0.028 A 
ATOM      2  C   UNL     1      -1.669  -0.236  -2.122  0.00  0.00    +0.025 A 
ATOM      3  C   UNL     1      -2.577  -0.311  -3.159  0.00  0.00    +0.026 A 
ATOM      4  C   UNL     1      -2.200  -0.867  -4.374  0.00  0.00    +0.048 A 
ATOM      5  C   UNL     1      -0.909  -1.349  -4.546  0.00  0.00    +0.026 A 
ATOM      6  C   UNL     1       0.001  -1.269  -3.511  0.00  0.00    +0.025 A 
ENDROOT
BRANCH   1   7
ATOM      7  N   UNL     1       0.544  -0.642  -1.243  0.00  0.00    -0.333 N 
ATOM      8  H   UNL     1       1.446  -0.976  -1.365  0.00  0.00    +0.147 HD
BRANCH   7  10
ATOM      9  C   UNL     1       0.306   1.460  -0.016  0.00  0.00    +0.038 C 
ATOM     10  C   UNL     1       0.144  -0.060   0.041  0.00  0.00    +0.154 C 
BRANCH  10  11
ATOM     11  C   UNL     1       1.014  -0.618   1.138  0.00  0.00    +0.236 C 
ATOM     12  O   UNL     1       2.049  -1.187   0.861  0.00  0.00    -0.274 OA
ATOM     13  N   UNL     1       0.643  -0.484   2.426  0.00  0.00    -0.300 N 
ATOM     14  C   UNL     1       1.553  -0.925   3.459  0.00  0.00    +0.108 C 
ATOM     15  C   UNL     1       1.290  -2.416   3.782  0.00  0.00    +0.019 C 
ATOM     16  C   UNL     1       0.014  -2.567   4.498  0.00  0.00    +0.002 C 
ATOM     17  C   UNL     1      -1.210  -2.132   3.699  0.00  0.00    +0.002 C 
ATOM     18  C   UNL     1      -1.406  -0.644   3.854  0.00  0.00    +0.019 C 
ATOM     19  C   UNL     1      -0.674   0.112   2.725  0.00  0.00    +0.108 C 
ENDBRANCH  10  11
ENDBRANCH   7  10
ENDBRANCH   1   7
BRANCH   4  20
ATOM     20  N   UNL     1      -3.122  -0.944  -5.426  0.00  0.00    -0.216 N 
ATOM     21  H   UNL     1      -4.021  -1.267  -5.260  0.00  0.00    +0.174 HD
BRANCH  20  22
ATOM     22  S   UNL     1      -2.677  -0.481  -6.952  0.00  0.00    +0.072 S 
ATOM     23  O   UNL     1      -1.482  -1.187  -7.258  0.00  0.00    -0.150 OA
ATOM     24  O   UNL     1      -3.843  -0.570  -7.760  0.00  0.00    -0.150 OA
BRANCH  22  25
ATOM     25  C   UNL     1      -2.247   1.226  -6.875  0.00  0.00    +0.109 A 
ATOM     26  C   UNL     1      -3.232   2.191  -6.969  0.00  0.00    +0.031 A 
ATOM     27  C   UNL     1      -2.896   3.530  -6.908  0.00  0.00    +0.040 A 
ATOM     28  C   UNL     1      -1.573   3.905  -6.752  0.00  0.00    +0.124 A 
ATOM     29  C   UNL     1      -0.587   2.938  -6.658  0.00  0.00    +0.040 A 
ATOM     30  C   UNL     1      -0.926   1.599  -6.714  0.00  0.00    +0.031 A 
ATOM     31  F   UNL     1      -1.243   5.214  -6.693  0.00  0.00    -0.205 F 
ENDBRANCH  22  25
ENDBRANCH  20  22
ENDBRANCH   4  20
TORSDOF 6
