REMARK  Name = ZINC02778431
REMARK  7 active torsions:
REMARK  status: ('A' for Active; 'I' for Inactive)
REMARK    1  A    between atoms: C_1  and  C_2
REMARK    2  A    between atoms: C_5  and  C_21
REMARK    3  A    between atoms: C_9  and  C_12
REMARK    4  A    between atoms: N_14  and  N_15
REMARK    5  A    between atoms: N_15  and  C_16
REMARK    6  A    between atoms: C_16  and  N_18
REMARK    7  A    between atoms: N_18  and  C_19
REMARK                            x       y       z     vdW  Elec       q    Type
REMARK                         _______ _______ _______ _____ _____    ______ ____
ROOT
ATOM      1  C   UNL     1      -0.919   3.099   1.181  0.00  0.00    +0.028 C 
ATOM      2  C   UNL     1      -0.735   1.583   1.265  0.00  0.00    +0.071 C 
ATOM      3  C   UNL     1      -0.013   1.086   0.008  0.00  0.00    +0.058 C 
ATOM      4  C   UNL     1      -0.760   1.597  -1.232  0.00  0.00    +0.214 C 
ATOM      5  N   UNL     1      -2.193   1.350  -1.025  0.00  0.00    -0.238 N 
ATOM      6  C   UNL     1      -2.745   1.051   0.172  0.00  0.00    +0.130 A 
ATOM      7  C   UNL     1      -4.109   0.890  -0.034  0.00  0.00    +0.097 A 
ATOM      8  C   UNL     1      -4.345   1.108  -1.413  0.00  0.00    +0.149 A 
ATOM      9  N   UNL     1      -3.204   1.378  -1.985  0.00  0.00    -0.177 NA
ATOM     10  N   UNL     1      -2.054   0.934   1.360  0.00  0.00    -0.326 N 
ATOM     11  H   UNL     1      -1.962  -0.034   1.630  0.00  0.00    +0.148 HD
ENDROOT
BRANCH   7  12
ATOM     12  C   UNL     1      -5.114   0.558   0.983  0.00  0.00    +0.265 C 
ATOM     13  O   UNL     1      -4.776   0.396   2.141  0.00  0.00    -0.268 OA
ATOM     14  N   UNL     1      -6.410   0.434   0.635  0.00  0.00    -0.231 N 
ATOM     15  H   UNL     1      -6.678   0.564  -0.288  0.00  0.00    +0.173 HD
BRANCH  14  16
ATOM     16  N   UNL     1      -7.369   0.117   1.606  0.00  0.00    -0.246 N 
ATOM     17  H   UNL     1      -7.100  -0.013   2.529  0.00  0.00    +0.172 HD
BRANCH  16  18
ATOM     18  C   UNL     1      -8.665  -0.008   1.258  0.00  0.00    +0.147 C 
ATOM     19  S   UNL     1      -9.836  -0.395   2.444  0.00  0.00    -0.017 S 
BRANCH  18  20
ATOM     20  N   UNL     1      -9.038   0.172  -0.025  0.00  0.00    -0.329 N 
ATOM     21  C   UNL     1     -10.447   0.037  -0.403  0.00  0.00    +0.127 C 
ATOM     22  H   UNL     1      -8.374   0.392  -0.697  0.00  0.00    +0.147 HD
ENDBRANCH  18  20
ENDBRANCH  16  18
ENDBRANCH  14  16
ENDBRANCH   7  12
BRANCH   4  23
ATOM     23  C   UNL     1      -0.279   0.845  -2.474  0.00  0.00    +0.412 C 
ATOM     24  F   UNL     1      -0.527  -0.523  -2.316  0.00  0.00    -0.168 F 
ATOM     25  F   UNL     1      -0.965   1.316  -3.599  0.00  0.00    -0.168 F 
ATOM     26  F   UNL     1       1.094   1.054  -2.643  0.00  0.00    -0.168 F 
ENDBRANCH   4  23
TORSDOF 5
