REMARK  Name = ZINC53111783
REMARK  5 active torsions:
REMARK  status: ('A' for Active; 'I' for Inactive)
REMARK    1  A    between atoms: C_6  and  N_7
REMARK    2  A    between atoms: C_9  and  C_11
REMARK    3  A    between atoms: N_13  and  C_14
REMARK    4  A    between atoms: C_14  and  C_20
REMARK    5  A    between atoms: C_20  and  O_21
REMARK                            x       y       z     vdW  Elec       q    Type
REMARK                         _______ _______ _______ _____ _____    ______ ____
ROOT
ATOM      1  C   UNL     1       6.793   1.759  -1.105  0.00  0.00    +0.251 C 
ATOM      2  O   UNL     1       7.576   2.115  -1.965  0.00  0.00    -0.270 OA
ATOM      3  N   UNL     1       7.206   0.945  -0.113  0.00  0.00    -0.303 N 
ATOM      4  H   UNL     1       6.604   0.722   0.614  0.00  0.00    +0.150 HD
ENDROOT
BRANCH   1  12
ATOM      5  C   UNL     1       0.708   3.809  -1.367  0.00  0.00    +0.024 A 
ATOM      6  C   UNL     1       1.452   3.002  -0.533  0.00  0.00    +0.017 A 
ATOM      7  C   UNL     1       2.785   2.780  -0.804  0.00  0.00    +0.020 A 
ATOM      8  C   UNL     1       3.437   3.354  -1.921  0.00  0.00    -0.008 A 
ATOM      9  C   UNL     1       2.644   4.179  -2.760  0.00  0.00    +0.031 A 
ATOM     10  C   UNL     1       1.317   4.393  -2.479  0.00  0.00    +0.025 A 
ATOM     11  C   UNL     1       4.799   3.030  -2.057  0.00  0.00    +0.029 A 
ATOM     12  C   UNL     1       5.397   2.216  -1.147  0.00  0.00    +0.075 A 
ATOM     13  S   UNL     1       4.069   1.840  -0.016  0.00  0.00    -0.084 S 
BRANCH  10  14
ATOM     14  N   UNL     1       0.559   5.211  -3.325  0.00  0.00    -0.358 N 
ATOM     15  H   UNL     1      -0.379   5.368  -3.135  0.00  0.00    +0.142 HD
ATOM     16  H   UNL     1       0.973   5.622  -4.100  0.00  0.00    +0.142 HD
ENDBRANCH  10  14
ENDBRANCH   1  12
BRANCH   3  17
ATOM     17  C   UNL     1       8.564   0.397  -0.133  0.00  0.00    +0.058 C 
ATOM     18  C   UNL     1       8.751  -0.547   1.057  0.00  0.00    +0.028 C 
ATOM     19  C   UNL     1       8.531   0.224   2.360  0.00  0.00    +0.002 C 
ATOM     20  C   UNL     1       9.544   1.367   2.452  0.00  0.00    +0.000 C 
ATOM     21  C   UNL     1       9.358   2.311   1.262  0.00  0.00    +0.002 C 
ATOM     22  C   UNL     1       9.577   1.539  -0.041  0.00  0.00    +0.028 C 
BRANCH  17  23
ATOM     23  C   UNL     1       8.783  -0.375  -1.436  0.00  0.00    +0.181 C 
BRANCH  23  24
ATOM     24  O   UNL     1       7.760  -1.361  -1.583  0.00  0.00    -0.393 OA
ATOM     25  H   UNL     1       7.836  -1.890  -2.389  0.00  0.00    +0.209 HD
ENDBRANCH  23  24
ENDBRANCH  17  23
ENDBRANCH   3  17
TORSDOF 5
