REMARK  Name = ZINC38688501
REMARK  7 active torsions:
REMARK  status: ('A' for Active; 'I' for Inactive)
REMARK    1  A    between atoms: C_1  and  C_2
REMARK    2  A    between atoms: C_10  and  C_11
REMARK    3  A    between atoms: C_11  and  O_13
REMARK    4  A    between atoms: O_13  and  C_14
REMARK    5  A    between atoms: C_21  and  N_32
REMARK    6  A    between atoms: C_22  and  C_30
REMARK    7  A    between atoms: C_23  and  C_25
REMARK                            x       y       z     vdW  Elec       q    Type
REMARK                         _______ _______ _______ _____ _____    ______ ____
ROOT
ATOM      1  C   UNL     1       0.026  -0.746   4.722  0.00  0.00    +0.136 A 
ATOM      2  C   UNL     1      -0.068   0.631   4.874  0.00  0.00    +0.047 A 
ATOM      3  C   UNL     1      -0.098   1.185   6.138  0.00  0.00    +0.012 A 
ATOM      4  C   UNL     1      -0.033   0.373   7.257  0.00  0.00    +0.011 A 
ATOM      5  C   UNL     1       0.062  -1.002   7.111  0.00  0.00    +0.138 A 
ATOM      6  C   UNL     1       0.085  -1.562   5.840  0.00  0.00    +0.093 A 
ATOM      7  O   UNL     1       0.126  -1.814   8.195  0.00  0.00    -0.441 OA
ATOM      8  C   UNL     1      -0.280  -1.364   9.395  0.00  0.00    +0.199 C 
ATOM      9  C   UNL     1      -0.393  -0.042   9.663  0.00  0.00    +0.101 C 
ATOM     10  C   UNL     1      -0.066   0.997   8.627  0.00  0.00    +0.134 C 
ENDROOT
BRANCH  10  11
ATOM     11  C   UNL     1      -1.114   2.079   8.658  0.00  0.00    +0.117 A 
ATOM     12  C   UNL     1      -0.893   3.381   8.918  0.00  0.00    +0.045 A 
ATOM     13  C   UNL     1      -2.146   4.032   8.842  0.00  0.00    +0.041 A 
ATOM     14  C   UNL     1      -3.057   3.089   8.541  0.00  0.00    +0.195 A 
ATOM     15  O   UNL     1      -2.425   1.910   8.425  0.00  0.00    -0.467 OA
ENDBRANCH  10  11
BRANCH   8  16
ATOM     16  N   UNL     1      -0.589  -2.272  10.376  0.00  0.00    -0.328 N 
ATOM     17  H   UNL     1      -0.513  -3.222  10.199  0.00  0.00    +0.145 HD
ATOM     18  H   UNL     1      -0.883  -1.963  11.247  0.00  0.00    +0.145 HD
ENDBRANCH   8  16
BRANCH   9  19
ATOM     19  C   UNL     1      -0.832   0.376  10.961  0.00  0.00    +0.101 C 
ATOM     20  N   UNL     1      -1.181   0.707  11.990  0.00  0.00    -0.191 NA
ENDBRANCH   9  19
BRANCH   1  21
ATOM     21  O   UNL     1       0.054  -1.293   3.478  0.00  0.00    -0.420 OA
BRANCH  21  22
ATOM     22  C   UNL     1      -1.073  -1.869   3.014  0.00  0.00    +0.380 C 
ATOM     23  O   UNL     1      -2.047  -1.967   3.735  0.00  0.00    -0.241 OA
BRANCH  22  33
ATOM     24  C   UNL     1      -3.542  -3.234   1.704  0.00  0.00    +0.048 C 
ATOM     25  C   UNL     1      -2.203  -2.974   1.064  0.00  0.00    +0.010 A 
ATOM     26  C   UNL     1      -1.802  -3.306  -0.302  0.00  0.00    +0.025 A 
ATOM     27  C   UNL     1      -2.443  -3.916  -1.384  0.00  0.00    +0.032 A 
ATOM     28  C   UNL     1      -1.771  -4.084  -2.562  0.00  0.00    +0.042 A 
ATOM     29  C   UNL     1      -0.456  -3.654  -2.690  0.00  0.00    +0.023 A 
ATOM     30  C   UNL     1       0.193  -3.051  -1.635  0.00  0.00    +0.048 A 
ATOM     31  C   UNL     1      -0.471  -2.868  -0.427  0.00  0.00    +0.136 A 
ATOM     32  O   UNL     1      -0.108  -2.325   0.752  0.00  0.00    -0.448 OA
ATOM     33  C   UNL     1      -1.125  -2.377   1.638  0.00  0.00    +0.216 A 
ATOM     34 CL   UNL     1      -2.565  -4.842  -3.907  0.00  0.00    -0.084 Cl
ENDBRANCH  22  33
ENDBRANCH  21  22
ENDBRANCH   1  21
TORSDOF 6
