REMARK  Name = ZINC04299829
REMARK  9 active torsions:
REMARK  status: ('A' for Active; 'I' for Inactive)
REMARK    1  A    between atoms: C_1  and  N_2
REMARK    2  A    between atoms: N_2  and  C_3
REMARK    3  A    between atoms: N_2  and  C_4
REMARK    4  A    between atoms: C_7  and  C_10
REMARK    5  A    between atoms: C_11  and  C_12
REMARK    6  A    between atoms: C_11  and  C_14
REMARK    7  A    between atoms: C_15  and  C_30
REMARK    8  A    between atoms: C_16  and  N_25
REMARK    9  A    between atoms: N_17  and  C_19
REMARK                            x       y       z     vdW  Elec       q    Type
REMARK                         _______ _______ _______ _____ _____    ______ ____
ROOT
ATOM      1  C   UNL     1       1.256   2.160   0.076  0.00  0.00    +0.123 A 
ATOM      2  C   UNL     1       2.603   1.585   0.157  0.00  0.00    +0.123 A 
ATOM      3  C   UNL     1       3.489   2.651   0.072  0.00  0.00    +0.159 A 
ATOM      4  N   UNL     1       2.758   3.781  -0.042  0.00  0.00    -0.214 N 
ATOM      5  N   UNL     1       1.398   3.463  -0.038  0.00  0.00    -0.162 NA
ENDROOT
BRANCH   4   6
ATOM      6  C   UNL     1       3.284   5.075  -0.148  0.00  0.00    +0.068 A 
ATOM      7  C   UNL     1       4.443   5.414   0.539  0.00  0.00    +0.028 A 
ATOM      8  C   UNL     1       4.961   6.689   0.429  0.00  0.00    +0.002 A 
ATOM      9  C   UNL     1       4.323   7.631  -0.357  0.00  0.00    +0.000 A 
ATOM     10  C   UNL     1       3.167   7.298  -1.038  0.00  0.00    +0.002 A 
ATOM     11  C   UNL     1       2.646   6.023  -0.936  0.00  0.00    +0.028 A 
ENDBRANCH   4   6
BRANCH   3  12
ATOM     12  N   UNL     1       4.877   2.570   0.104  0.00  0.00    -0.307 N 
ATOM     13  C   UNL     1       5.733   3.230  -0.733  0.00  0.00    +0.093 A 
ATOM     14  C   UNL     1       6.994   2.901  -0.390  0.00  0.00    +0.019 A 
ATOM     15  C   UNL     1       6.917   1.998   0.691  0.00  0.00    +0.019 A 
ATOM     16  C   UNL     1       5.612   1.813   0.973  0.00  0.00    +0.093 A 
ENDBRANCH   3  12
BRANCH   1  18
ATOM     17  C   UNL     1      -1.204   2.087   0.034  0.00  0.00    +0.029 C 
ATOM     18  C   UNL     1      -0.022   1.416   0.120  0.00  0.00    +0.081 C 
BRANCH  17  22
ATOM     19  C   UNL     1      -4.839  -0.061  -0.292  0.00  0.00    +0.029 A 
ATOM     20  C   UNL     1      -4.822   1.185   0.330  0.00  0.00    +0.023 A 
ATOM     21  C   UNL     1      -3.648   1.884   0.438  0.00  0.00    +0.010 A 
ATOM     22  C   UNL     1      -2.463   1.343  -0.079  0.00  0.00    -0.024 A 
ATOM     23  C   UNL     1      -2.486   0.091  -0.709  0.00  0.00    +0.010 A 
ATOM     24  C   UNL     1      -3.664  -0.603  -0.807  0.00  0.00    +0.023 A 
BRANCH  19  26
ATOM     25  C   UNL     1      -7.290  -0.151   0.035  0.00  0.00    +0.129 C 
ATOM     26  N   UNL     1      -6.034  -0.767  -0.400  0.00  0.00    -0.336 N 
ATOM     27  C   UNL     1      -6.035  -2.126  -0.947  0.00  0.00    +0.129 C 
ENDBRANCH  19  26
ENDBRANCH  17  22
BRANCH  18  28
ATOM     28  C   UNL     1      -0.015  -0.010   0.248  0.00  0.00    +0.101 C 
ATOM     29  N   UNL     1      -0.010  -1.142   0.349  0.00  0.00    -0.191 NA
ENDBRANCH  18  28
ENDBRANCH   1  18
BRANCH   2  30
ATOM     30  C   UNL     1       2.938   0.199   0.293  0.00  0.00    +0.105 C 
ATOM     31  N   UNL     1       3.204  -0.900   0.402  0.00  0.00    -0.191 NA
ENDBRANCH   2  30
TORSDOF 7
