REMARK  Name = ZINC62728353
REMARK  9 active torsions:
REMARK  status: ('A' for Active; 'I' for Inactive)
REMARK    1  A    between atoms: C_1  and  C_2
REMARK    2  A    between atoms: C_6  and  C_32
REMARK    3  A    between atoms: C_7  and  O_8
REMARK    4  A    between atoms: O_8  and  C_9
REMARK    5  A    between atoms: C_9  and  C_10
REMARK    6  A    between atoms: C_10  and  O_11
REMARK    7  A    between atoms: O_11  and  C_12
REMARK    8  A    between atoms: C_15  and  C_19
REMARK    9  A    between atoms: C_25  and  C_31
REMARK                            x       y       z     vdW  Elec       q    Type
REMARK                         _______ _______ _______ _____ _____    ______ ____
ROOT
ATOM      1  C   UNL     1      -0.431   3.114   5.125  0.00  0.00    +0.135 A 
ATOM      2  C   UNL     1      -0.957   2.843   6.384  0.00  0.00    +0.047 A 
ATOM      3  C   UNL     1      -0.630   3.630   7.451  0.00  0.00    +0.011 A 
ATOM      4  C   UNL     1       0.239   4.718   7.280  0.00  0.00    -0.023 A 
ATOM      5  C   UNL     1       0.770   4.991   6.011  0.00  0.00    +0.027 A 
ATOM      6  C   UNL     1       0.437   4.187   4.944  0.00  0.00    +0.060 A 
ATOM      7 BR   UNL     1       1.153   4.545   3.231  0.00  0.00    -0.047 Br
ENDROOT
BRANCH   4   8
ATOM      8  C   UNL     1       0.591   5.564   8.422  0.00  0.00    +0.024 C 
ATOM      9  C   UNL     1       0.762   5.004   9.667  0.00  0.00    +0.081 C 
ATOM     10  C   UNL     1       0.920   5.840  10.891  0.00  0.00    +0.144 C 
ATOM     11  N   UNL     1       1.534   6.994  10.898  0.00  0.00    -0.282 NA
ATOM     12  N   UNL     1       0.343   5.264  12.041  0.00  0.00    -0.285 N 
ATOM     13  C   UNL     1      -0.132   5.981  13.004  0.00  0.00    +0.082 C 
ATOM     14  C   UNL     1      -0.735   5.236  14.187  0.00  0.00    +0.091 C 
ATOM     15  S   UNL     1      -0.220   3.519  13.744  0.00  0.00    -0.081 S 
ATOM     16  C   UNL     1       0.265   3.886  12.072  0.00  0.00    +0.167 C 
ATOM     17  N   UNL     1       0.490   3.053  11.089  0.00  0.00    -0.152 NA
ATOM     18  C   UNL     1       0.794   3.534   9.866  0.00  0.00    +0.273 C 
ATOM     19  O   UNL     1       1.091   2.782   8.953  0.00  0.00    -0.268 OA
ATOM     20  C   UNL     1      -0.110   5.684  15.509  0.00  0.00    +0.025 C 
ATOM     21  H   UNL     1       1.913   7.346  10.078  0.00  0.00    +0.188 HD
ENDBRANCH   4   8
BRANCH   1  22
ATOM     22  O   UNL     1      -0.761   2.327   4.071  0.00  0.00    -0.487 OA
BRANCH  22  23
ATOM     23  C   UNL     1      -1.657   1.243   4.326  0.00  0.00    +0.270 C 
BRANCH  23  24
ATOM     24  C   UNL     1      -1.910   0.474   3.028  0.00  0.00    +0.270 C 
BRANCH  24  25
ATOM     25  O   UNL     1      -0.694  -0.136   2.591  0.00  0.00    -0.488 OA
BRANCH  25  32
ATOM     26  C   UNL     1      -0.191   1.223   0.166  0.00  0.00    +0.047 C 
ATOM     27  C   UNL     1      -0.507  -0.249   0.222  0.00  0.00    -0.009 A 
ATOM     28  C   UNL     1      -0.554  -0.991  -0.943  0.00  0.00    +0.007 A 
ATOM     29  C   UNL     1      -0.845  -2.342  -0.892  0.00  0.00    +0.001 A 
ATOM     30  C   UNL     1      -1.088  -2.954   0.323  0.00  0.00    +0.007 A 
ATOM     31  C   UNL     1      -1.042  -2.217   1.491  0.00  0.00    -0.009 A 
ATOM     32  C   UNL     1      -0.746  -0.862   1.443  0.00  0.00    +0.126 A 
ATOM     33  C   UNL     1      -1.308  -2.884   2.815  0.00  0.00    +0.047 C 
ENDBRANCH  25  32
ENDBRANCH  24  25
ENDBRANCH  23  24
ENDBRANCH  22  23
ENDBRANCH   1  22
TORSDOF 6
