REMARK  Name = ZINC21712681
REMARK  10 active torsions:
REMARK  status: ('A' for Active; 'I' for Inactive)
REMARK    1  A    between atoms: C_1  and  C_2
REMARK    2  A    between atoms: C_2  and  C_3
REMARK    3  A    between atoms: C_2  and  C_4
REMARK    4  A    between atoms: C_4  and  C_5
REMARK    5  A    between atoms: C_5  and  N_6
REMARK    6  A    between atoms: C_7  and  C_9
REMARK    7  A    between atoms: C_15  and  C_17
REMARK    8  A    between atoms: C_20  and  N_23
REMARK    9  A    between atoms: N_23  and  S_24
REMARK   10  A    between atoms: S_24  and  C_27
REMARK                            x       y       z     vdW  Elec       q    Type
REMARK                         _______ _______ _______ _____ _____    ______ ____
ROOT
ATOM      1  C   UNL     1      -3.508   9.529  -2.561  0.00  0.00    +0.037 A 
ATOM      2  C   UNL     1      -2.883  10.130  -3.658  0.00  0.00    +0.015 A 
ATOM      3  C   UNL     1      -2.772  11.500  -3.719  0.00  0.00    +0.025 A 
ATOM      4  C   UNL     1      -3.272  12.287  -2.686  0.00  0.00    +0.048 A 
ATOM      5  C   UNL     1      -3.891  11.692  -1.589  0.00  0.00    +0.025 A 
ATOM      6  C   UNL     1      -4.009  10.322  -1.525  0.00  0.00    +0.015 A 
ENDROOT
BRANCH   1  12
ATOM      7  C   UNL     1      -2.764   7.812  -4.833  0.00  0.00    +0.162 C 
ATOM      8  C   UNL     1      -2.444   6.590  -5.719  0.00  0.00    +0.033 C 
ATOM      9  C   UNL     1      -2.253   5.450  -4.679  0.00  0.00    +0.021 C 
ATOM     10  C   UNL     1      -3.299   5.832  -3.602  0.00  0.00    +0.109 C 
ATOM     11  N   UNL     1      -3.265   7.305  -3.548  0.00  0.00    -0.286 N 
ATOM     12  C   UNL     1      -3.633   8.061  -2.495  0.00  0.00    +0.247 C 
ATOM     13  O   UNL     1      -4.069   7.532  -1.490  0.00  0.00    -0.270 OA
BRANCH   7  15
ATOM     14  N   UNL     1      -3.571   9.228  -6.694  0.00  0.00    -0.314 N 
ATOM     15  C   UNL     1      -3.817   8.663  -5.495  0.00  0.00    +0.234 C 
ATOM     16  O   UNL     1      -4.885   8.839  -4.949  0.00  0.00    -0.274 OA
ATOM     17  H   UNL     1      -2.602   9.069  -7.189  0.00  0.00    +0.149 HD
BRANCH  14  18
ATOM     18  C   UNL     1      -4.595  10.055  -7.337  0.00  0.00    +0.104 C 
BRANCH  18  19
ATOM     19  C   UNL     1      -4.066  10.572  -8.676  0.00  0.00    +0.022 C 
BRANCH  19  21
ATOM     20  C   UNL     1      -4.564  12.053 -10.626  0.00  0.00    +0.007 C 
ATOM     21  C   UNL     1      -5.136  11.436  -9.348  0.00  0.00    -0.016 C 
ATOM     22  C   UNL     1      -6.346  10.568  -9.698  0.00  0.00    +0.007 C 
ENDBRANCH  19  21
ENDBRANCH  18  19
ENDBRANCH  14  18
ENDBRANCH   7  15
ENDBRANCH   1  12
BRANCH   4  23
ATOM     23  N   UNL     1      -3.155  13.671  -2.748  0.00  0.00    -0.216 N 
ATOM     24  H   UNL     1      -3.804  14.248  -3.423  0.00  0.00    +0.174 HD
BRANCH  23  25
ATOM     25  S   UNL     1      -2.037  14.451  -1.807  0.00  0.00    +0.072 S 
ATOM     26  O   UNL     1      -2.140  15.834  -2.116  0.00  0.00    -0.150 OA
ATOM     27  O   UNL     1      -2.200  13.951  -0.486  0.00  0.00    -0.150 OA
BRANCH  25  28
ATOM     28  C   UNL     1      -0.444  13.930  -2.350  0.00  0.00    +0.109 A 
ATOM     29  C   UNL     1       0.249  14.678  -3.284  0.00  0.00    +0.029 A 
ATOM     30  C   UNL     1       1.495  14.262  -3.706  0.00  0.00    +0.006 A 
ATOM     31  C   UNL     1       2.059  13.097  -3.201  0.00  0.00    -0.044 A 
ATOM     32  C   UNL     1       1.371  12.355  -2.268  0.00  0.00    -0.042 A 
ATOM     33  C   UNL     1       0.118  12.778  -1.841  0.00  0.00    +0.032 A 
ATOM     34  C   UNL     1       1.925  11.089  -1.670  0.00  0.00    +0.035 C 
ATOM     35  C   UNL     1       3.063  10.543  -2.530  0.00  0.00    +0.005 C 
ATOM     36  C   UNL     1       4.065  11.676  -2.782  0.00  0.00    +0.005 C 
ATOM     37  C   UNL     1       3.416  12.694  -3.717  0.00  0.00    +0.035 C 
ENDBRANCH  25  28
ENDBRANCH  23  25
ENDBRANCH   4  23
TORSDOF 8
