REMARK  Name = ZINC64202880
REMARK  10 active torsions:
REMARK  status: ('A' for Active; 'I' for Inactive)
REMARK    1  A    between atoms: C_1  and  C_2
REMARK    2  A    between atoms: C_2  and  C_3
REMARK    3  A    between atoms: C_3  and  N_4
REMARK    4  A    between atoms: N_11  and  C_14
REMARK    5  A    between atoms: C_14  and  C_15
REMARK    6  A    between atoms: N_17  and  C_18
REMARK    7  A    between atoms: C_21  and  C_34
REMARK    8  A    between atoms: C_22  and  C_24
REMARK    9  A    between atoms: N_30  and  C_31
REMARK   10  A    between atoms: C_31  and  C_32
REMARK                            x       y       z     vdW  Elec       q    Type
REMARK                         _______ _______ _______ _____ _____    ______ ____
ROOT
ATOM      1  C   UNL     1      -1.593  -5.626  -1.008  0.00  0.00    +0.235 C 
ATOM      2  O   UNL     1      -1.637  -5.012   0.036  0.00  0.00    -0.274 OA
ATOM      3  N   UNL     1      -2.410  -6.680  -1.205  0.00  0.00    -0.284 N 
ATOM      4  H   UNL     1      -2.374  -7.172  -2.041  0.00  0.00    +0.152 HD
ENDROOT
BRANCH   3   5
ATOM      5  C   UNL     1      -3.351  -7.083  -0.157  0.00  0.00    +0.251 C 
ATOM      6  N   UNL     1      -2.676  -7.879   0.888  0.00  0.00    -0.259 NA
ATOM      7  C   UNL     1      -3.176  -8.958   1.291  0.00  0.00    +0.030 C 
ATOM      8  C   UNL     1      -4.488  -9.429   0.679  0.00  0.00    +0.138 C 
ATOM      9  S   UNL     1      -4.570  -8.316  -0.794  0.00  0.00    -0.102 S 
ATOM     10  C   UNL     1      -2.491  -9.772   2.359  0.00  0.00    +0.061 C 
BRANCH   8  11
ATOM     11  C   UNL     1      -4.412 -10.899   0.263  0.00  0.00    +0.230 C 
ATOM     12  N   UNL     1      -4.203 -11.759   1.438  0.00  0.00    -0.194 NA
ATOM     13  N   UNL     1      -5.167 -12.523   1.532  0.00  0.00    -0.221 N 
ATOM     14  C   UNL     1      -6.096 -12.342   0.553  0.00  0.00    +0.154 C 
ATOM     15  S   UNL     1      -7.546 -13.238   0.401  0.00  0.00    -0.017 S 
ATOM     16  N   UNL     1      -5.706 -11.351  -0.283  0.00  0.00    -0.283 N 
ATOM     17  H   UNL     1      -5.255 -13.186   2.234  0.00  0.00    +0.176 HD
BRANCH  16  18
ATOM     18  C   UNL     1      -6.408 -10.839  -1.463  0.00  0.00    +0.135 C 
BRANCH  18  19
ATOM     19  C   UNL     1      -5.974 -11.614  -2.680  0.00  0.00    -0.016 C 
ATOM     20  C   UNL     1      -6.869 -12.202  -3.436  0.00  0.00    +0.005 C 
ENDBRANCH  18  19
ENDBRANCH  16  18
ENDBRANCH   8  11
ENDBRANCH   3   5
BRANCH   1  21
ATOM     21  C   UNL     1      -0.625  -5.212  -2.086  0.00  0.00    +0.222 C 
BRANCH  21  29
ATOM     22  N   UNL     1       0.738  -1.962  -1.265  0.00  0.00    -0.292 N 
ATOM     23  C   UNL     1       1.730  -2.767  -0.709  0.00  0.00    +0.070 A 
ATOM     24  C   UNL     1       2.909  -2.494  -0.032  0.00  0.00    +0.028 A 
ATOM     25  C   UNL     1       3.705  -3.533   0.409  0.00  0.00    +0.002 A 
ATOM     26  C   UNL     1       3.331  -4.845   0.177  0.00  0.00    +0.002 A 
ATOM     27  C   UNL     1       2.159  -5.127  -0.496  0.00  0.00    +0.028 A 
ATOM     28  C   UNL     1       1.353  -4.091  -0.942  0.00  0.00    +0.070 A 
ATOM     29  N   UNL     1       0.143  -4.050  -1.632  0.00  0.00    -0.283 N 
ATOM     30  C   UNL     1      -0.202  -2.760  -1.806  0.00  0.00    +0.331 A 
ATOM     31  O   UNL     1      -1.209  -2.374  -2.369  0.00  0.00    -0.246 OA
BRANCH  22  32
ATOM     32  C   UNL     1       0.718  -0.497  -1.257  0.00  0.00    +0.127 C 
BRANCH  32  34
ATOM     33  C   UNL     1      -0.019   1.526   0.010  0.00  0.00    +0.005 C 
ATOM     34  C   UNL     1       0.002  -0.004   0.002  0.00  0.00    +0.018 C 
ENDBRANCH  32  34
ENDBRANCH  22  32
ENDBRANCH  21  29
ENDBRANCH   1  21
TORSDOF 8
