REMARK  Name = ZINC03248333
REMARK  7 active torsions:
REMARK  status: ('A' for Active; 'I' for Inactive)
REMARK    1  A    between atoms: C_1  and  N_2
REMARK    2  A    between atoms: C_3  and  C_5
REMARK    3  A    between atoms: C_5  and  O_6
REMARK    4  A    between atoms: O_6  and  C_7
REMARK    5  A    between atoms: C_7  and  C_9
REMARK    6  A    between atoms: C_11  and  S_16
REMARK    7  A    between atoms: S_16  and  N_19
REMARK                            x       y       z     vdW  Elec       q    Type
REMARK                         _______ _______ _______ _____ _____    ______ ____
ROOT
ATOM      1  C   UNL     1       2.057  -4.513  -3.554  0.00  0.00    +0.079 A 
ATOM      2  C   UNL     1       2.597  -3.653  -4.513  0.00  0.00    +0.045 A 
ATOM      3  C   UNL     1       3.229  -4.173  -5.623  0.00  0.00    +0.110 A 
ATOM      4  C   UNL     1       3.330  -5.543  -5.788  0.00  0.00    +0.030 A 
ATOM      5  C   UNL     1       2.799  -6.402  -4.844  0.00  0.00    +0.023 A 
ATOM      6  C   UNL     1       2.168  -5.896  -3.724  0.00  0.00    +0.055 A 
ATOM      7 CL   UNL     1       1.508  -6.975  -2.534  0.00  0.00    -0.083 Cl
ENDROOT
BRANCH   3   8
ATOM      8  S   UNL     1       3.910  -3.089  -6.834  0.00  0.00    +0.075 S 
ATOM      9  O   UNL     1       3.969  -3.823  -8.049  0.00  0.00    -0.150 OA
ATOM     10  O   UNL     1       3.205  -1.860  -6.721  0.00  0.00    -0.150 OA
BRANCH   8  11
ATOM     11  N   UNL     1       5.475  -2.779  -6.390  0.00  0.00    -0.203 N 
ATOM     12  C   UNL     1       5.805  -1.585  -5.601  0.00  0.00    +0.132 C 
ATOM     13  C   UNL     1       7.053  -0.944  -6.222  0.00  0.00    +0.025 C 
ATOM     14  C   UNL     1       8.222  -1.922  -6.103  0.00  0.00    +0.038 C 
ATOM     15  C   UNL     1       7.833  -3.274  -6.640  0.00  0.00    -0.025 A 
ATOM     16  C   UNL     1       6.503  -3.654  -6.756  0.00  0.00    +0.054 A 
ATOM     17  C   UNL     1       6.179  -4.914  -7.246  0.00  0.00    +0.025 A 
ATOM     18  C   UNL     1       7.179  -5.791  -7.615  0.00  0.00    +0.002 A 
ATOM     19  C   UNL     1       8.504  -5.415  -7.497  0.00  0.00    +0.000 A 
ATOM     20  C   UNL     1       8.831  -4.157  -7.019  0.00  0.00    +0.005 A 
ENDBRANCH   8  11
ENDBRANCH   3   8
BRANCH   1  21
ATOM     21  C   UNL     1       1.379  -3.964  -2.363  0.00  0.00    +0.341 C 
ATOM     22  O   UNL     1       0.915  -4.715  -1.528  0.00  0.00    -0.245 OA
BRANCH  21  23
ATOM     23  O   UNL     1       1.274  -2.631  -2.202  0.00  0.00    -0.452 OA
BRANCH  23  24
ATOM     24  C   UNL     1       0.605  -2.170  -1.027  0.00  0.00    +0.328 C 
BRANCH  24  27
ATOM     25  C   UNL     1      -0.018   1.463   0.009  0.00  0.00    +0.128 C 
ATOM     26  N   UNL     1       0.002  -0.002   0.001  0.00  0.00    -0.316 N 
ATOM     27  C   UNL     1       0.585  -0.663  -1.019  0.00  0.00    +0.251 C 
ATOM     28  O   UNL     1       1.093  -0.045  -1.930  0.00  0.00    -0.272 OA
ATOM     29  H   UNL     1      -0.405  -0.496   0.730  0.00  0.00    +0.148 HD
ENDBRANCH  24  27
ENDBRANCH  23  24
ENDBRANCH  21  23
ENDBRANCH   1  21
TORSDOF 6
