REMARK  Name = ZINC64598285
REMARK  7 active torsions:
REMARK  status: ('A' for Active; 'I' for Inactive)
REMARK    1  A    between atoms: C_1  and  N_2
REMARK    2  A    between atoms: N_2  and  S_3
REMARK    3  A    between atoms: S_3  and  C_6
REMARK    4  A    between atoms: C_10  and  S_12
REMARK    5  A    between atoms: S_12  and  N_15
REMARK    6  A    between atoms: N_15  and  C_16
REMARK    7  A    between atoms: C_18  and  C_19
REMARK                            x       y       z     vdW  Elec       q    Type
REMARK                         _______ _______ _______ _____ _____    ______ ____
ROOT
ATOM      1  S   UNL     1       5.749  -1.949   0.501  0.00  0.00    +0.059 S 
ATOM      2  O   UNL     1       5.129  -3.223   0.613  0.00  0.00    -0.153 OA
ATOM      3  O   UNL     1       7.040  -1.778  -0.068  0.00  0.00    -0.153 OA
ENDROOT
BRANCH   1   8
ATOM      4  C   UNL     1       2.438  -0.437  -1.202  0.00  0.00    +0.107 A 
ATOM      5  C   UNL     1       2.926   0.656  -1.894  0.00  0.00    +0.028 A 
ATOM      6  C   UNL     1       4.275   0.953  -1.855  0.00  0.00    +0.004 A 
ATOM      7  C   UNL     1       5.137   0.158  -1.123  0.00  0.00    +0.028 A 
ATOM      8  C   UNL     1       4.650  -0.935  -0.431  0.00  0.00    +0.107 A 
ATOM      9  C   UNL     1       3.300  -1.229  -0.466  0.00  0.00    +0.057 A 
BRANCH   4  10
ATOM     10  S   UNL     1       0.718  -0.816  -1.251  0.00  0.00    +0.058 S 
ATOM     11  O   UNL     1       0.599  -2.201  -0.959  0.00  0.00    -0.153 OA
ATOM     12  O   UNL     1       0.211  -0.243  -2.449  0.00  0.00    -0.153 OA
BRANCH  10  14
ATOM     13  C   UNL     1      -0.018   1.461   0.010  0.00  0.00    +0.127 C 
ATOM     14  N   UNL     1       0.002  -0.004   0.002  0.00  0.00    -0.193 NA
ATOM     15  H   UNL     1      -0.404  -0.499   0.731  0.00  0.00    +0.148 HD
ENDBRANCH  10  14
ENDBRANCH   4  10
ENDBRANCH   1   8
BRANCH   1  16
ATOM     16  N   UNL     1       5.818  -1.320   2.031  0.00  0.00    -0.186 NA
ATOM     17  H   UNL     1       6.650  -0.949   2.366  0.00  0.00    +0.148 HD
BRANCH  16  18
ATOM     18  C   UNL     1       4.623  -1.322   2.879  0.00  0.00    +0.085 C 
ATOM     19  C   UNL     1       4.441  -0.151   3.846  0.00  0.00    +0.030 C 
ATOM     20  C   UNL     1       4.823  -1.533   4.381  0.00  0.00    +0.039 C 
BRANCH  20  21
ATOM     21  C   UNL     1       3.765  -2.309   5.121  0.00  0.00    -0.040 A 
ATOM     22  C   UNL     1       2.459  -1.855   5.138  0.00  0.00    +0.004 A 
ATOM     23  C   UNL     1       1.488  -2.566   5.817  0.00  0.00    +0.003 A 
ATOM     24  C   UNL     1       1.820  -3.732   6.480  0.00  0.00    +0.038 A 
ATOM     25  C   UNL     1       3.127  -4.189   6.463  0.00  0.00    +0.124 A 
ATOM     26  C   UNL     1       4.099  -3.478   5.778  0.00  0.00    +0.042 A 
ATOM     27  F   UNL     1       3.454  -5.328   7.111  0.00  0.00    -0.205 F 
ENDBRANCH  20  21
ENDBRANCH  16  18
ENDBRANCH   1  16
TORSDOF 6
