REMARK  Name = ZINC66240858
REMARK  7 active torsions:
REMARK  status: ('A' for Active; 'I' for Inactive)
REMARK    1  A    between atoms: C_4  and  C_7
REMARK    2  A    between atoms: C_7  and  C_9
REMARK    3  A    between atoms: C_7  and  N_14
REMARK    4  A    between atoms: C_15  and  C_17
REMARK    5  A    between atoms: C_20  and  N_23
REMARK    6  A    between atoms: C_24  and  N_30
REMARK    7  A    between atoms: C_25  and  C_28
REMARK                            x       y       z     vdW  Elec       q    Type
REMARK                         _______ _______ _______ _____ _____    ______ ____
ROOT
ATOM      1  N   UNL     1       3.642  -2.088  -0.603  0.00  0.00    -0.304 N 
ATOM      2  C   UNL     1       4.002  -2.299  -1.884  0.00  0.00    +0.245 C 
ATOM      3  O   UNL     1       4.466  -1.389  -2.543  0.00  0.00    -0.270 OA
ATOM      4  H   UNL     1       3.341  -2.830  -0.055  0.00  0.00    +0.150 HD
ENDROOT
BRANCH   2   5
ATOM      5  C   UNL     1       3.832  -3.636  -2.488  0.00  0.00    +0.037 A 
ATOM      6  C   UNL     1       3.294  -4.681  -1.734  0.00  0.00    +0.015 A 
ATOM      7  C   UNL     1       3.136  -5.927  -2.301  0.00  0.00    +0.028 A 
ATOM      8  C   UNL     1       3.513  -6.144  -3.622  0.00  0.00    +0.067 A 
ATOM      9  C   UNL     1       4.049  -5.105  -4.376  0.00  0.00    +0.028 A 
ATOM     10  C   UNL     1       4.204  -3.856  -3.817  0.00  0.00    +0.015 A 
BRANCH   8  11
ATOM     11  N   UNL     1       3.352  -7.409  -4.194  0.00  0.00    -0.218 N 
ATOM     12  C   UNL     1       3.027  -7.661  -5.489  0.00  0.00    +0.137 A 
ATOM     13  C   UNL     1       2.971  -9.044  -5.632  0.00  0.00    +0.111 A 
ATOM     14  C   UNL     1       3.276  -9.605  -4.369  0.00  0.00    +0.155 A 
ATOM     15  N   UNL     1       3.504  -8.632  -3.532  0.00  0.00    -0.172 NA
BRANCH  12  16
ATOM     16  N   UNL     1       2.795  -6.723  -6.475  0.00  0.00    -0.342 N 
ATOM     17  H   UNL     1       2.859  -5.777  -6.270  0.00  0.00    +0.144 HD
ATOM     18  H   UNL     1       2.568  -7.010  -7.374  0.00  0.00    +0.144 HD
ENDBRANCH  12  16
BRANCH  13  19
ATOM     19  C   UNL     1       2.663  -9.765  -6.831  0.00  0.00    +0.104 C 
ATOM     20  N   UNL     1       2.419 -10.336  -7.782  0.00  0.00    -0.191 NA
ENDBRANCH  13  19
ENDBRANCH   8  11
ENDBRANCH   2   5
BRANCH   1  21
ATOM     21  C   UNL     1       3.708  -0.739  -0.036  0.00  0.00    +0.107 C 
BRANCH  21  25
ATOM     22  C   UNL     1       0.066   1.332  -0.871  0.00  0.00    +0.000 A 
ATOM     23  C   UNL     1       1.274   1.998  -0.954  0.00  0.00    +0.000 A 
ATOM     24  C   UNL     1       2.453   1.328  -0.684  0.00  0.00    +0.005 A 
ATOM     25  C   UNL     1       2.423  -0.008  -0.330  0.00  0.00    -0.027 A 
ATOM     26  C   UNL     1       1.214  -0.674  -0.246  0.00  0.00    +0.005 A 
ATOM     27  C   UNL     1       0.036  -0.004  -0.517  0.00  0.00    +0.000 A 
ENDBRANCH  21  25
BRANCH  21  28
ATOM     28  C   UNL     1       3.907  -0.831   1.478  0.00  0.00    +0.014 C 
ATOM     29  C   UNL     1       4.108   0.580   2.071  0.00  0.00    +0.006 C 
ATOM     30  C   UNL     1       5.161   0.376   3.188  0.00  0.00    +0.000 C 
ATOM     31  C   UNL     1       6.119  -0.671   2.567  0.00  0.00    +0.000 C 
ATOM     32  C   UNL     1       5.186  -1.626   1.794  0.00  0.00    +0.006 C 
ENDBRANCH  21  28
ENDBRANCH   1  21
TORSDOF 7
