REMARK  Name = ZINC10776436
REMARK  6 active torsions:
REMARK  status: ('A' for Active; 'I' for Inactive)
REMARK    1  A    between atoms: C_1  and  C_2
REMARK    2  A    between atoms: C_5  and  C_9
REMARK    3  A    between atoms: C_7  and  C_8
REMARK    4  A    between atoms: C_15  and  C_17
REMARK    5  A    between atoms: N_23  and  S_24
REMARK    6  A    between atoms: S_24  and  C_27
REMARK                            x       y       z     vdW  Elec       q    Type
REMARK                         _______ _______ _______ _____ _____    ______ ____
ROOT
ATOM      1  C   UNL     1      -3.449   1.325   0.163  0.00  0.00    +0.080 A 
ATOM      2  C   UNL     1      -3.383   2.687   0.059  0.00  0.00    +0.076 A 
ATOM      3  S   UNL     1      -1.612   2.929   0.001  0.00  0.00    -0.060 S 
ATOM      4  C   UNL     1      -1.147   1.208   0.120  0.00  0.00    +0.165 A 
ATOM      5  N   UNL     1      -2.328   0.621   0.185  0.00  0.00    -0.225 NA
ATOM      6  N   UNL     1       0.120   0.638   0.134  0.00  0.00    -0.263 N 
ATOM      7  C   UNL     1       1.212   1.423   0.045  0.00  0.00    +0.238 C 
ATOM      8  O   UNL     1       1.089   2.626  -0.042  0.00  0.00    -0.274 OA
ATOM      9  H   UNL     1       0.218  -0.324   0.204  0.00  0.00    +0.157 HD
ENDROOT
BRANCH   1  14
ATOM     10  C   UNL     1      -8.553  -1.322   0.474  0.00  0.00    +0.044 C 
ATOM     11  C   UNL     1      -7.218  -0.629   0.394  0.00  0.00    -0.047 A 
ATOM     12  C   UNL     1      -7.162   0.737   0.185  0.00  0.00    +0.004 A 
ATOM     13  C   UNL     1      -5.941   1.377   0.110  0.00  0.00    +0.010 A 
ATOM     14  C   UNL     1      -4.764   0.644   0.244  0.00  0.00    +0.001 A 
ATOM     15  C   UNL     1      -4.826  -0.734   0.448  0.00  0.00    +0.013 A 
ATOM     16  C   UNL     1      -6.052  -1.362   0.527  0.00  0.00    -0.047 A 
ATOM     17  C   UNL     1      -6.121  -2.850   0.754  0.00  0.00    +0.044 C 
ENDBRANCH   1  14
BRANCH   7  18
ATOM     18  C   UNL     1       2.587   0.804   0.054  0.00  0.00    +0.166 C 
ATOM     19  C   UNL     1       3.295   1.108  -1.270  0.00  0.00    +0.030 C 
ATOM     20  C   UNL     1       4.737   0.602  -1.200  0.00  0.00    +0.003 C 
ATOM     21  C   UNL     1       5.482   1.323  -0.074  0.00  0.00    +0.017 C 
ATOM     22  C   UNL     1       4.797   1.020   1.262  0.00  0.00    +0.110 C 
ATOM     23  N   UNL     1       3.375   1.373   1.156  0.00  0.00    -0.164 NA
BRANCH  23  24
ATOM     24  S   UNL     1       2.674   2.391   2.258  0.00  0.00    +0.068 S 
ATOM     25  O   UNL     1       1.280   2.113   2.238  0.00  0.00    -0.152 OA
ATOM     26  O   UNL     1       3.452   2.304   3.443  0.00  0.00    -0.152 OA
BRANCH  24  27
ATOM     27  C   UNL     1       2.868   4.032   1.647  0.00  0.00    +0.143 A 
ATOM     28  C   UNL     1       1.982   4.801   0.967  0.00  0.00    +0.036 A 
ATOM     29  C   UNL     1       2.355   6.076   0.586  0.00  0.00    +0.010 A 
ATOM     30  C   UNL     1       3.599   6.517   0.895  0.00  0.00    +0.047 A 
ATOM     31  S   UNL     1       4.285   5.112   1.756  0.00  0.00    -0.077 S 
ENDBRANCH  24  27
ENDBRANCH  23  24
ENDBRANCH   7  18
TORSDOF 4
