REMARK  Name = ZINC65231458
REMARK  5 active torsions:
REMARK  status: ('A' for Active; 'I' for Inactive)
REMARK    1  A    between atoms: C_1  and  C_2
REMARK    2  A    between atoms: C_2  and  C_3
REMARK    3  A    between atoms: C_2  and  C_4
REMARK    4  A    between atoms: C_4  and  N_5
REMARK    5  A    between atoms: C_11  and  C_17
REMARK                            x       y       z     vdW  Elec       q    Type
REMARK                         _______ _______ _______ _____ _____    ______ ____
ROOT
ATOM      1  N   UNL     1       2.135  -0.078  -1.264  0.00  0.00    -0.219 N 
ATOM      2  C   UNL     1       2.499   1.119  -1.756  0.00  0.00    +0.275 C 
ATOM      3  O   UNL     1       1.674   1.866  -2.248  0.00  0.00    -0.268 OA
ATOM      4  C   UNL     1       3.939   1.514  -1.686  0.00  0.00    +0.155 C 
ATOM      5  N   UNL     1       4.425   2.666  -2.135  0.00  0.00    -0.208 NA
ATOM      6  S   UNL     1       6.015   2.714  -1.878  0.00  0.00    -0.005 S 
ATOM      7  C   UNL     1       6.244   1.080  -1.078  0.00  0.00    +0.204 C 
ATOM      8  C   UNL     1       4.806   0.573  -1.096  0.00  0.00    +0.090 C 
ATOM      9  N   UNL     1       4.338  -0.572  -0.646  0.00  0.00    -0.164 NA
ATOM     10  C   UNL     1       3.046  -0.898  -0.716  0.00  0.00    +0.333 C 
ATOM     11  O   UNL     1       2.684  -1.974  -0.274  0.00  0.00    -0.250 OA
ENDROOT
BRANCH   7  12
ATOM     12  C   UNL     1       6.756   1.227   0.332  0.00  0.00    +0.236 C 
ATOM     13  O   UNL     1       5.974   1.348   1.251  0.00  0.00    -0.274 OA
ATOM     14  N   UNL     1       8.082   1.223   0.570  0.00  0.00    -0.297 N 
ATOM     15  C   UNL     1       9.041   1.083  -0.535  0.00  0.00    +0.126 C 
ATOM     16  C   UNL     1      10.014   2.268  -0.492  0.00  0.00    +0.125 C 
ATOM     17  N   UNL     1      10.528   2.405   0.878  0.00  0.00    -0.314 N 
ATOM     18  C   UNL     1       9.569   2.545   1.983  0.00  0.00    +0.125 C 
ATOM     19  C   UNL     1       8.596   1.366   1.940  0.00  0.00    +0.126 C 
ATOM     20  C   UNL     1      11.896   2.401   1.124  0.00  0.00    +0.099 A 
ATOM     21  C   UNL     1      12.783   2.143   0.084  0.00  0.00    +0.042 A 
ATOM     22  C   UNL     1      14.141   2.142   0.343  0.00  0.00    +0.005 A 
ATOM     23  C   UNL     1      14.569   2.402   1.639  0.00  0.00    +0.018 A 
ATOM     24  C   UNL     1      13.633   2.650   2.622  0.00  0.00    +0.084 A 
ATOM     25  N   UNL     1      12.343   2.650   2.345  0.00  0.00    -0.350 N 
ATOM     26  H   UNL     1      11.707   2.831   3.054  0.00  0.00    +0.166 HD
ENDBRANCH   7  12
BRANCH   1  27
ATOM     27  C   UNL     1       0.730  -0.489  -1.320  0.00  0.00    +0.121 C 
BRANCH  27  29
ATOM     28  C   UNL     1      -0.015   1.504  -0.009  0.00  0.00    +0.009 C 
ATOM     29  C   UNL     1       0.011  -0.025  -0.051  0.00  0.00    +0.001 C 
ATOM     30  C   UNL     1      -1.422  -0.561  -0.052  0.00  0.00    +0.009 C 
ENDBRANCH  27  29
ENDBRANCH   1  27
TORSDOF 3
