REMARK  Name = ZINC21317180
REMARK  8 active torsions:
REMARK  status: ('A' for Active; 'I' for Inactive)
REMARK    1  A    between atoms: C_1  and  C_2
REMARK    2  A    between atoms: C_2  and  C_3
REMARK    3  A    between atoms: C_2  and  C_4
REMARK    4  A    between atoms: C_4  and  C_6
REMARK    5  A    between atoms: C_4  and  N_13
REMARK    6  A    between atoms: N_13  and  C_14
REMARK    7  A    between atoms: C_14  and  C_15
REMARK    8  A    between atoms: C_28  and  C_30
REMARK                            x       y       z     vdW  Elec       q    Type
REMARK                         _______ _______ _______ _____ _____    ______ ____
ROOT
ATOM      1  C   UNL     1      -3.183   1.526  -2.533  0.00  0.00    +0.234 C 
ATOM      2  O   UNL     1      -3.123   0.768  -3.478  0.00  0.00    -0.274 OA
ATOM      3  N   UNL     1      -3.753   2.739  -2.676  0.00  0.00    -0.256 N 
ATOM      4  C   UNL     1      -3.823   3.627  -1.594  0.00  0.00    +0.058 A 
ATOM      5  C   UNL     1      -2.685   4.265  -1.129  0.00  0.00    +0.025 A 
ATOM      6  C   UNL     1      -2.777   5.156  -0.075  0.00  0.00    +0.002 A 
ATOM      7  C   UNL     1      -4.001   5.413   0.514  0.00  0.00    +0.002 A 
ATOM      8  C   UNL     1      -5.141   4.774   0.062  0.00  0.00    +0.025 A 
ATOM      9  C   UNL     1      -5.055   3.873  -0.986  0.00  0.00    +0.055 A 
ATOM     10  N   UNL     1      -6.184   3.172  -1.425  0.00  0.00    -0.284 N 
ATOM     11  C   UNL     1      -6.477   3.099  -2.741  0.00  0.00    +0.219 C 
ATOM     12  O   UNL     1      -7.410   2.421  -3.114  0.00  0.00    -0.275 OA
ATOM     13  C   UNL     1      -5.652   3.855  -3.749  0.00  0.00    +0.128 C 
ATOM     14  C   UNL     1      -4.306   3.155  -3.967  0.00  0.00    +0.194 C 
ATOM     15  H   UNL     1      -6.761   2.735  -0.778  0.00  0.00    +0.155 HD
ENDROOT
BRANCH  14  16
ATOM     16  C   UNL     1      -3.332   4.116  -4.651  0.00  0.00    +0.409 C 
ATOM     17  F   UNL     1      -2.106   3.472  -4.853  0.00  0.00    -0.169 F 
ATOM     18  F   UNL     1      -3.858   4.514  -5.885  0.00  0.00    -0.169 F 
ATOM     19  F   UNL     1      -3.140   5.240  -3.841  0.00  0.00    -0.169 F 
ENDBRANCH  14  16
BRANCH   1  20
ATOM     20  C   UNL     1      -2.618   1.113  -1.198  0.00  0.00    +0.178 C 
BRANCH  20  21
ATOM     21  N   UNL     1      -2.057  -0.241  -1.302  0.00  0.00    -0.301 NA
ATOM     22  H   UNL     1      -1.305  -0.270  -1.974  0.00  0.00    +0.123 HD
BRANCH  21  23
ATOM     23  C   UNL     1      -1.611  -0.728   0.010  0.00  0.00    +0.087 C 
BRANCH  23  24
ATOM     24  C   UNL     1      -1.665  -2.234   0.031  0.00  0.00    -0.030 A 
ATOM     25  C   UNL     1      -1.267  -2.956  -1.079  0.00  0.00    +0.008 A 
ATOM     26  C   UNL     1      -1.316  -4.337  -1.060  0.00  0.00    +0.038 A 
ATOM     27  C   UNL     1      -1.763  -4.998   0.072  0.00  0.00    +0.123 A 
ATOM     28  C   UNL     1      -2.162  -4.274   1.183  0.00  0.00    +0.038 A 
ATOM     29  C   UNL     1      -2.107  -2.893   1.163  0.00  0.00    +0.008 A 
ATOM     30  F   UNL     1      -1.812  -6.348   0.091  0.00  0.00    -0.205 F 
ENDBRANCH  23  24
BRANCH  23  32
ATOM     31  C   UNL     1       0.246  -0.663   1.680  0.00  0.00    +0.009 C 
ATOM     32  C   UNL     1      -0.174  -0.266   0.264  0.00  0.00    +0.004 C 
ATOM     33  C   UNL     1       0.761  -0.927  -0.751  0.00  0.00    +0.009 C 
ENDBRANCH  23  32
ENDBRANCH  21  23
ENDBRANCH  20  21
ENDBRANCH   1  20
TORSDOF 6
