REMARK  Name = ZINC11846418
REMARK  9 active torsions:
REMARK  status: ('A' for Active; 'I' for Inactive)
REMARK    1  A    between atoms: C_1  and  N_2
REMARK    2  A    between atoms: C_6  and  C_7
REMARK    3  A    between atoms: C_7  and  C_9
REMARK    4  A    between atoms: C_7  and  N_43
REMARK    5  A    between atoms: C_9  and  N_10
REMARK    6  A    between atoms: C_11  and  C_13
REMARK    7  A    between atoms: C_17  and  N_19
REMARK    8  A    between atoms: C_22  and  N_43
REMARK    9  A    between atoms: C_23  and  N_43
REMARK                            x       y       z     vdW  Elec       q    Type
REMARK                         _______ _______ _______ _____ _____    ______ ____
ROOT
ATOM      1  N   UNL     1       1.248   5.558   0.304  0.00  0.00    -0.313 N 
ATOM      2  C   UNL     1       0.209   4.708   0.424  0.00  0.00    +0.244 C 
ATOM      3  O   UNL     1      -0.930   5.127   0.358  0.00  0.00    -0.270 OA
ATOM      4  H   UNL     1       2.157   5.223   0.357  0.00  0.00    +0.149 HD
ENDROOT
BRANCH   2   5
ATOM      5  C   UNL     1       0.454   3.265   0.635  0.00  0.00    +0.039 A 
ATOM      6  C   UNL     1       1.761   2.780   0.712  0.00  0.00    +0.013 A 
ATOM      7  C   UNL     1       1.983   1.433   0.909  0.00  0.00    +0.003 A 
ATOM      8  C   UNL     1       0.914   0.563   1.030  0.00  0.00    +0.033 A 
ATOM      9  C   UNL     1      -0.383   1.036   0.950  0.00  0.00    +0.127 A 
ATOM     10  C   UNL     1      -0.619   2.382   0.759  0.00  0.00    +0.045 A 
BRANCH   9  11
ATOM     11  N   UNL     1      -1.520   0.097   1.075  0.00  0.00    +0.056 N 
ATOM     12  O   UNL     1      -1.313  -1.090   1.248  0.00  0.00    -0.126 OA
ATOM     13  O   UNL     1      -2.663   0.512   1.004  0.00  0.00    -0.126 OA
ENDBRANCH   9  11
ENDBRANCH   2   5
BRANCH   1  14
ATOM     14  C   UNL     1       1.004   6.987   0.094  0.00  0.00    +0.095 C 
BRANCH  14  15
ATOM     15  C   UNL     1       2.342   7.723  -0.007  0.00  0.00    -0.004 C 
BRANCH  15  21
ATOM     16  C   UNL     1       3.384   9.631  -2.218  0.00  0.00    +0.148 C 
ATOM     17  N   UNL     1       2.558  10.035  -1.078  0.00  0.00    -0.355 N 
ATOM     18  C   UNL     1       2.126  11.302  -0.820  0.00  0.00    +0.085 A 
ATOM     19  C   UNL     1       1.394  11.275   0.313  0.00  0.00    +0.019 A 
ATOM     20  C   UNL     1       1.369   9.942   0.767  0.00  0.00    +0.021 A 
ATOM     21  C   UNL     1       2.094   9.206  -0.100  0.00  0.00    +0.006 A 
ENDBRANCH  15  21
BRANCH  15  24
ATOM     22  C   UNL     1       4.461   8.095   1.104  0.00  0.00    -0.096 C 
ATOM     23  C   UNL     1       2.440   7.824   2.410  0.00  0.00    -0.096 C 
ATOM     24  N   UNL     1       3.155   7.407   1.185  0.00  0.00    +0.383 N 
ATOM     25  H   UNL     1       3.315   6.393   1.221  0.00  0.00    -0.082 HD
ENDBRANCH  15  24
ENDBRANCH  14  15
ENDBRANCH   1  14
TORSDOF 6
