REMARK  Name = ZINC40985203
REMARK  12 active torsions:
REMARK  status: ('A' for Active; 'I' for Inactive)
REMARK    1  A    between atoms: C_1  and  C_2
REMARK    2  A    between atoms: C_7  and  C_8
REMARK    3  A    between atoms: C_8  and  N_9
REMARK    4  A    between atoms: C_10  and  C_12
REMARK    5  A    between atoms: N_15  and  C_18
REMARK    6  A    between atoms: C_18  and  C_19
REMARK    7  A    between atoms: C_20  and  C_34
REMARK    8  A    between atoms: C_22  and  C_24
REMARK    9  A    between atoms: C_27  and  O_30
REMARK   10  A    between atoms: O_30  and  C_31
REMARK   11  A    between atoms: C_31  and  C_32
REMARK   12  A    between atoms: C_31  and  C_33
REMARK                            x       y       z     vdW  Elec       q    Type
REMARK                         _______ _______ _______ _____ _____    ______ ____
ROOT
ATOM      1  C   UNL     1      -4.914   1.700   3.757  0.00  0.00    +0.071 C 
ATOM      2  C   UNL     1      -5.909   0.559   3.986  0.00  0.00    -0.006 C 
ATOM      3  C   UNL     1      -7.185   1.122   4.617  0.00  0.00    -0.078 C 
ATOM      4  N   UNL     1      -6.862   1.756   5.900  0.00  0.00    +0.383 N 
ATOM      5  C   UNL     1      -5.964   2.896   5.680  0.00  0.00    -0.078 C 
ATOM      6  C   UNL     1      -4.641   2.402   5.090  0.00  0.00    -0.006 C 
ATOM      7  H   UNL     1      -6.410   1.084   6.502  0.00  0.00    -0.081 HD
ENDROOT
BRANCH   1   9
ATOM      8  N   UNL     1      -3.624   0.479   2.035  0.00  0.00    -0.311 N 
ATOM      9  C   UNL     1      -3.626   1.143   3.208  0.00  0.00    +0.216 C 
ATOM     10  O   UNL     1      -2.590   1.291   3.822  0.00  0.00    -0.276 OA
ATOM     11  H   UNL     1      -4.452   0.360   1.544  0.00  0.00    +0.149 HD
BRANCH   8  12
ATOM     12  C   UNL     1      -2.372  -0.063   1.502  0.00  0.00    +0.139 C 
BRANCH  12  19
ATOM     13  C   UNL     1      -2.646   1.490  -0.918  0.00  0.00    +0.044 C 
ATOM     14  C   UNL     1      -2.773  -0.010  -0.968  0.00  0.00    -0.046 A 
ATOM     15  C   UNL     1      -3.015  -0.644  -2.172  0.00  0.00    +0.003 A 
ATOM     16  C   UNL     1      -3.131  -2.021  -2.218  0.00  0.00    +0.000 A 
ATOM     17  C   UNL     1      -3.005  -2.764  -1.059  0.00  0.00    +0.000 A 
ATOM     18  C   UNL     1      -2.762  -2.130   0.145  0.00  0.00    +0.005 A 
ATOM     19  C   UNL     1      -2.642  -0.754   0.190  0.00  0.00    -0.027 A 
ENDBRANCH  12  19
ENDBRANCH   8  12
ENDBRANCH   1   9
BRANCH   4  20
ATOM     20  C   UNL     1      -8.099   2.225   6.538  0.00  0.00    -0.019 C 
BRANCH  20  21
ATOM     21  C   UNL     1      -7.784   2.766   7.909  0.00  0.00    +0.066 A 
ATOM     22  C   UNL     1      -7.768   2.061   9.054  0.00  0.00    +0.124 A 
ATOM     23  O   UNL     1      -7.441   2.914  10.046  0.00  0.00    -0.440 OA
ATOM     24  C   UNL     1      -7.261   4.128   9.497  0.00  0.00    +0.228 A 
ATOM     25  N   UNL     1      -7.463   4.035   8.203  0.00  0.00    -0.216 NA
ATOM     26  C   UNL     1      -8.062   0.590   9.202  0.00  0.00    +0.088 C 
BRANCH  24  27
ATOM     27  C   UNL     1      -6.892   5.359  10.227  0.00  0.00    +0.037 A 
ATOM     28  C   UNL     1      -6.741   6.563   9.537  0.00  0.00    +0.017 A 
ATOM     29  C   UNL     1      -6.397   7.709  10.221  0.00  0.00    +0.046 A 
ATOM     30  C   UNL     1      -6.200   7.666  11.595  0.00  0.00    +0.121 A 
ATOM     31  C   UNL     1      -6.350   6.470  12.286  0.00  0.00    +0.046 A 
ATOM     32  C   UNL     1      -6.699   5.321  11.609  0.00  0.00    +0.017 A 
BRANCH  30  33
ATOM     33  O   UNL     1      -5.861   8.797  12.266  0.00  0.00    -0.489 OA
BRANCH  33  34
ATOM     34  C   UNL     1      -5.608   9.965  11.483  0.00  0.00    +0.167 C 
ATOM     35  C   UNL     1      -6.930  10.676  11.185  0.00  0.00    +0.051 C 
ATOM     36  C   UNL     1      -4.685  10.909  12.257  0.00  0.00    +0.051 C 
ENDBRANCH  33  34
ENDBRANCH  30  33
ENDBRANCH  24  27
ENDBRANCH  20  21
ENDBRANCH   4  20
TORSDOF 8
