REMARK  Name = ZINC20715000
REMARK  8 active torsions:
REMARK  status: ('A' for Active; 'I' for Inactive)
REMARK    1  A    between atoms: C_1  and  O_2
REMARK    2  A    between atoms: O_2  and  C_3
REMARK    3  A    between atoms: C_6  and  C_11
REMARK    4  A    between atoms: C_8  and  O_9
REMARK    5  A    between atoms: O_9  and  C_10
REMARK    6  A    between atoms: C_22  and  S_27
REMARK    7  A    between atoms: S_27  and  N_30
REMARK    8  A    between atoms: N_30  and  C_31
REMARK                            x       y       z     vdW  Elec       q    Type
REMARK                         _______ _______ _______ _____ _____    ______ ____
ROOT
ATOM      1  C   UNL     1      -2.559   3.864   0.046  0.00  0.00    +0.105 C 
ATOM      2  C   UNL     1      -3.196   3.827  -1.332  0.00  0.00    +0.029 C 
ATOM      3  C   UNL     1      -2.506   4.629  -2.444  0.00  0.00    +0.033 C 
ATOM      4  C   UNL     1      -3.689   4.987  -3.345  0.00  0.00    -0.030 C 
ATOM      5  C   UNL     1      -4.811   5.005  -2.635  0.00  0.00    -0.023 C 
ATOM      6  C   UNL     1      -4.481   4.700  -1.219  0.00  0.00    +0.049 C 
ATOM      7  C   UNL     1      -5.431   3.997  -0.329  0.00  0.00    -0.018 A 
ATOM      8  C   UNL     1      -6.795   4.053  -0.510  0.00  0.00    +0.034 A 
ATOM      9  C   UNL     1      -7.644   3.406   0.370  0.00  0.00    +0.106 A 
ATOM     10  C   UNL     1      -7.122   2.699   1.438  0.00  0.00    +0.030 A 
ATOM     11  C   UNL     1      -5.757   2.631   1.624  0.00  0.00    +0.025 A 
ATOM     12  C   UNL     1      -4.896   3.273   0.743  0.00  0.00    +0.031 A 
ATOM     13  N   UNL     1      -3.513   3.177   0.944  0.00  0.00    -0.336 N 
ATOM     14  H   UNL     1      -3.141   2.578   1.787  0.00  0.00    +0.147 HD
ENDROOT
BRANCH   1  18
ATOM     15  C   UNL     1       1.178   1.785   0.000  0.00  0.00    +0.162 A 
ATOM     16  C   UNL     1      -0.013   1.076   0.008  0.00  0.00    +0.050 A 
ATOM     17  C   UNL     1      -1.219   1.751   0.017  0.00  0.00    +0.009 A 
ATOM     18  C   UNL     1      -1.241   3.133   0.030  0.00  0.00    -0.023 A 
ATOM     19  C   UNL     1      -0.057   3.846   0.022  0.00  0.00    +0.055 A 
ATOM     20  C   UNL     1       1.155   3.176   0.008  0.00  0.00    +0.162 A 
BRANCH  15  22
ATOM     21  C   UNL     1       2.312  -0.305  -0.022  0.00  0.00    +0.277 C 
ATOM     22  O   UNL     1       2.365   1.123  -0.015  0.00  0.00    -0.491 OA
ENDBRANCH  15  22
BRANCH  20  23
ATOM     23  O   UNL     1       2.321   3.877  -0.000  0.00  0.00    -0.491 OA
ATOM     24  C   UNL     1       2.221   5.302   0.008  0.00  0.00    +0.277 C 
ENDBRANCH  20  23
ENDBRANCH   1  18
BRANCH   9  25
ATOM     25  S   UNL     1      -9.387   3.484   0.131  0.00  0.00    +0.059 S 
ATOM     26  O   UNL     1      -9.982   3.251   1.400  0.00  0.00    -0.153 OA
ATOM     27  O   UNL     1      -9.642   4.660  -0.626  0.00  0.00    -0.153 OA
BRANCH  25  28
ATOM     28  N   UNL     1      -9.807   2.203  -0.831  0.00  0.00    -0.187 NA
ATOM     29  H   UNL     1     -10.056   2.382  -1.887  0.00  0.00    +0.148 HD
BRANCH  28  30
ATOM     30  C   UNL     1      -9.637   0.832  -0.342  0.00  0.00    +0.077 C 
ATOM     31  C   UNL     1      -8.292   0.283  -0.823  0.00  0.00    +0.020 C 
ATOM     32  C   UNL     1      -8.114  -1.148  -0.311  0.00  0.00    +0.002 C 
ATOM     33  C   UNL     1      -9.246  -2.027  -0.849  0.00  0.00    +0.000 C 
ATOM     34  C   UNL     1     -10.590  -1.477  -0.367  0.00  0.00    +0.002 C 
ATOM     35  C   UNL     1     -10.768  -0.046  -0.879  0.00  0.00    +0.020 C 
ENDBRANCH  28  30
ENDBRANCH  25  28
ENDBRANCH   9  25
TORSDOF 6
