REMARK  Name = ZINC29467594
REMARK  7 active torsions:
REMARK  status: ('A' for Active; 'I' for Inactive)
REMARK    1  A    between atoms: C_1  and  N_2
REMARK    2  A    between atoms: C_3  and  C_5
REMARK    3  A    between atoms: C_16  and  C_18
REMARK    4  A    between atoms: C_18  and  S_19
REMARK    5  A    between atoms: S_19  and  C_20
REMARK    6  A    between atoms: N_21  and  C_22
REMARK    7  A    between atoms: C_22  and  C_23
REMARK                            x       y       z     vdW  Elec       q    Type
REMARK                         _______ _______ _______ _____ _____    ______ ____
ROOT
ATOM      1  C   UNL     1      -7.430   0.815  -2.162  0.00  0.00    +0.276 C 
ATOM      2  C   UNL     1      -6.772   0.207  -0.915  0.00  0.00    +0.168 C 
ATOM      3  N   UNL     1      -5.413   0.765  -0.812  0.00  0.00    -0.264 N 
ATOM      4  C   UNL     1      -5.248   2.136  -1.070  0.00  0.00    +0.078 A 
ATOM      5  C   UNL     1      -4.067   2.772  -0.727  0.00  0.00    +0.027 A 
ATOM      6  C   UNL     1      -3.907   4.120  -0.991  0.00  0.00    +0.002 A 
ATOM      7  C   UNL     1      -4.924   4.831  -1.601  0.00  0.00    +0.004 A 
ATOM      8  C   UNL     1      -6.104   4.201  -1.950  0.00  0.00    +0.047 A 
ATOM      9  C   UNL     1      -6.273   2.850  -1.688  0.00  0.00    +0.143 A 
ATOM     10  O   UNL     1      -7.438   2.239  -2.031  0.00  0.00    -0.476 OA
ATOM     11  C   UNL     1      -4.364  -0.013  -0.477  0.00  0.00    +0.230 C 
ATOM     12  O   UNL     1      -3.267   0.482  -0.323  0.00  0.00    -0.274 OA
ENDROOT
BRANCH   1  15
ATOM     13  C   UNL     1     -10.453  -1.488  -2.623  0.00  0.00    +0.128 C 
ATOM     14  N   UNL     1      -9.077  -0.998  -2.505  0.00  0.00    -0.315 N 
ATOM     15  C   UNL     1      -8.845   0.311  -2.283  0.00  0.00    +0.255 C 
ATOM     16  O   UNL     1      -9.774   1.084  -2.182  0.00  0.00    -0.272 OA
ATOM     17  H   UNL     1      -8.234  -1.698  -2.597  0.00  0.00    +0.148 HD
ENDBRANCH   1  15
BRANCH  11  18
ATOM     18  C   UNL     1      -4.554  -1.497  -0.295  0.00  0.00    +0.173 C 
BRANCH  18  19
ATOM     19  S   UNL     1      -2.949  -2.277   0.008  0.00  0.00    -0.084 S 
BRANCH  19  20
ATOM     20  C   UNL     1      -3.453  -3.957   0.179  0.00  0.00    +0.126 C 
ATOM     21  N   UNL     1      -4.714  -4.274   0.070  0.00  0.00    -0.364 N 
ATOM     22  N   UNL     1      -2.518  -4.934   0.428  0.00  0.00    -0.339 N 
ATOM     23  H   UNL     1      -2.833  -5.983   0.535  0.00  0.00    +0.144 HD
ATOM     24  H   UNL     1      -1.455  -4.667   0.519  0.00  0.00    +0.144 HD
ATOM     25  H   UNL     1      -5.473  -3.483  -0.023  0.00  0.00    +0.162 HD
BRANCH  21  26
ATOM     26  C   UNL     1      -5.118  -5.682   0.072  0.00  0.00    +0.150 C 
BRANCH  26  27
ATOM     27  C   UNL     1      -5.935  -5.968   1.306  0.00  0.00    -0.028 A 
ATOM     28  C   UNL     1      -5.311  -6.391   2.465  0.00  0.00    +0.005 A 
ATOM     29  C   UNL     1      -6.060  -6.649   3.598  0.00  0.00    +0.000 A 
ATOM     30  C   UNL     1      -7.433  -6.494   3.569  0.00  0.00    +0.000 A 
ATOM     31  C   UNL     1      -8.057  -6.077   2.409  0.00  0.00    +0.000 A 
ATOM     32  C   UNL     1      -7.308  -5.813   1.277  0.00  0.00    +0.005 A 
ENDBRANCH  26  27
ENDBRANCH  21  26
ENDBRANCH  19  20
ENDBRANCH  18  19
ENDBRANCH  11  18
TORSDOF 6
