REMARK  Name = ZINC16735099
REMARK  10 active torsions:
REMARK  status: ('A' for Active; 'I' for Inactive)
REMARK    1  A    between atoms: C_1  and  C_2
REMARK    2  A    between atoms: C_2  and  C_3
REMARK    3  A    between atoms: C_3  and  C_5
REMARK    4  A    between atoms: C_3  and  N_6
REMARK    5  A    between atoms: C_10  and  C_11
REMARK    6  A    between atoms: C_12  and  N_23
REMARK    7  A    between atoms: C_17  and  C_22
REMARK    8  A    between atoms: N_23  and  C_24
REMARK    9  A    between atoms: C_24  and  C_26
REMARK   10  A    between atoms: C_24  and  C_27
REMARK                            x       y       z     vdW  Elec       q    Type
REMARK                         _______ _______ _______ _____ _____    ______ ____
ROOT
ATOM      1  C   UNL     1      -2.393   5.793   0.122  0.00  0.00    +0.081 A 
ATOM      2  C   UNL     1      -2.976   7.082   0.123  0.00  0.00    +0.134 A 
ATOM      3  N   UNL     1      -4.294   7.202   0.195  0.00  0.00    -0.214 NA
ATOM      4  C   UNL     1      -5.091   6.136   0.276  0.00  0.00    +0.142 A 
ATOM      5  C   UNL     1      -6.482   6.326   0.355  0.00  0.00    +0.047 A 
ATOM      6  C   UNL     1      -7.305   5.243   0.439  0.00  0.00    +0.008 A 
ATOM      7  C   UNL     1      -6.753   3.954   0.447  0.00  0.00    -0.034 A 
ATOM      8  C   UNL     1      -5.413   3.790   0.370  0.00  0.00    +0.099 A 
ATOM      9  N   UNL     1      -4.582   4.867   0.285  0.00  0.00    -0.267 N 
ATOM     10  C   UNL     1      -3.248   4.668   0.210  0.00  0.00    +0.267 A 
ATOM     11  O   UNL     1      -2.789   3.539   0.217  0.00  0.00    -0.267 OA
ATOM     12  C   UNL     1      -7.654   2.750   0.540  0.00  0.00    +0.045 C 
ENDROOT
BRANCH   1  17
ATOM     13  N   UNL     1       1.800   6.951   2.015  0.00  0.00    -0.252 N 
ATOM     14  C   UNL     1       1.241   6.304   1.007  0.00  0.00    +0.259 C 
ATOM     15  O   UNL     1       1.923   5.784   0.141  0.00  0.00    -0.269 OA
ATOM     16  C   UNL     1      -0.180   6.232   0.961  0.00  0.00    +0.077 C 
ATOM     17  C   UNL     1      -0.990   5.632   0.041  0.00  0.00    +0.037 C 
ATOM     18  S   UNL     1      -0.615   7.134   2.442  0.00  0.00    -0.061 S 
ATOM     19  C   UNL     1       1.044   7.527   2.975  0.00  0.00    +0.121 C 
ATOM     20  S   UNL     1       1.548   8.405   4.356  0.00  0.00    -0.027 S 
BRANCH  13  21
ATOM     21  C   UNL     1       3.260   7.044   2.093  0.00  0.00    +0.080 C 
ATOM     22  C   UNL     1       3.679   8.515   2.068  0.00  0.00    +0.028 C 
BRANCH  21  24
ATOM     23  C   UNL     1       3.435   4.899   3.362  0.00  0.00    +0.006 C 
ATOM     24  C   UNL     1       3.744   6.397   3.392  0.00  0.00    +0.019 C 
ENDBRANCH  21  24
ENDBRANCH  13  21
ENDBRANCH   1  17
BRANCH   2  25
ATOM     25  N   UNL     1      -2.180   8.204   0.045  0.00  0.00    -0.322 N 
ATOM     26  H   UNL     1      -1.216   8.111  -0.011  0.00  0.00    +0.148 HD
BRANCH  25  27
ATOM     27  C   UNL     1      -2.790   9.536   0.046  0.00  0.00    +0.099 C 
ATOM     28  C   UNL     1      -3.030   9.986   1.488  0.00  0.00    +0.033 C 
BRANCH  27  29
ATOM     29  C   UNL     1      -1.867  10.511  -0.638  0.00  0.00    -0.028 A 
ATOM     30  C   UNL     1      -0.503  10.441  -0.420  0.00  0.00    +0.005 A 
ATOM     31  C   UNL     1       0.344  11.333  -1.050  0.00  0.00    +0.000 A 
ATOM     32  C   UNL     1      -0.173  12.301  -1.891  0.00  0.00    +0.000 A 
ATOM     33  C   UNL     1      -1.536  12.374  -2.105  0.00  0.00    +0.000 A 
ATOM     34  C   UNL     1      -2.383  11.480  -1.478  0.00  0.00    +0.005 A 
ENDBRANCH  27  29
ENDBRANCH  25  27
ENDBRANCH   2  25
TORSDOF 6
