REMARK  Name = ZINC20834914
REMARK  9 active torsions:
REMARK  status: ('A' for Active; 'I' for Inactive)
REMARK    1  A    between atoms: C_4  and  C_7
REMARK    2  A    between atoms: C_7  and  O_8
REMARK    3  A    between atoms: O_8  and  C_9
REMARK    4  A    between atoms: C_14  and  C_15
REMARK    5  A    between atoms: N_16  and  N_17
REMARK    6  A    between atoms: C_20  and  S_23
REMARK    7  A    between atoms: S_23  and  C_24
REMARK    8  A    between atoms: C_24  and  C_25
REMARK    9  A    between atoms: C_28  and  C_30
REMARK                            x       y       z     vdW  Elec       q    Type
REMARK                         _______ _______ _______ _____ _____    ______ ____
ROOT
ATOM      1  N   UNL     1       3.072  -0.373  -4.977  0.00  0.00    -0.205 N 
ATOM      2  C   UNL     1       1.873   0.298  -4.787  0.00  0.00    +0.232 A 
ATOM      3  N   UNL     1       1.043   0.755  -5.773  0.00  0.00    -0.186 NA
ATOM      4  C   UNL     1      -0.029   1.356  -5.177  0.00  0.00    +0.211 A 
ATOM      5  N   UNL     1       0.130   1.274  -3.878  0.00  0.00    -0.144 NA
ATOM      6  N   UNL     1       1.333   0.599  -3.631  0.00  0.00    -0.245 N 
ATOM      7  H   UNL     1       3.432  -0.579  -5.995  0.00  0.00    +0.177 HD
ATOM      8  H   UNL     1       1.839   0.315  -2.697  0.00  0.00    +0.192 HD
ENDROOT
BRANCH   1  10
ATOM      9  C   UNL     1       4.949  -1.415  -4.048  0.00  0.00    +0.142 C 
ATOM     10  N   UNL     1       3.826  -0.787  -3.870  0.00  0.00    -0.187 NA
BRANCH   9  16
ATOM     11  C   UNL     1       5.287  -1.589  -1.585  0.00  0.00    +0.130 A 
ATOM     12  C   UNL     1       6.036  -2.008  -0.498  0.00  0.00    +0.046 A 
ATOM     13  C   UNL     1       7.230  -2.676  -0.695  0.00  0.00    +0.004 A 
ATOM     14  C   UNL     1       7.686  -2.931  -1.978  0.00  0.00    +0.001 A 
ATOM     15  C   UNL     1       6.952  -2.522  -3.071  0.00  0.00    +0.013 A 
ATOM     16  C   UNL     1       5.741  -1.850  -2.884  0.00  0.00    +0.036 A 
BRANCH  11  17
ATOM     17  O   UNL     1       4.113  -0.932  -1.391  0.00  0.00    -0.487 OA
BRANCH  17  18
ATOM     18  C   UNL     1       3.711  -0.707  -0.039  0.00  0.00    +0.264 C 
BRANCH  18  22
ATOM     19  C   UNL     1      -0.017   1.378   0.010  0.00  0.00    +0.000 A 
ATOM     20  C   UNL     1       1.171   2.086   0.002  0.00  0.00    +0.000 A 
ATOM     21  C   UNL     1       2.377   1.411  -0.014  0.00  0.00    +0.007 A 
ATOM     22  C   UNL     1       2.396   0.029  -0.022  0.00  0.00    -0.010 A 
ATOM     23  C   UNL     1       1.208  -0.679  -0.014  0.00  0.00    +0.007 A 
ATOM     24  C   UNL     1       0.002  -0.004   0.002  0.00  0.00    +0.000 A 
ENDBRANCH  18  22
ENDBRANCH  17  18
ENDBRANCH  11  17
ENDBRANCH   9  16
ENDBRANCH   1  10
BRANCH   4  25
ATOM     25  S   UNL     1      -1.388   2.110  -6.009  0.00  0.00    -0.075 S 
BRANCH  25  26
ATOM     26  C   UNL     1      -2.449   2.707  -4.664  0.00  0.00    +0.175 C 
BRANCH  26  27
ATOM     27  C   UNL     1      -3.664   3.383  -5.245  0.00  0.00    +0.228 A 
ATOM     28  N   UNL     1      -4.798   2.809  -5.537  0.00  0.00    -0.111 NA
ATOM     29  N   UNL     1      -5.612   3.683  -6.014  0.00  0.00    -0.107 NA
ATOM     30  C   UNL     1      -5.021   4.854  -6.043  0.00  0.00    +0.248 A 
ATOM     31  O   UNL     1      -3.777   4.687  -5.550  0.00  0.00    -0.419 OA
BRANCH  30  32
ATOM     32  C   UNL     1      -5.612   6.123  -6.520  0.00  0.00    +0.039 A 
ATOM     33  C   UNL     1      -4.863   7.300  -6.487  0.00  0.00    +0.014 A 
ATOM     34  C   UNL     1      -5.417   8.480  -6.938  0.00  0.00    +0.021 A 
ATOM     35  C   UNL     1      -6.718   8.499  -7.413  0.00  0.00    +0.041 A 
ATOM     36  C   UNL     1      -7.467   7.335  -7.444  0.00  0.00    +0.021 A 
ATOM     37  C   UNL     1      -6.922   6.149  -7.000  0.00  0.00    +0.014 A 
ATOM     38 CL   UNL     1      -7.412   9.989  -7.973  0.00  0.00    -0.084 Cl
ENDBRANCH  30  32
ENDBRANCH  26  27
ENDBRANCH  25  26
ENDBRANCH   4  25
TORSDOF 9
