REMARK  Name = ZINC09382684
REMARK  11 active torsions:
REMARK  status: ('A' for Active; 'I' for Inactive)
REMARK    1  A    between atoms: C_1  and  C_2
REMARK    2  A    between atoms: C_5  and  S_8
REMARK    3  A    between atoms: S_8  and  N_11
REMARK    4  A    between atoms: N_11  and  C_12
REMARK    5  A    between atoms: C_12  and  C_14
REMARK    6  A    between atoms: C_12  and  C_15
REMARK    7  A    between atoms: C_15  and  C_17
REMARK    8  A    between atoms: C_15  and  N_64
REMARK    9  A    between atoms: N_24  and  C_27
REMARK   10  A    between atoms: C_32  and  O_33
REMARK   11  A    between atoms: O_33  and  C_34
REMARK                            x       y       z     vdW  Elec       q    Type
REMARK                         _______ _______ _______ _____ _____    ______ ____
ROOT
ATOM      1  C   UNL     1      -1.304  -0.466  -0.148  0.00  0.00    -0.012 C 
ENDROOT
BRANCH   1   7
ATOM      2  C   UNL     1       0.929  -0.360  -1.079  0.00  0.00    -0.059 C 
ATOM      3  C   UNL     1       2.347   0.161  -0.830  0.00  0.00    +0.086 C 
ATOM      4  N   UNL     1       2.318   1.627  -0.737  0.00  0.00    -0.331 N 
ATOM      5  C   UNL     1       1.439   2.065   0.357  0.00  0.00    +0.086 C 
ATOM      6  C   UNL     1       0.022   1.544   0.109  0.00  0.00    -0.059 C 
ATOM      7  N   UNL     1       0.062   0.068   0.039  0.00  0.00    +0.388 N 
ATOM      8  H   UNL     1       0.446  -0.297   0.918  0.00  0.00    -0.081 HD
BRANCH   4   9
ATOM      9  C   UNL     1       3.609   2.145  -0.582  0.00  0.00    +0.072 A 
ATOM     10  C   UNL     1       4.346   1.846   0.554  0.00  0.00    +0.027 A 
ATOM     11  C   UNL     1       5.623   2.355   0.703  0.00  0.00    +0.002 A 
ATOM     12  C   UNL     1       6.163   3.171  -0.274  0.00  0.00    +0.004 A 
ATOM     13  C   UNL     1       5.432   3.477  -1.406  0.00  0.00    +0.047 A 
ATOM     14  C   UNL     1       4.154   2.967  -1.565  0.00  0.00    +0.141 A 
BRANCH  14  15
ATOM     15  O   UNL     1       3.433   3.269  -2.678  0.00  0.00    -0.493 OA
ATOM     16  C   UNL     1       4.056   4.118  -3.644  0.00  0.00    +0.277 C 
ENDBRANCH  14  15
ENDBRANCH   4   9
ENDBRANCH   1   7
BRANCH   1  17
ATOM     17  C   UNL     1      -2.173   0.000   0.992  0.00  0.00    -0.022 A 
ATOM     18  C   UNL     1      -3.464   0.413   0.968  0.00  0.00    +0.009 A 
ATOM     19  C   UNL     1      -4.067   0.797   2.151  0.00  0.00    +0.008 A 
ATOM     20  C   UNL     1      -3.347   0.759   3.299  0.00  0.00    +0.045 A 
ATOM     21  S   UNL     1      -1.767   0.159   2.723  0.00  0.00    -0.103 S 
ENDBRANCH   1  17
BRANCH   1  22
ATOM     22  C   UNL     1      -1.243  -1.995  -0.150  0.00  0.00    +0.065 C 
ATOM     23  C   UNL     1      -0.543  -2.479   1.121  0.00  0.00    +0.024 C 
BRANCH  22  24
ATOM     24  N   UNL     1      -2.603  -2.538  -0.195  0.00  0.00    -0.188 NA
ATOM     25  H   UNL     1      -3.324  -2.080   0.265  0.00  0.00    +0.148 HD
BRANCH  24  26
ATOM     26  S   UNL     1      -2.910  -3.933  -1.032  0.00  0.00    +0.059 S 
ATOM     27  O   UNL     1      -4.294  -4.210  -0.866  0.00  0.00    -0.153 OA
ATOM     28  O   UNL     1      -2.312  -3.780  -2.312  0.00  0.00    -0.153 OA
BRANCH  26  33
ATOM     29  C   UNL     1       0.082  -8.375   1.747  0.00  0.00    +0.044 C 
ATOM     30  C   UNL     1      -0.665  -7.266   1.053  0.00  0.00    -0.050 A 
ATOM     31  C   UNL     1      -1.960  -6.964   1.430  0.00  0.00    +0.005 A 
ATOM     32  C   UNL     1      -2.646  -5.946   0.793  0.00  0.00    +0.029 A 
ATOM     33  C   UNL     1      -2.036  -5.231  -0.220  0.00  0.00    +0.105 A 
ATOM     34  C   UNL     1      -0.743  -5.536  -0.601  0.00  0.00    +0.029 A 
ATOM     35  C   UNL     1      -0.056  -6.551   0.039  0.00  0.00    +0.005 A 
ENDBRANCH  26  33
ENDBRANCH  24  26
ENDBRANCH  22  24
ENDBRANCH   1  22
TORSDOF 8
