REMARK  Name = ZINC36072553
REMARK  10 active torsions:
REMARK  status: ('A' for Active; 'I' for Inactive)
REMARK    1  A    between atoms: C_4  and  C_33
REMARK    2  A    between atoms: C_5  and  C_7
REMARK    3  A    between atoms: C_7  and  N_8
REMARK    4  A    between atoms: N_8  and  C_9
REMARK    5  A    between atoms: N_8  and  C_17
REMARK    6  A    between atoms: C_9  and  C_10
REMARK    7  A    between atoms: C_17  and  C_18
REMARK    8  A    between atoms: C_20  and  C_23
REMARK    9  A    between atoms: N_25  and  C_26
REMARK   10  A    between atoms: C_26  and  C_27
REMARK                            x       y       z     vdW  Elec       q    Type
REMARK                         _______ _______ _______ _____ _____    ______ ____
ROOT
ATOM      1  N   UNL     1       1.438  -2.548   1.387  0.00  0.00    +0.391 N 
ATOM      2  H   UNL     1       2.156  -2.063   1.903  0.00  0.00    -0.080 HD
ENDROOT
BRANCH   1   3
ATOM      3  C   UNL     1       1.225  -1.878   0.097  0.00  0.00    -0.041 C 
BRANCH   3   8
ATOM      4  C   UNL     1      -0.652   1.365   0.563  0.00  0.00    +0.000 A 
ATOM      5  C   UNL     1       0.385   2.258   0.759  0.00  0.00    +0.001 A 
ATOM      6  C   UNL     1       1.693   1.813   0.740  0.00  0.00    +0.012 A 
ATOM      7  C   UNL     1       1.965   0.474   0.526  0.00  0.00    +0.056 A 
ATOM      8  C   UNL     1       0.928  -0.419   0.331  0.00  0.00    -0.052 A 
ATOM      9  C   UNL     1      -0.380   0.027   0.348  0.00  0.00    +0.002 A 
BRANCH   7  10
ATOM     10  C   UNL     1       3.392  -0.011   0.505  0.00  0.00    +0.418 C 
ATOM     11  F   UNL     1       4.258   1.083   0.603  0.00  0.00    -0.166 F 
ATOM     12  F   UNL     1       3.607  -0.875   1.584  0.00  0.00    -0.166 F 
ATOM     13  F   UNL     1       3.635  -0.692  -0.693  0.00  0.00    -0.166 F 
ENDBRANCH   7  10
ENDBRANCH   3   8
ENDBRANCH   1   3
BRANCH   1  14
ATOM     14  C   UNL     1       0.188  -2.534   2.158  0.00  0.00    -0.042 C 
BRANCH  14  15
ATOM     15  C   UNL     1       0.441  -3.092   3.534  0.00  0.00    -0.064 A 
ATOM     16  C   UNL     1       0.187  -4.426   3.796  0.00  0.00    +0.004 A 
ATOM     17  C   UNL     1       0.419  -4.939   5.059  0.00  0.00    +0.038 A 
ATOM     18  C   UNL     1       0.906  -4.117   6.061  0.00  0.00    +0.123 A 
ATOM     19  C   UNL     1       1.159  -2.782   5.797  0.00  0.00    +0.038 A 
ATOM     20  C   UNL     1       0.932  -2.272   4.533  0.00  0.00    +0.004 A 
ATOM     21  F   UNL     1       1.133  -4.618   7.295  0.00  0.00    -0.205 F 
ENDBRANCH  14  15
ENDBRANCH   1  14
BRANCH   1  22
ATOM     22  C   UNL     1       1.855  -3.937   1.154  0.00  0.00    +0.020 C 
BRANCH  22  23
ATOM     23  C   UNL     1       3.198  -3.950   0.471  0.00  0.00    +0.179 A 
ATOM     24  N   UNL     1       4.348  -3.977   1.074  0.00  0.00    -0.210 NA
ATOM     25  C   UNL     1       5.330  -3.982   0.132  0.00  0.00    +0.163 A 
ATOM     26  C   UNL     1       4.717  -3.958  -1.084  0.00  0.00    +0.230 A 
ATOM     27  O   UNL     1       3.394  -3.944  -0.855  0.00  0.00    -0.449 OA
BRANCH  25  28
ATOM     28  C   UNL     1       6.783  -4.009   0.380  0.00  0.00    +0.266 C 
ATOM     29  O   UNL     1       7.559  -4.011  -0.556  0.00  0.00    -0.268 OA
ATOM     30  N   UNL     1       7.250  -4.030   1.644  0.00  0.00    -0.308 N 
ATOM     31  H   UNL     1       6.630  -4.029   2.390  0.00  0.00    +0.149 HD
BRANCH  30  32
ATOM     32  C   UNL     1       8.694  -4.057   1.890  0.00  0.00    +0.136 C 
BRANCH  32  33
ATOM     33  C   UNL     1       8.953  -4.078   3.398  0.00  0.00    +0.135 C 
ATOM     34  C   UNL     1      10.470  -3.984   3.670  0.00  0.00    +0.035 C 
ATOM     35  C   UNL     1      10.653  -4.962   4.862  0.00  0.00    +0.031 C 
ATOM     36  C   UNL     1       9.591  -6.039   4.524  0.00  0.00    +0.160 C 
ATOM     37  O   UNL     1       8.488  -5.313   3.954  0.00  0.00    -0.375 OA
ENDBRANCH  32  33
ENDBRANCH  30  32
ENDBRANCH  25  28
ENDBRANCH  22  23
ENDBRANCH   1  22
TORSDOF 10
