REMARK  Name = ZINC00627187
REMARK  9 active torsions:
REMARK  status: ('A' for Active; 'I' for Inactive)
REMARK    1  A    between atoms: C_1  and  C_2
REMARK    2  A    between atoms: C_2  and  O_3
REMARK    3  A    between atoms: O_3  and  C_4
REMARK    4  A    between atoms: C_4  and  C_6
REMARK    5  A    between atoms: C_7  and  C_24
REMARK    6  A    between atoms: C_12  and  C_14
REMARK    7  A    between atoms: C_16  and  O_22
REMARK    8  A    between atoms: C_17  and  O_21
REMARK    9  A    between atoms: O_22  and  C_23
REMARK                            x       y       z     vdW  Elec       q    Type
REMARK                         _______ _______ _______ _____ _____    ______ ____
ROOT
ATOM      1  C   UNL     1       1.183   1.750  -0.973  0.00  0.00    +0.078 C 
ATOM      2  C   UNL     1       0.151   0.886  -0.875  0.00  0.00    +0.021 C 
ATOM      3  N   UNL     1       0.364  -0.448  -0.674  0.00  0.00    -0.273 N 
ATOM      4  C   UNL     1       1.581  -0.996  -0.559  0.00  0.00    +0.304 C 
ATOM      5  O   UNL     1       1.671  -2.195  -0.380  0.00  0.00    -0.252 OA
ATOM      6  N   UNL     1       2.708  -0.262  -0.635  0.00  0.00    -0.288 N 
ATOM      7  C   UNL     1       2.586   1.190  -0.852  0.00  0.00    +0.144 C 
ATOM      8  C   UNL     1      -1.261   1.400  -0.997  0.00  0.00    +0.061 C 
ATOM      9  H   UNL     1      -0.408  -1.031  -0.610  0.00  0.00    +0.156 HD
ATOM     10  H   UNL     1       3.579  -0.679  -0.549  0.00  0.00    +0.151 HD
ENDROOT
BRANCH   7  11
ATOM     11  C   UNL     1       3.335   1.536  -2.113  0.00  0.00    -0.018 A 
ATOM     12  C   UNL     1       3.149   0.780  -3.256  0.00  0.00    +0.055 A 
ATOM     13  C   UNL     1       3.833   1.100  -4.417  0.00  0.00    +0.163 A 
ATOM     14  C   UNL     1       4.716   2.176  -4.427  0.00  0.00    +0.172 A 
ATOM     15  C   UNL     1       4.902   2.926  -3.277  0.00  0.00    +0.059 A 
ATOM     16  C   UNL     1       4.212   2.605  -2.123  0.00  0.00    +0.024 A 
ATOM     17  I   UNL     1       6.230   4.547  -3.287  0.00  0.00    -0.040 I 
BRANCH  14  18
ATOM     18  O   UNL     1       5.394   2.490  -5.564  0.00  0.00    -0.503 OA
ATOM     19  H   UNL     1       6.248   2.044  -5.648  0.00  0.00    +0.292 HD
ENDBRANCH  14  18
BRANCH  13  20
ATOM     20  O   UNL     1       3.647   0.360  -5.543  0.00  0.00    -0.491 OA
ATOM     21  C   UNL     1       2.643  -0.656  -5.493  0.00  0.00    +0.277 C 
ENDBRANCH  13  20
ENDBRANCH   7  11
BRANCH   1  22
ATOM     22  C   UNL     1       0.964   3.132  -1.183  0.00  0.00    +0.339 C 
ATOM     23  O   UNL     1      -0.163   3.545  -1.383  0.00  0.00    -0.245 OA
BRANCH  22  24
ATOM     24  O   UNL     1       2.003   3.991  -1.160  0.00  0.00    -0.462 OA
BRANCH  24  26
ATOM     25  C   UNL     1       3.007   6.178  -1.387  0.00  0.00    +0.048 C 
ATOM     26  C   UNL     1       1.704   5.376  -1.348  0.00  0.00    +0.229 C 
ENDBRANCH  24  26
ENDBRANCH  22  24
ENDBRANCH   1  22
TORSDOF 6
