REMARK  Name = ZINC06143214
REMARK  5 active torsions:
REMARK  status: ('A' for Active; 'I' for Inactive)
REMARK    1  A    between atoms: C_4  and  C_7
REMARK    2  A    between atoms: C_8  and  C_9
REMARK    3  A    between atoms: N_10  and  N_11
REMARK    4  A    between atoms: C_12  and  C_14
REMARK    5  A    between atoms: C_16  and  C_20
REMARK                            x       y       z     vdW  Elec       q    Type
REMARK                         _______ _______ _______ _____ _____    ______ ____
ROOT
ATOM      1  C   UNL     1       7.558  -6.750   0.520  0.00  0.00    +0.122 A 
ATOM      2  C   UNL     1       7.750  -8.118   0.617  0.00  0.00    +0.058 A 
ATOM      3  C   UNL     1       9.134  -8.293   0.680  0.00  0.00    +0.070 A 
ATOM      4  N   UNL     1       9.692  -7.111   0.624  0.00  0.00    -0.178 NA
ATOM      5  N   UNL     1       8.803  -6.188   0.525  0.00  0.00    -0.272 N 
ATOM      6  H   UNL     1       8.988  -5.238   0.465  0.00  0.00    +0.189 HD
ENDROOT
BRANCH   3   7
ATOM      7  C   UNL     1       9.857  -9.611   0.793  0.00  0.00    +0.015 C 
ATOM      8  C   UNL     1       9.246 -10.613  -0.188  0.00  0.00    +0.016 C 
ATOM      9  C   UNL     1       9.980 -11.951  -0.073  0.00  0.00    -0.010 C 
ATOM     10  C   UNL     1      11.460 -11.750  -0.405  0.00  0.00    +0.007 C 
ATOM     11  C   UNL     1      12.071 -10.747   0.576  0.00  0.00    -0.010 C 
ATOM     12  C   UNL     1      11.337  -9.410   0.461  0.00  0.00    +0.016 C 
ATOM     13  C   UNL     1      11.937 -11.283   2.003  0.00  0.00    +0.007 C 
ATOM     14  C   UNL     1      10.457 -11.483   2.335  0.00  0.00    -0.010 C 
ATOM     15  C   UNL     1       9.845 -12.486   1.354  0.00  0.00    +0.007 C 
ATOM     16  C   UNL     1       9.722 -10.146   2.220  0.00  0.00    +0.016 C 
ENDBRANCH   3   7
BRANCH   1  18
ATOM     17  N   UNL     1       6.245  -4.699   0.332  0.00  0.00    -0.202 N 
ATOM     18  C   UNL     1       6.271  -6.044   0.426  0.00  0.00    +0.281 C 
ATOM     19  O   UNL     1       5.230  -6.673   0.433  0.00  0.00    -0.267 OA
ATOM     20  H   UNL     1       7.076  -4.198   0.326  0.00  0.00    +0.178 HD
BRANCH  17  22
ATOM     21  C   UNL     1       4.995  -2.728   0.151  0.00  0.00    +0.145 C 
ATOM     22  N   UNL     1       5.020  -4.027   0.242  0.00  0.00    -0.187 NA
BRANCH  21  24
ATOM     23  C   UNL     1       3.691  -0.680  -0.037  0.00  0.00    +0.024 C 
ATOM     24  C   UNL     1       3.717  -2.026   0.057  0.00  0.00    +0.038 C 
ATOM     25 BR   UNL     1       2.099  -3.004   0.068  0.00  0.00    -0.049 Br
BRANCH  23  29
ATOM     26  C   UNL     1      -0.004   1.392   0.180  0.00  0.00    +0.000 A 
ATOM     27  C   UNL     1       0.193   0.254   0.942  0.00  0.00    +0.001 A 
ATOM     28  C   UNL     1       1.391  -0.425   0.877  0.00  0.00    +0.008 A 
ATOM     29  C   UNL     1       2.409   0.039   0.038  0.00  0.00    -0.024 A 
ATOM     30  C   UNL     1       2.203   1.190  -0.729  0.00  0.00    +0.008 A 
ATOM     31  C   UNL     1       0.999   1.858  -0.653  0.00  0.00    +0.001 A 
ENDBRANCH  23  29
ENDBRANCH  21  24
ENDBRANCH  17  22
ENDBRANCH   1  18
TORSDOF 5
