REMARK  Name = ZINC65375747
REMARK  6 active torsions:
REMARK  status: ('A' for Active; 'I' for Inactive)
REMARK    1  A    between atoms: C_1  and  C_2
REMARK    2  A    between atoms: C_7  and  C_12
REMARK    3  A    between atoms: C_12  and  N_13
REMARK    4  A    between atoms: N_13  and  C_14
REMARK    5  A    between atoms: C_15  and  C_17
REMARK    6  A    between atoms: C_20  and  N_23
REMARK                            x       y       z     vdW  Elec       q    Type
REMARK                         _______ _______ _______ _____ _____    ______ ____
ROOT
ATOM      1  N   UNL     1      -2.374  -4.395   1.566  0.00  0.00    -0.297 N 
ATOM      2  C   UNL     1      -3.004  -4.579   0.257  0.00  0.00    +0.132 C 
ATOM      3  C   UNL     1      -2.893  -3.517   2.446  0.00  0.00    +0.246 C 
ATOM      4  O   UNL     1      -2.312  -3.286   3.489  0.00  0.00    -0.270 OA
ENDROOT
BRANCH   3   5
ATOM      5  C   UNL     1      -4.168  -2.834   2.144  0.00  0.00    +0.037 A 
ATOM      6  C   UNL     1      -5.174  -3.508   1.449  0.00  0.00    +0.015 A 
ATOM      7  C   UNL     1      -6.362  -2.868   1.169  0.00  0.00    +0.028 A 
ATOM      8  C   UNL     1      -6.559  -1.554   1.578  0.00  0.00    +0.069 A 
ATOM      9  C   UNL     1      -5.559  -0.881   2.270  0.00  0.00    +0.028 A 
ATOM     10  C   UNL     1      -4.371  -1.516   2.559  0.00  0.00    +0.015 A 
BRANCH   8  11
ATOM     11  N   UNL     1      -7.766  -0.907   1.291  0.00  0.00    -0.200 N 
ATOM     12  C   UNL     1      -8.115   0.359   1.609  0.00  0.00    +0.250 A 
ATOM     13  N   UNL     1      -9.324   0.555   1.153  0.00  0.00    -0.116 NA
ATOM     14  N   UNL     1      -9.765  -0.501   0.569  0.00  0.00    -0.023 NA
ATOM     15  N   UNL     1      -8.875  -1.434   0.605  0.00  0.00    -0.039 NA
ENDBRANCH   8  11
ENDBRANCH   3   5
BRANCH   1  16
ATOM     16  C   UNL     1      -1.179  -5.167   1.919  0.00  0.00    +0.154 C 
BRANCH  16  23
ATOM     17  C   UNL     1       0.085   1.486   0.129  0.00  0.00    +0.044 C 
ATOM     18  C   UNL     1       0.072  -0.020   0.078  0.00  0.00    -0.048 A 
ATOM     19  C   UNL     1       0.036  -0.652  -1.178  0.00  0.00    +0.005 A 
ATOM     20  C   UNL     1       0.021  -1.993  -1.316  0.00  0.00    +0.027 A 
ATOM     21  C   UNL     1       0.044  -2.845  -0.119  0.00  0.00    +0.060 A 
ATOM     22  N   UNL     1       0.037  -4.136   0.048  0.00  0.00    -0.362 N 
ATOM     23  C   UNL     1       0.071  -4.393   1.494  0.00  0.00    +0.192 C 
ATOM     24  N   UNL     1       0.098  -3.079   2.147  0.00  0.00    -0.362 N 
ATOM     25  C   UNL     1       0.083  -2.176   1.210  0.00  0.00    +0.060 A 
ATOM     26  C   UNL     1       0.101  -0.707   1.237  0.00  0.00    +0.030 A 
ATOM     27  H   UNL     1       0.014  -4.806  -0.653  0.00  0.00    +0.162 HD
ATOM     28  H   UNL     1       0.123  -2.914   3.103  0.00  0.00    +0.162 HD
ENDBRANCH  16  23
ENDBRANCH   1  16
TORSDOF 4
