REMARK  Name = ZINC36309035
REMARK  17 active torsions:
REMARK  status: ('A' for Active; 'I' for Inactive)
REMARK    1  A    between atoms: C_1  and  O_2
REMARK    2  A    between atoms: O_2  and  C_3
REMARK    3  A    between atoms: C_3  and  C_4
REMARK    4  A    between atoms: C_4  and  C_5
REMARK    5  A    between atoms: C_5  and  N_6
REMARK    6  A    between atoms: N_6  and  C_7
REMARK    7  A    between atoms: N_6  and  C_16
REMARK    8  A    between atoms: C_7  and  C_8
REMARK    9  A    between atoms: C_8  and  C_10
REMARK   10  A    between atoms: C_8  and  O_15
REMARK   11  A    between atoms: C_10  and  O_11
REMARK   12  A    between atoms: O_11  and  C_12
REMARK   13  A    between atoms: C_12  and  C_13
REMARK   14  A    between atoms: C_16  and  C_17
REMARK   15  A    between atoms: C_27  and  C_29
REMARK   16  A    between atoms: C_29  and  O_30
REMARK   17  A    between atoms: O_30  and  C_31
REMARK                            x       y       z     vdW  Elec       q    Type
REMARK                         _______ _______ _______ _____ _____    ______ ____
ROOT
ATOM      1  C   UNL     1      -0.981  -4.623  -0.928  0.00  0.00    +0.200 C 
ATOM      2  O   UNL     1      -0.441  -4.207   0.075  0.00  0.00    -0.278 OA
ATOM      3  N   UNL     1      -2.288  -4.950  -0.904  0.00  0.00    -0.292 N 
ATOM      4  C   UNL     1      -2.951  -5.461  -2.113  0.00  0.00    +0.113 C 
ATOM      5  C   UNL     1      -3.389  -6.909  -1.847  0.00  0.00    +0.061 C 
ATOM      6  C   UNL     1      -3.984  -6.986  -0.479  0.00  0.00    -0.004 A 
ATOM      7  C   UNL     1      -3.873  -6.083   0.533  0.00  0.00    -0.014 A 
ATOM      8  C   UNL     1      -4.523  -6.397   1.726  0.00  0.00    +0.013 A 
ATOM      9  C   UNL     1      -5.224  -7.549   1.831  0.00  0.00    +0.046 A 
ATOM     10  S   UNL     1      -4.997  -8.268   0.211  0.00  0.00    -0.101 S 
ATOM     11  C   UNL     1      -3.069  -4.805   0.332  0.00  0.00    +0.144 C 
ENDROOT
BRANCH  11  12
ATOM     12  C   UNL     1      -4.021  -3.614   0.206  0.00  0.00    +0.256 C 
BRANCH  12  13
ATOM     13  O   UNL     1      -4.984  -3.879  -0.816  0.00  0.00    -0.490 OA
BRANCH  13  14
ATOM     14  C   UNL     1      -5.910  -2.914  -1.056  0.00  0.00    +0.121 A 
ATOM     15  C   UNL     1      -5.890  -1.734  -0.327  0.00  0.00    +0.045 A 
ATOM     16  C   UNL     1      -6.832  -0.755  -0.573  0.00  0.00    +0.004 A 
ATOM     17  C   UNL     1      -7.795  -0.950  -1.546  0.00  0.00    +0.000 A 
ATOM     18  C   UNL     1      -7.818  -2.125  -2.274  0.00  0.00    +0.004 A 
ATOM     19  C   UNL     1      -6.874  -3.105  -2.035  0.00  0.00    +0.045 A 
ENDBRANCH  13  14
ENDBRANCH  12  13
ENDBRANCH  11  12
BRANCH   1  20
ATOM     20  C   UNL     1      -0.189  -4.776  -2.201  0.00  0.00    +0.019 C 
BRANCH  20  21
ATOM     21  N   UNL     1       1.158  -4.221  -2.010  0.00  0.00    +0.387 N 
ATOM     22  H   UNL     1       1.576  -4.630  -1.188  0.00  0.00    -0.081 HD
BRANCH  21  23
ATOM     23  C   UNL     1       1.985  -4.528  -3.184  0.00  0.00    -0.044 C 
BRANCH  23  24
ATOM     24  C   UNL     1       3.433  -4.119  -2.909  0.00  0.00    +0.124 C 
BRANCH  24  25
ATOM     25  O   UNL     1       3.528  -2.693  -2.880  0.00  0.00    -0.391 OA
ATOM     26  H   UNL     1       3.262  -2.264  -3.705  0.00  0.00    +0.210 HD
ENDBRANCH  24  25
BRANCH  24  27
ATOM     27  C   UNL     1       4.337  -4.668  -4.015  0.00  0.00    +0.189 C 
BRANCH  27  28
ATOM     28  O   UNL     1       5.702  -4.386  -3.698  0.00  0.00    -0.373 OA
BRANCH  28  29
ATOM     29  C   UNL     1       6.635  -4.859  -4.672  0.00  0.00    +0.186 C 
BRANCH  29  30
ATOM     30  C   UNL     1       8.035  -4.509  -4.238  0.00  0.00    -0.007 C 
ATOM     31  C   UNL     1       8.989  -5.403  -4.321  0.00  0.00    +0.006 C 
ENDBRANCH  29  30
ENDBRANCH  28  29
ENDBRANCH  27  28
ENDBRANCH  24  27
ENDBRANCH  23  24
ENDBRANCH  21  23
BRANCH  21  32
ATOM     32  C   UNL     1       1.068  -2.765  -1.841  0.00  0.00    -0.076 C 
BRANCH  32  33
ATOM     33  C   UNL     1       0.575  -2.130  -3.143  0.00  0.00    +0.009 C 
BRANCH  33  34
ATOM     34  C   UNL     1       0.390  -0.625  -2.938  0.00  0.00    +0.157 C 
BRANCH  34  36
ATOM     35  C   UNL     1      -0.278   1.380  -4.070  0.00  0.00    +0.193 C 
ATOM     36  O   UNL     1      -0.071  -0.032  -4.154  0.00  0.00    -0.383 OA
ENDBRANCH  34  36
ENDBRANCH  33  34
ENDBRANCH  32  33
ENDBRANCH  21  32
ENDBRANCH  20  21
ENDBRANCH   1  20
TORSDOF 16
