REMARK  Name = ZINC00214235
REMARK  3 active torsions:
REMARK  status: ('A' for Active; 'I' for Inactive)
REMARK    1  A    between atoms: C_5  and  C_7
REMARK    2  A    between atoms: C_20  and  N_24
REMARK    3  A    between atoms: C_21  and  C_22
REMARK                            x       y       z     vdW  Elec       q    Type
REMARK                         _______ _______ _______ _____ _____    ______ ____
ROOT
ATOM      1  C   UNL     1      -0.011   5.379   0.031  0.00  0.00    +0.101 C 
ATOM      2  C   UNL     1      -0.009   3.874   0.024  0.00  0.00    +0.017 A 
ATOM      3  C   UNL     1      -1.231   3.181   0.033  0.00  0.00    +0.008 A 
ATOM      4  C   UNL     1      -2.459   3.870   0.051  0.00  0.00    +0.012 A 
ATOM      5  C   UNL     1      -3.610   3.135   0.056  0.00  0.00    +0.020 A 
ATOM      6  C   UNL     1      -3.546   1.743   0.043  0.00  0.00    +0.111 A 
ATOM      7  N   UNL     1      -2.401   1.105   0.028  0.00  0.00    -0.255 NA
ATOM      8  C   UNL     1      -1.239   1.765   0.018  0.00  0.00    +0.071 A 
ATOM      9  C   UNL     1      -0.013   1.076   0.008  0.00  0.00    +0.032 A 
ATOM     10  C   UNL     1       1.153   1.773   0.001  0.00  0.00    +0.049 A 
ATOM     11  C   UNL     1       1.163   3.175   0.008  0.00  0.00    +0.135 A 
ATOM     12  O   UNL     1       2.357   3.821  -0.001  0.00  0.00    -0.441 OA
ATOM     13  C   UNL     1       2.434   5.101   0.398  0.00  0.00    +0.199 C 
ATOM     14  C   UNL     1       1.340   5.900   0.436  0.00  0.00    +0.098 C 
ENDROOT
BRANCH   1  19
ATOM     15  C   UNL     1       0.151   6.017  -3.687  0.00  0.00    +0.000 A 
ATOM     16  C   UNL     1      -0.965   6.810  -3.881  0.00  0.00    +0.003 A 
ATOM     17  C   UNL     1      -1.773   7.141  -2.811  0.00  0.00    +0.038 A 
ATOM     18  C   UNL     1      -1.468   6.674  -1.543  0.00  0.00    +0.127 A 
ATOM     19  C   UNL     1      -0.347   5.884  -1.349  0.00  0.00    +0.001 A 
ATOM     20  C   UNL     1       0.460   5.555  -2.422  0.00  0.00    +0.007 A 
ATOM     21  F   UNL     1      -2.260   6.992  -0.496  0.00  0.00    -0.205 F 
ENDBRANCH   1  19
BRANCH  13  22
ATOM     22  N   UNL     1       3.650   5.613   0.776  0.00  0.00    -0.328 N 
ATOM     23  H   UNL     1       3.719   6.536   1.065  0.00  0.00    +0.145 HD
ATOM     24  H   UNL     1       4.441   5.051   0.753  0.00  0.00    +0.145 HD
ENDBRANCH  13  22
BRANCH  14  25
ATOM     25  C   UNL     1       1.473   7.259   0.867  0.00  0.00    +0.101 C 
ATOM     26  N   UNL     1       1.578   8.337   1.209  0.00  0.00    -0.191 NA
ENDBRANCH  14  25
TORSDOF 3
