REMARK  Name = ZINC48857528
REMARK  4 active torsions:
REMARK  status: ('A' for Active; 'I' for Inactive)
REMARK    1  A    between atoms: C_5  and  N_8
REMARK    2  A    between atoms: C_6  and  N_7
REMARK    3  A    between atoms: C_13  and  C_15
REMARK    4  A    between atoms: C_15  and  O_16
REMARK                            x       y       z     vdW  Elec       q    Type
REMARK                         _______ _______ _______ _____ _____    ______ ____
ROOT
ATOM      1  C   UNL     1      -0.017   1.383   0.010  0.00  0.00    +0.030 A 
ATOM      2  C   UNL     1       1.168   2.087   0.002  0.00  0.00    -0.016 A 
ATOM      3  C   UNL     1       2.391   1.429  -0.013  0.00  0.00    +0.039 A 
ATOM      4  C   UNL     1       2.410   0.035  -0.022  0.00  0.00    +0.048 A 
ATOM      5  C   UNL     1       1.224  -0.677  -0.016  0.00  0.00    +0.053 A 
ATOM      6  C   UNL     1       0.002  -0.004   0.002  0.00  0.00    +0.046 A 
ATOM      7  N   UNL     1       3.438   2.355  -0.017  0.00  0.00    -0.285 N 
ATOM      8  C   UNL     1       2.994   3.623  -0.006  0.00  0.00    +0.222 C 
ATOM      9  O   UNL     1       3.677   4.625  -0.007  0.00  0.00    -0.275 OA
ATOM     10  C   UNL     1       1.482   3.566   0.008  0.00  0.00    +0.133 C 
ATOM     11  H   UNL     1       4.376   2.110  -0.027  0.00  0.00    +0.155 HD
ENDROOT
BRANCH   5  12
ATOM     12  N   UNL     1       1.250  -2.077  -0.025  0.00  0.00    -0.323 N 
ATOM     13  C   UNL     1       1.259  -2.817  -1.294  0.00  0.00    +0.105 C 
ATOM     14  C   UNL     1       0.110  -3.831  -1.282  0.00  0.00    +0.019 C 
ATOM     15  C   UNL     1       0.228  -4.715  -0.038  0.00  0.00    +0.003 C 
ATOM     16  C   UNL     1       0.121  -3.847   1.218  0.00  0.00    +0.025 C 
ATOM     17  C   UNL     1       1.275  -2.834   1.234  0.00  0.00    +0.099 C 
BRANCH  17  18
ATOM     18  C   UNL     1       1.101  -1.874   2.413  0.00  0.00    +0.178 C 
BRANCH  18  19
ATOM     19  O   UNL     1      -0.197  -1.280   2.356  0.00  0.00    -0.393 OA
ATOM     20  H   UNL     1      -0.378  -0.658   3.075  0.00  0.00    +0.209 HD
ENDBRANCH  18  19
ENDBRANCH  17  18
ENDBRANCH   5  12
BRANCH   6  21
ATOM     21  N   UNL     1      -1.200  -0.726   0.010  0.00  0.00    -0.357 N 
ATOM     22  H   UNL     1      -2.048  -0.255   0.021  0.00  0.00    +0.142 HD
ATOM     23  H   UNL     1      -1.184  -1.695   0.005  0.00  0.00    +0.142 HD
ENDBRANCH   6  21
TORSDOF 4
