REMARK  Name = ZINC09302020
REMARK  15 active torsions:
REMARK  status: ('A' for Active; 'I' for Inactive)
REMARK    1  A    between atoms: C_1  and  C_2
REMARK    2  A    between atoms: C_2  and  N_70
REMARK    3  A    between atoms: C_3  and  C_4
REMARK    4  A    between atoms: C_3  and  N_70
REMARK    5  A    between atoms: C_5  and  C_6
REMARK    6  A    between atoms: C_5  and  N_70
REMARK    7  A    between atoms: C_6  and  N_7
REMARK    8  A    between atoms: C_8  and  C_28
REMARK    9  A    between atoms: C_11  and  C_12
REMARK   10  A    between atoms: C_11  and  O_23
REMARK   11  A    between atoms: C_18  and  O_21
REMARK   12  A    between atoms: O_21  and  C_22
REMARK   13  A    between atoms: C_31  and  C_34
REMARK   14  A    between atoms: C_34  and  C_35
REMARK   15  A    between atoms: C_34  and  C_36
REMARK                            x       y       z     vdW  Elec       q    Type
REMARK                         _______ _______ _______ _____ _____    ______ ____
ROOT
ATOM      1  N   UNL     1       0.947   1.916   0.386  0.00  0.00    -0.285 N 
ATOM      2  C   UNL     1       0.716   3.297  -0.049  0.00  0.00    +0.144 C 
ATOM      3  C   UNL     1      -0.782   3.484  -0.117  0.00  0.00    +0.074 C 
ATOM      4  C   UNL     1      -1.461   4.635  -0.482  0.00  0.00    +0.168 C 
ATOM      5  C   UNL     1      -1.346   2.257   0.257  0.00  0.00    +0.249 C 
ATOM      6  O   UNL     1      -2.537   2.009   0.321  0.00  0.00    -0.282 OA
ATOM      7  C   UNL     1      -0.240   1.313   0.567  0.00  0.00    +0.288 C 
ATOM      8  O   UNL     1      -0.388   0.162   0.927  0.00  0.00    -0.266 OA
ENDROOT
BRANCH   4   9
ATOM      9  C   UNL     1      -2.918   4.617  -0.602  0.00  0.00    +0.171 A 
ATOM     10  C   UNL     1      -3.764   5.538  -0.059  0.00  0.00    +0.061 A 
ATOM     11  C   UNL     1      -5.080   5.146  -0.413  0.00  0.00    +0.025 A 
ATOM     12  C   UNL     1      -6.350   5.678  -0.158  0.00  0.00    +0.012 A 
ATOM     13  C   UNL     1      -7.460   5.054  -0.649  0.00  0.00    +0.004 A 
ATOM     14  C   UNL     1      -7.342   3.894  -1.403  0.00  0.00    +0.049 A 
ATOM     15  C   UNL     1      -6.098   3.350  -1.667  0.00  0.00    +0.163 A 
ATOM     16  C   UNL     1      -4.952   3.971  -1.175  0.00  0.00    +0.177 A 
ATOM     17  O   UNL     1      -3.636   3.689  -1.271  0.00  0.00    -0.448 OA
BRANCH  15  18
ATOM     18  O   UNL     1      -5.994   2.213  -2.406  0.00  0.00    -0.491 OA
ATOM     19  C   UNL     1      -7.212   1.632  -2.878  0.00  0.00    +0.277 C 
ENDBRANCH  15  18
ENDBRANCH   4   9
BRANCH   2  20
ATOM     20  C   UNL     1       1.312   4.258   0.947  0.00  0.00    -0.022 A 
ATOM     21  C   UNL     1       1.201   4.006   2.302  0.00  0.00    +0.006 A 
ATOM     22  C   UNL     1       1.752   4.886   3.216  0.00  0.00    +0.004 A 
ATOM     23  C   UNL     1       2.405   6.021   2.775  0.00  0.00    -0.045 A 
ATOM     24  C   UNL     1       2.511   6.276   1.420  0.00  0.00    +0.004 A 
ATOM     25  C   UNL     1       1.965   5.394   0.507  0.00  0.00    +0.006 A 
BRANCH  23  26
ATOM     26  C   UNL     1       3.002   6.982   3.771  0.00  0.00    +0.013 C 
ATOM     27  C   UNL     1       1.898   7.521   4.683  0.00  0.00    +0.012 C 
ATOM     28  C   UNL     1       4.051   6.255   4.615  0.00  0.00    +0.012 C 
ENDBRANCH  23  26
ENDBRANCH   2  20
BRANCH   4  29
ATOM     29  O   UNL     1      -0.776   5.774  -0.729  0.00  0.00    -0.503 OA
ATOM     30  H   UNL     1      -1.417   6.500  -0.977  0.00  0.00    +0.292 HD
ENDBRANCH   4  29
BRANCH   1  31
ATOM     31  C   UNL     1       2.258   1.295   0.590  0.00  0.00    +0.090 C 
BRANCH  31  32
ATOM     32  C   UNL     1       2.724   0.647  -0.716  0.00  0.00    -0.060 C 
BRANCH  32  33
ATOM     33  N   UNL     1       4.024  -0.015  -0.479  0.00  0.00    +0.380 N 
ATOM     34  H   UNL     1       4.627   0.617   0.061  0.00  0.00    -0.082 HD
BRANCH  33  36
ATOM     35  C   UNL     1       5.190  -1.806   0.711  0.00  0.00    -0.017 C 
ATOM     36  C   UNL     1       3.824  -1.261   0.289  0.00  0.00    -0.082 C 
ENDBRANCH  33  36
BRANCH  33  37
ATOM     37  C   UNL     1       4.679  -0.316  -1.769  0.00  0.00    -0.082 C 
ATOM     38  C   UNL     1       5.275   0.977  -2.331  0.00  0.00    -0.017 C 
ENDBRANCH  33  37
ENDBRANCH  32  33
ENDBRANCH  31  32
ENDBRANCH   1  31
TORSDOF 10
