REMARK  Name = ZINC29364368
REMARK  6 active torsions:
REMARK  status: ('A' for Active; 'I' for Inactive)
REMARK    1  A    between atoms: C_1  and  C_2
REMARK    2  A    between atoms: C_6  and  C_16
REMARK    3  A    between atoms: N_8  and  C_9
REMARK    4  A    between atoms: N_21  and  C_24
REMARK    5  A    between atoms: C_24  and  C_26
REMARK    6  A    between atoms: C_24  and  C_27
REMARK                            x       y       z     vdW  Elec       q    Type
REMARK                         _______ _______ _______ _____ _____    ______ ____
ROOT
ATOM      1  C   UNL     1       7.328   1.647   0.803  0.00  0.00    +0.271 C 
ATOM      2  O   UNL     1       6.758   0.574   0.765  0.00  0.00    -0.268 OA
ATOM      3  N   UNL     1       7.019   2.541   1.763  0.00  0.00    -0.294 N 
ATOM      4  C   UNL     1       7.632   3.877   1.775  0.00  0.00    +0.123 C 
ATOM      5  C   UNL     1       8.210   4.135   3.171  0.00  0.00    +0.104 C 
ATOM      6  N   UNL     1       7.163   3.922   4.178  0.00  0.00    -0.293 NA
ATOM      7  C   UNL     1       6.699   2.528   4.180  0.00  0.00    +0.104 C 
ATOM      8  C   UNL     1       6.059   2.205   2.825  0.00  0.00    +0.123 C 
ENDROOT
BRANCH   1  14
ATOM      9  C   UNL     1      11.252   3.076  -3.085  0.00  0.00    +0.066 C 
ATOM     10  C   UNL     1      10.247   2.618  -2.060  0.00  0.00    +0.044 A 
ATOM     11  C   UNL     1      10.252   1.327  -1.649  0.00  0.00    +0.076 A 
ATOM     12  C   UNL     1       9.293   0.938  -0.678  0.00  0.00    +0.213 A 
ATOM     13  O   UNL     1       9.242  -0.208  -0.258  0.00  0.00    -0.285 OA
ATOM     14  C   UNL     1       8.360   1.970  -0.203  0.00  0.00    +0.193 A 
ATOM     15  N   UNL     1       8.465   3.190  -0.687  0.00  0.00    -0.158 NA
ATOM     16  N   UNL     1       9.350   3.502  -1.560  0.00  0.00    -0.233 N 
BRANCH  16  17
ATOM     17  C   UNL     1       9.392   4.823  -2.021  0.00  0.00    +0.101 A 
ATOM     18  C   UNL     1      10.318   5.715  -1.496  0.00  0.00    +0.031 A 
ATOM     19  C   UNL     1      10.360   7.016  -1.957  0.00  0.00    +0.002 A 
ATOM     20  C   UNL     1       9.473   7.436  -2.932  0.00  0.00    +0.003 A 
ATOM     21  C   UNL     1       8.546   6.554  -3.455  0.00  0.00    +0.040 A 
ATOM     22  C   UNL     1       8.501   5.247  -3.002  0.00  0.00    +0.149 A 
ATOM     23  F   UNL     1       7.595   4.385  -3.513  0.00  0.00    -0.203 F 
ENDBRANCH  16  17
ENDBRANCH   1  14
BRANCH   6  24
ATOM     24  C   UNL     1       7.627   4.324   5.513  0.00  0.00    +0.085 C 
ATOM     25  C   UNL     1       6.580   3.929   6.557  0.00  0.00    +0.029 C 
BRANCH  24  26
ATOM     26  C   UNL     1       7.831   5.817   5.546  0.00  0.00    -0.012 A 
ATOM     27  C   UNL     1       7.101   6.633   4.701  0.00  0.00    +0.006 A 
ATOM     28  C   UNL     1       7.288   8.002   4.730  0.00  0.00    +0.000 A 
ATOM     29  C   UNL     1       8.209   8.556   5.601  0.00  0.00    +0.001 A 
ATOM     30  C   UNL     1       8.934   7.742   6.450  0.00  0.00    +0.020 A 
ATOM     31  C   UNL     1       8.748   6.371   6.421  0.00  0.00    +0.046 A 
ATOM     32 CL   UNL     1       9.663   5.347   7.482  0.00  0.00    -0.083 Cl
ENDBRANCH  24  26
ENDBRANCH   6  24
TORSDOF 4
