REMARK  Name = ZINC47133172
REMARK  10 active torsions:
REMARK  status: ('A' for Active; 'I' for Inactive)
REMARK    1  A    between atoms: C_1  and  C_2
REMARK    2  A    between atoms: C_5  and  C_8
REMARK    3  A    between atoms: N_12  and  C_16
REMARK    4  A    between atoms: C_16  and  C_17
REMARK    5  A    between atoms: C_17  and  C_18
REMARK    6  A    between atoms: C_18  and  C_19
REMARK    7  A    between atoms: C_23  and  C_27
REMARK    8  A    between atoms: C_30  and  O_34
REMARK    9  A    between atoms: C_32  and  C_33
REMARK   10  A    between atoms: O_34  and  C_35
REMARK                            x       y       z     vdW  Elec       q    Type
REMARK                         _______ _______ _______ _____ _____    ______ ____
ROOT
ATOM      1  C   UNL     1       2.402  -9.938   3.709  0.00  0.00    +0.098 C 
ENDROOT
BRANCH   1   2
ATOM      2  C   UNL     1       3.852 -10.348   3.669  0.00  0.00    +0.218 C 
ATOM      3  O   UNL     1       4.715  -9.512   3.503  0.00  0.00    -0.275 OA
ATOM      4  N   UNL     1       4.189 -11.645   3.818  0.00  0.00    -0.266 N 
ATOM      5  C   UNL     1       5.530 -12.024   3.781  0.00  0.00    +0.197 A 
ATOM      6  C   UNL     1       6.035 -13.401   3.839  0.00  0.00    +0.156 A 
ATOM      7  N   UNL     1       7.340 -13.361   3.779  0.00  0.00    -0.047 NA
ATOM      8  O   UNL     1       7.728 -12.002   3.683  0.00  0.00    -0.240 OA
ATOM      9  N   UNL     1       6.549 -11.218   3.684  0.00  0.00    -0.033 NA
ATOM     10  H   UNL     1       3.499 -12.313   3.951  0.00  0.00    +0.156 HD
BRANCH   6  11
ATOM     11  C   UNL     1       5.207 -14.626   3.947  0.00  0.00    +0.010 A 
ATOM     12  C   UNL     1       4.179 -14.694   4.888  0.00  0.00    +0.014 A 
ATOM     13  C   UNL     1       3.411 -15.835   4.986  0.00  0.00    +0.046 A 
ATOM     14  C   UNL     1       3.660 -16.916   4.150  0.00  0.00    +0.120 A 
ATOM     15  C   UNL     1       4.683 -16.851   3.213  0.00  0.00    +0.049 A 
ATOM     16  C   UNL     1       5.450 -15.711   3.105  0.00  0.00    -0.038 A 
ATOM     17  C   UNL     1       6.556 -15.639   2.083  0.00  0.00    +0.044 C 
BRANCH  14  18
ATOM     18  O   UNL     1       2.902 -18.038   4.249  0.00  0.00    -0.495 OA
ATOM     19  C   UNL     1       1.868 -18.037   5.235  0.00  0.00    +0.277 C 
ENDBRANCH  14  18
ENDBRANCH   6  11
ENDBRANCH   1   2
BRANCH   1  20
ATOM     20  C   UNL     1       2.296  -8.424   3.516  0.00  0.00    +0.029 C 
BRANCH  20  21
ATOM     21  C   UNL     1       0.824  -8.007   3.557  0.00  0.00    +0.115 C 
BRANCH  21  26
ATOM     22  C   UNL     1       0.377  -3.826   0.924  0.00  0.00    +0.028 C 
ATOM     23  C   UNL     1       0.504  -4.598   2.031  0.00  0.00    +0.077 C 
ATOM     24  C   UNL     1       0.603  -6.069   2.149  0.00  0.00    +0.258 C 
ATOM     25  O   UNL     1       0.576  -6.792   1.171  0.00  0.00    -0.269 OA
ATOM     26  N   UNL     1       0.722  -6.557   3.372  0.00  0.00    -0.255 N 
ATOM     27  C   UNL     1       0.751  -5.752   4.454  0.00  0.00    +0.121 C 
ATOM     28  S   UNL     1       0.899  -6.190   6.102  0.00  0.00    -0.027 S 
ATOM     29  S   UNL     1       0.607  -4.117   3.750  0.00  0.00    -0.061 S 
BRANCH  22  34
ATOM     30  C   UNL     1      -0.592   1.815   1.447  0.00  0.00    +0.044 C 
ATOM     31  C   UNL     1      -0.338   0.336   1.310  0.00  0.00    -0.050 A 
ATOM     32  C   UNL     1       0.080  -0.181   0.096  0.00  0.00    +0.004 A 
ATOM     33  C   UNL     1       0.314  -1.533  -0.038  0.00  0.00    +0.008 A 
ATOM     34  C   UNL     1       0.129  -2.384   1.058  0.00  0.00    -0.024 A 
ATOM     35  C   UNL     1      -0.292  -1.853   2.282  0.00  0.00    +0.008 A 
ATOM     36  C   UNL     1      -0.518  -0.498   2.400  0.00  0.00    +0.004 A 
ENDBRANCH  22  34
ENDBRANCH  21  26
ENDBRANCH  20  21
ENDBRANCH   1  20
TORSDOF 7
