REMARK  Name = ZINC35188575
REMARK  10 active torsions:
REMARK  status: ('A' for Active; 'I' for Inactive)
REMARK    1  A    between atoms: C_1  and  C_2
REMARK    2  A    between atoms: C_2  and  O_3
REMARK    3  A    between atoms: O_3  and  C_4
REMARK    4  A    between atoms: C_4  and  C_6
REMARK    5  A    between atoms: C_7  and  N_40
REMARK    6  A    between atoms: C_11  and  C_15
REMARK    7  A    between atoms: C_16  and  C_39
REMARK    8  A    between atoms: C_25  and  C_27
REMARK    9  A    between atoms: C_31  and  C_38
REMARK   10  A    between atoms: C_34  and  O_37
REMARK                            x       y       z     vdW  Elec       q    Type
REMARK                         _______ _______ _______ _____ _____    ______ ____
ROOT
ATOM      1  C   UNL     1       1.594  -2.024  -2.582  0.00  0.00    +0.119 A 
ATOM      2  C   UNL     1       1.740  -3.367  -2.891  0.00  0.00    +0.055 A 
ATOM      3  C   UNL     1       2.403  -3.718  -4.118  0.00  0.00    +0.031 A 
ATOM      4  C   UNL     1       2.662  -4.981  -4.681  0.00  0.00    -0.027 A 
ATOM      5  C   UNL     1       3.329  -5.055  -5.913  0.00  0.00    -0.018 A 
ATOM      6  C   UNL     1       3.741  -3.910  -6.578  0.00  0.00    +0.018 A 
ATOM      7  N   UNL     1       3.509  -2.710  -6.037  0.00  0.00    -0.352 N 
ATOM      8  C   UNL     1       2.877  -2.609  -4.890  0.00  0.00    +0.088 A 
ATOM      9  S   UNL     1       2.399  -1.197  -3.941  0.00  0.00    -0.062 S 
ATOM     10  C   UNL     1       4.438  -3.970  -7.913  0.00  0.00    +0.063 C 
ATOM     11  C   UNL     1       3.454  -6.504  -6.291  0.00  0.00    -0.002 C 
ATOM     12  C   UNL     1       4.736  -6.897  -6.991  0.00  0.00    +0.012 C 
ATOM     13  C   UNL     1       5.130  -8.342  -6.641  0.00  0.00    +0.005 C 
ATOM     14  C   UNL     1       3.895  -9.184  -6.343  0.00  0.00    +0.003 C 
ATOM     15  C   UNL     1       3.261  -8.702  -5.026  0.00  0.00    +0.001 C 
ATOM     16  C   UNL     1       3.349  -7.223  -4.930  0.00  0.00    +0.010 C 
ATOM     17  C   UNL     1       2.332  -6.369  -4.182  0.00  0.00    +0.021 C 
ATOM     18  C   UNL     1       0.865  -6.685  -4.430  0.00  0.00    +0.013 C 
ATOM     19  C   UNL     1       1.897  -9.364  -4.903  0.00  0.00    +0.031 C 
ATOM     20  C   UNL     1       2.111 -10.864  -4.942  0.00  0.00    -0.027 C 
ATOM     21  C   UNL     1       3.132 -11.422  -5.514  0.00  0.00    -0.065 C 
ATOM     22  C   UNL     1       4.214 -10.667  -6.245  0.00  0.00    -0.008 C 
ATOM     23  C   UNL     1       5.549 -10.930  -5.562  0.00  0.00    +0.014 C 
ATOM     24  C   UNL     1       5.399 -12.019  -4.500  0.00  0.00    +0.032 C 
ATOM     25  C   UNL     1       4.707 -13.262  -5.054  0.00  0.00    +0.119 C 
ATOM     26  C   UNL     1       3.269 -12.934  -5.474  0.00  0.00    +0.062 C 
ATOM     27  C   UNL     1       4.290 -11.209  -7.678  0.00  0.00    +0.016 C 
ATOM     28  C   UNL     1       2.276  -6.810  -7.219  0.00  0.00    +0.016 C 
ATOM     29  H   UNL     1       3.815  -1.908  -6.490  0.00  0.00    +0.166 HD
ENDROOT
BRANCH   2  30
ATOM     30  N   UNL     1       1.263  -4.334  -2.016  0.00  0.00    -0.356 N 
ATOM     31  H   UNL     1       0.828  -4.068  -1.190  0.00  0.00    +0.142 HD
ATOM     32  H   UNL     1       1.364  -5.274  -2.230  0.00  0.00    +0.142 HD
ENDBRANCH   2  30
BRANCH   1  33
ATOM     33  C   UNL     1       0.965  -1.447  -1.454  0.00  0.00    +0.348 C 
ATOM     34  O   UNL     1       0.457  -2.161  -0.609  0.00  0.00    -0.244 OA
BRANCH  33  35
ATOM     35  O   UNL     1       0.927  -0.105  -1.315  0.00  0.00    -0.461 OA
BRANCH  35  37
ATOM     36  C   UNL     1       0.333   1.938  -0.167  0.00  0.00    +0.048 C 
ATOM     37  C   UNL     1       0.275   0.409  -0.151  0.00  0.00    +0.229 C 
ENDBRANCH  35  37
ENDBRANCH  33  35
ENDBRANCH   1  33
BRANCH  25  38
ATOM     38  O   UNL     1       5.443 -13.763  -6.172  0.00  0.00    -0.391 OA
ATOM     39  H   UNL     1       5.058 -14.554  -6.573  0.00  0.00    +0.210 HD
ENDBRANCH  25  38
TORSDOF 5
