REMARK  Name = ZINC39527722
REMARK  8 active torsions:
REMARK  status: ('A' for Active; 'I' for Inactive)
REMARK    1  A    between atoms: C_1  and  C_2
REMARK    2  A    between atoms: C_2  and  C_3
REMARK    3  A    between atoms: C_2  and  S_4
REMARK    4  A    between atoms: S_4  and  N_7
REMARK    5  A    between atoms: C_8  and  C_27
REMARK    6  A    between atoms: C_17  and  C_20
REMARK    7  A    between atoms: C_25  and  O_26
REMARK    8  A    between atoms: C_32  and  O_33
REMARK                            x       y       z     vdW  Elec       q    Type
REMARK                         _______ _______ _______ _____ _____    ______ ____
ROOT
ATOM      1  N   UNL     1      -2.142  -1.872   0.466  0.00  0.00    -0.167 NA
ATOM      2  C   UNL     1      -2.273  -2.798  -0.668  0.00  0.00    +0.113 C 
ATOM      3  C   UNL     1      -3.393  -3.798  -0.360  0.00  0.00    +0.025 C 
ATOM      4  C   UNL     1      -3.108  -4.481   0.979  0.00  0.00    +0.004 C 
ATOM      5  C   UNL     1      -3.079  -3.432   2.093  0.00  0.00    +0.024 C 
ATOM      6  C   UNL     1      -1.953  -2.427   1.812  0.00  0.00    +0.044 C 
ATOM      7  C   UNL     1      -0.599  -3.134   1.885  0.00  0.00    +0.024 C 
ATOM      8  C   UNL     1       0.517  -2.129   1.592  0.00  0.00    +0.002 C 
ATOM      9  C   UNL     1       0.471  -1.000   2.624  0.00  0.00    +0.008 C 
ATOM     10  C   UNL     1      -0.883  -0.293   2.548  0.00  0.00    +0.024 C 
ATOM     11  C   UNL     1      -2.000  -1.298   2.841  0.00  0.00    +0.032 C 
ENDROOT
BRANCH  10  12
ATOM     12  C   UNL     1      -0.928   0.818   3.565  0.00  0.00    -0.003 A 
ATOM     13  C   UNL     1      -0.749   0.536   4.906  0.00  0.00    +0.007 A 
ATOM     14  C   UNL     1      -0.790   1.555   5.839  0.00  0.00    +0.001 A 
ATOM     15  C   UNL     1      -1.010   2.859   5.433  0.00  0.00    +0.004 A 
ATOM     16  C   UNL     1      -1.189   3.146   4.094  0.00  0.00    +0.046 A 
ATOM     17  C   UNL     1      -1.143   2.126   3.155  0.00  0.00    +0.120 A 
BRANCH  17  18
ATOM     18  O   UNL     1      -1.313   2.406   1.836  0.00  0.00    -0.506 OA
ATOM     19  H   UNL     1      -2.233   2.372   1.542  0.00  0.00    +0.292 HD
ENDBRANCH  17  18
ENDBRANCH  10  12
BRANCH   2  20
ATOM     20  C   UNL     1      -2.612  -2.024  -1.916  0.00  0.00    +0.013 A 
ATOM     21  C   UNL     1      -3.931  -1.872  -2.299  0.00  0.00    +0.009 A 
ATOM     22  C   UNL     1      -4.242  -1.163  -3.444  0.00  0.00    +0.001 A 
ATOM     23  C   UNL     1      -3.234  -0.603  -4.208  0.00  0.00    +0.004 A 
ATOM     24  C   UNL     1      -1.915  -0.752  -3.830  0.00  0.00    +0.046 A 
ATOM     25  C   UNL     1      -1.600  -1.459  -2.678  0.00  0.00    +0.122 A 
BRANCH  25  26
ATOM     26  O   UNL     1      -0.302  -1.603  -2.300  0.00  0.00    -0.506 OA
ATOM     27  H   UNL     1       0.130  -2.386  -2.666  0.00  0.00    +0.292 HD
ENDBRANCH  25  26
ENDBRANCH   2  20
BRANCH   1  28
ATOM     28  S   UNL     1      -2.201  -0.234   0.229  0.00  0.00    +0.035 S 
ATOM     29  O   UNL     1      -2.303   0.318   1.534  0.00  0.00    -0.158 OA
ATOM     30  O   UNL     1      -3.239  -0.042  -0.722  0.00  0.00    -0.158 OA
BRANCH  28  32
ATOM     31  C   UNL     1      -0.737   1.462  -1.339  0.00  0.00    +0.033 C 
ATOM     32  C   UNL     1      -0.596   0.188  -0.504  0.00  0.00    +0.142 C 
ATOM     33  C   UNL     1       0.428   0.418   0.609  0.00  0.00    +0.033 C 
ENDBRANCH  28  32
ENDBRANCH   1  28
TORSDOF 6
