REMARK  Name = ZINC09514069
REMARK  13 active torsions:
REMARK  status: ('A' for Active; 'I' for Inactive)
REMARK    1  A    between atoms: C_1  and  N_2
REMARK    2  A    between atoms: N_2  and  C_3
REMARK    3  A    between atoms: N_2  and  C_4
REMARK    4  A    between atoms: C_7  and  C_10
REMARK    5  A    between atoms: C_11  and  C_12
REMARK    6  A    between atoms: C_11  and  N_29
REMARK    7  A    between atoms: N_14  and  N_15
REMARK    8  A    between atoms: C_16  and  C_17
REMARK    9  A    between atoms: C_20  and  O_28
REMARK   10  A    between atoms: C_21  and  O_26
REMARK   11  A    between atoms: C_22  and  N_23
REMARK   12  A    between atoms: O_26  and  C_27
REMARK   13  A    between atoms: C_30  and  C_32
REMARK                            x       y       z     vdW  Elec       q    Type
REMARK                         _______ _______ _______ _____ _____    ______ ____
ROOT
ATOM      1  C   UNL     1      -7.142  -0.325  -0.218  0.00  0.00    +0.036 C 
ATOM      2  C   UNL     1      -6.016  -1.072  -0.117  0.00  0.00    +0.098 C 
ENDROOT
BRANCH   1   6
ATOM      3  C   UNL     1     -10.873  -2.200  -0.956  0.00  0.00    +0.029 A 
ATOM      4  C   UNL     1     -10.834  -0.948  -0.349  0.00  0.00    +0.023 A 
ATOM      5  C   UNL     1      -9.626  -0.336  -0.107  0.00  0.00    +0.010 A 
ATOM      6  C   UNL     1      -8.434  -0.975  -0.473  0.00  0.00    -0.023 A 
ATOM      7  C   UNL     1      -8.479  -2.232  -1.088  0.00  0.00    +0.010 A 
ATOM      8  C   UNL     1      -9.692  -2.838  -1.322  0.00  0.00    +0.023 A 
BRANCH   3  10
ATOM      9  C   UNL     1     -13.344  -2.146  -0.815  0.00  0.00    +0.129 C 
ATOM     10  N   UNL     1     -12.099  -2.816  -1.199  0.00  0.00    -0.336 N 
ATOM     11  C   UNL     1     -12.143  -4.134  -1.837  0.00  0.00    +0.129 C 
ENDBRANCH   3  10
ENDBRANCH   1   6
BRANCH   2  12
ATOM     12  C   UNL     1      -4.707  -0.417  -0.011  0.00  0.00    +0.277 C 
ATOM     13  O   UNL     1      -4.633   0.798  -0.016  0.00  0.00    -0.267 OA
ATOM     14  N   UNL     1      -3.588  -1.160   0.091  0.00  0.00    -0.202 N 
ATOM     15  H   UNL     1      -3.651  -2.125   0.162  0.00  0.00    +0.178 HD
BRANCH  14  16
ATOM     16  N   UNL     1      -2.332  -0.538   0.094  0.00  0.00    -0.187 NA
ATOM     17  C   UNL     1      -1.254  -1.254   0.193  0.00  0.00    +0.140 C 
BRANCH  17  18
ATOM     18  C   UNL     1       0.068  -0.601   0.196  0.00  0.00    +0.029 A 
ATOM     19  C   UNL     1       1.229  -1.369   0.302  0.00  0.00    +0.015 A 
ATOM     20  C   UNL     1       2.464  -0.756   0.305  0.00  0.00    +0.050 A 
ATOM     21  C   UNL     1       2.557   0.625   0.203  0.00  0.00    +0.161 A 
ATOM     22  C   UNL     1       1.402   1.398   0.097  0.00  0.00    +0.192 A 
ATOM     23  C   UNL     1       0.161   0.790   0.093  0.00  0.00    +0.180 A 
BRANCH  23  24
ATOM     24  N   UNL     1      -1.066   1.609  -0.026  0.00  0.00    +0.061 N 
ATOM     25  O   UNL     1      -1.619   2.027   0.976  0.00  0.00    -0.126 OA
ATOM     26  O   UNL     1      -1.523   1.865  -1.125  0.00  0.00    -0.126 OA
ENDBRANCH  23  24
BRANCH  22  27
ATOM     27  O   UNL     1       1.497   2.751  -0.003  0.00  0.00    -0.489 OA
ATOM     28  C   UNL     1       1.490   3.494   1.218  0.00  0.00    +0.277 C 
ENDBRANCH  22  27
BRANCH  21  29
ATOM     29  O   UNL     1       3.776   1.225   0.207  0.00  0.00    -0.503 OA
ATOM     30  H   UNL     1       4.165   1.331  -0.672  0.00  0.00    +0.292 HD
ENDBRANCH  21  29
ENDBRANCH  17  18
ENDBRANCH  14  16
ENDBRANCH   2  12
BRANCH   2  31
ATOM     31  N   UNL     1      -6.101  -2.469  -0.113  0.00  0.00    -0.277 N 
ATOM     32  C   UNL     1      -5.446  -3.186  -1.046  0.00  0.00    +0.248 C 
ATOM     33  O   UNL     1      -4.705  -2.628  -1.833  0.00  0.00    -0.270 OA
ATOM     34  H   UNL     1      -6.632  -2.920   0.562  0.00  0.00    +0.155 HD
BRANCH  32  35
ATOM     35  C   UNL     1      -5.627  -4.652  -1.114  0.00  0.00    +0.037 A 
ATOM     36  C   UNL     1      -6.472  -5.296  -0.209  0.00  0.00    +0.013 A 
ATOM     37  C   UNL     1      -6.641  -6.663  -0.281  0.00  0.00    +0.001 A 
ATOM     38  C   UNL     1      -5.966  -7.397  -1.240  0.00  0.00    +0.000 A 
ATOM     39  C   UNL     1      -5.123  -6.766  -2.137  0.00  0.00    +0.001 A 
ATOM     40  C   UNL     1      -4.949  -5.398  -2.079  0.00  0.00    +0.013 A 
ENDBRANCH  32  35
ENDBRANCH   2  31
TORSDOF 10
