REMARK  Name = ZINC09281793
REMARK  12 active torsions:
REMARK  status: ('A' for Active; 'I' for Inactive)
REMARK    1  A    between atoms: C_1  and  C_2
REMARK    2  A    between atoms: C_2  and  N_3
REMARK    3  A    between atoms: N_3  and  C_4
REMARK    4  A    between atoms: C_4  and  C_5
REMARK    5  A    between atoms: C_5  and  O_6
REMARK    6  A    between atoms: C_13  and  C_17
REMARK    7  A    between atoms: C_17  and  C_18
REMARK    8  A    between atoms: C_17  and  C_19
REMARK    9  A    between atoms: C_22  and  C_24
REMARK   10  A    between atoms: C_22  and  C_25
REMARK   11  A    between atoms: C_27  and  S_29
REMARK   12  A    between atoms: S_29  and  C_30
REMARK                            x       y       z     vdW  Elec       q    Type
REMARK                         _______ _______ _______ _____ _____    ______ ____
ROOT
ATOM      1  N   UNL     1      -1.226   3.486   0.027  0.00  0.00    -0.312 N 
ATOM      2  C   UNL     1      -1.219   2.100   0.011  0.00  0.00    +0.140 A 
ATOM      3  C   UNL     1      -0.022   1.395   0.004  0.00  0.00    +0.080 A 
ATOM      4  C   UNL     1      -0.009  -0.004  -0.012  0.00  0.00    +0.094 A 
ATOM      5  C   UNL     1       1.324  -0.636  -0.025  0.00  0.00    +0.037 A 
ATOM      6  C   UNL     1       1.626  -2.016  -0.041  0.00  0.00    -0.026 A 
ATOM      7  C   UNL     1       2.939  -2.419  -0.054  0.00  0.00    +0.004 A 
ATOM      8  C   UNL     1       3.953  -1.469  -0.046  0.00  0.00    +0.051 A 
ATOM      9  N   UNL     1       3.667  -0.182  -0.027  0.00  0.00    -0.244 NA
ATOM     10  C   UNL     1       2.422   0.244  -0.018  0.00  0.00    +0.111 A 
ATOM     11  S   UNL     1       1.687   1.861   0.003  0.00  0.00    -0.064 S 
ATOM     12  C   UNL     1       3.311  -3.879  -0.082  0.00  0.00    +0.197 C 
ATOM     13  O   UNL     1       2.188  -4.679   0.287  0.00  0.00    -0.369 OA
ATOM     14  C   UNL     1       1.008  -4.381  -0.467  0.00  0.00    +0.068 C 
ATOM     15  C   UNL     1       0.492  -3.005  -0.036  0.00  0.00    +0.070 C 
ATOM     16  C   UNL     1       1.342  -4.360  -1.960  0.00  0.00    +0.041 C 
ATOM     17  C   UNL     1      -0.059  -5.443  -0.194  0.00  0.00    +0.041 C 
ATOM     18  N   UNL     1      -1.217  -0.612  -0.014  0.00  0.00    -0.221 NA
ATOM     19  C   UNL     1      -2.334   0.085  -0.001  0.00  0.00    +0.190 A 
ATOM     20  N   UNL     1      -2.360   1.412   0.013  0.00  0.00    -0.206 NA
ENDROOT
BRANCH   8  21
ATOM     21  C   UNL     1       5.393  -1.913  -0.057  0.00  0.00    +0.032 C 
ATOM     22  C   UNL     1       6.088  -1.357  -1.302  0.00  0.00    +0.014 C 
ATOM     23  C   UNL     1       6.098  -1.391   1.196  0.00  0.00    +0.014 C 
ENDBRANCH   8  21
BRANCH   1  25
ATOM     24  C   UNL     1      -1.046   3.830   2.445  0.00  0.00    +0.024 C 
ATOM     25  C   UNL     1      -1.934   3.995   1.209  0.00  0.00    +0.103 C 
ENDBRANCH   1  25
BRANCH  19  26
ATOM     26  S   UNL     1      -3.866  -0.784  -0.004  0.00  0.00    -0.089 S 
ATOM     27  C   UNL     1      -3.260  -2.490  -0.025  0.00  0.00    +0.093 C 
ENDBRANCH  19  26
BRANCH   1  28
ATOM     28  C   UNL     1      -1.811   4.023  -1.209  0.00  0.00    +0.134 C 
BRANCH  28  29
ATOM     29  C   UNL     1      -1.578   5.534  -1.268  0.00  0.00    +0.174 C 
BRANCH  29  30
ATOM     30  O   UNL     1      -0.177   5.796  -1.368  0.00  0.00    -0.393 OA
ATOM     31  H   UNL     1       0.045   6.736  -1.410  0.00  0.00    +0.209 HD
ENDBRANCH  29  30
ENDBRANCH  28  29
ENDBRANCH   1  28
TORSDOF 6
