REMARK  Name = ZINC34873177
REMARK  8 active torsions:
REMARK  status: ('A' for Active; 'I' for Inactive)
REMARK    1  A    between atoms: C_2  and  C_3
REMARK    2  A    between atoms: C_3  and  N_4
REMARK    3  A    between atoms: N_6  and  N_20
REMARK    4  A    between atoms: C_7  and  C_10
REMARK    5  A    between atoms: C_13  and  O_19
REMARK    6  A    between atoms: C_14  and  C_16
REMARK    7  A    between atoms: C_21  and  C_22
REMARK    8  A    between atoms: C_25  and  N_27
REMARK                            x       y       z     vdW  Elec       q    Type
REMARK                         _______ _______ _______ _____ _____    ______ ____
ROOT
ATOM      1  N   UNL     1       1.293  -1.794   1.123  0.00  0.00    -0.320 N 
ATOM      2  C   UNL     1       2.413  -2.502   1.303  0.00  0.00    +0.160 A 
ATOM      3  N   UNL     1       2.708  -3.438   2.278  0.00  0.00    -0.211 N 
ATOM      4  C   UNL     1       3.885  -4.033   2.279  0.00  0.00    +0.082 A 
ATOM      5  C   UNL     1       4.815  -3.709   1.298  0.00  0.00    +0.077 A 
ATOM      6  S   UNL     1       3.919  -2.495   0.342  0.00  0.00    -0.060 S 
ATOM      7  H   UNL     1       0.546  -1.904   1.732  0.00  0.00    +0.148 HD
ENDROOT
BRANCH   4   8
ATOM      8  C   UNL     1       4.214  -5.036   3.318  0.00  0.00    +0.002 A 
ATOM      9  C   UNL     1       5.152  -6.037   3.050  0.00  0.00    +0.013 A 
ATOM     10  C   UNL     1       5.462  -6.973   4.012  0.00  0.00    +0.047 A 
ATOM     11  C   UNL     1       4.845  -6.929   5.255  0.00  0.00    +0.129 A 
ATOM     12  C   UNL     1       3.902  -5.929   5.534  0.00  0.00    +0.078 A 
ATOM     13  C   UNL     1       3.593  -4.979   4.562  0.00  0.00    +0.026 A 
BRANCH  12  14
ATOM     14  C   UNL     1       3.244  -5.879   6.854  0.00  0.00    +0.245 C 
ATOM     15  O   UNL     1       3.518  -6.707   7.702  0.00  0.00    -0.270 OA
ATOM     16  N   UNL     1       2.338  -4.917   7.119  0.00  0.00    -0.325 N 
ATOM     17  H   UNL     1       2.119  -4.257   6.443  0.00  0.00    +0.145 HD
ATOM     18  H   UNL     1       1.905  -4.884   7.987  0.00  0.00    +0.145 HD
ENDBRANCH  12  14
BRANCH  11  19
ATOM     19  O   UNL     1       5.153  -7.853   6.199  0.00  0.00    -0.506 OA
ATOM     20  H   UNL     1       5.887  -7.598   6.774  0.00  0.00    +0.292 HD
ENDBRANCH  11  19
ENDBRANCH   4   8
BRANCH   3  21
ATOM     21  N   UNL     1       1.835  -3.728   3.183  0.00  0.00    -0.169 NA
ATOM     22  C   UNL     1       0.887  -4.631   2.930  0.00  0.00    +0.179 C 
BRANCH  22  23
ATOM     23  C   UNL     1      -0.054  -4.943   3.905  0.00  0.00    +0.150 A 
ATOM     24  C   UNL     1      -1.102  -5.876   3.780  0.00  0.00    +0.053 A 
ATOM     25  C   UNL     1      -1.786  -5.863   4.987  0.00  0.00    +0.076 A 
ATOM     26  C   UNL     1      -1.158  -4.947   5.803  0.00  0.00    +0.280 A 
ATOM     27  O   UNL     1      -0.124  -4.411   5.146  0.00  0.00    -0.433 OA
BRANCH  26  28
ATOM     28  N   UNL     1      -1.561  -4.613   7.188  0.00  0.00    +0.093 N 
ATOM     29  O   UNL     1      -2.599  -5.212   7.734  0.00  0.00    -0.123 OA
ATOM     30  O   UNL     1      -0.882  -3.717   7.873  0.00  0.00    -0.123 OA
ENDBRANCH  26  28
ENDBRANCH  22  23
ENDBRANCH   3  21
BRANCH   1  31
ATOM     31  C   UNL     1       1.194  -0.851   0.006  0.00  0.00    +0.130 C 
BRANCH  31  33
ATOM     32  C   UNL     1      -0.246   1.121   0.048  0.00  0.00    +0.005 C 
ATOM     33  C   UNL     1      -0.159  -0.186   0.028  0.00  0.00    -0.016 C 
ENDBRANCH  31  33
ENDBRANCH   1  31
TORSDOF 8
