REMARK  Name = ZINC35361050
REMARK  15 active torsions:
REMARK  status: ('A' for Active; 'I' for Inactive)
REMARK    1  A    between atoms: C_1  and  C_2
REMARK    2  A    between atoms: C_2  and  O_3
REMARK    3  A    between atoms: O_3  and  C_4
REMARK    4  A    between atoms: N_6  and  N_7
REMARK    5  A    between atoms: C_8  and  C_9
REMARK    6  A    between atoms: C_8  and  C_10
REMARK    7  A    between atoms: C_10  and  O_42
REMARK    8  A    between atoms: C_11  and  O_38
REMARK    9  A    between atoms: C_16  and  C_37
REMARK   10  A    between atoms: C_26  and  C_36
REMARK   11  A    between atoms: C_29  and  O_32
REMARK   12  A    between atoms: O_32  and  C_33
REMARK   13  A    between atoms: C_33  and  C_35
REMARK   14  A    between atoms: O_38  and  C_39
REMARK   15  A    between atoms: C_39  and  C_41
REMARK                            x       y       z     vdW  Elec       q    Type
REMARK                         _______ _______ _______ _____ _____    ______ ____
ROOT
ATOM      1  C   UNL     1       2.834  -3.297   4.222  0.00  0.00    +0.147 C 
ATOM      2  C   UNL     1       2.013  -3.610   5.502  0.00  0.00    +0.214 C 
ATOM      3  C   UNL     1       1.187  -4.893   5.192  0.00  0.00    +0.052 C 
ATOM      4  C   UNL     1       1.894  -5.440   3.946  0.00  0.00    +0.005 C 
ATOM      5  C   UNL     1       2.137  -4.149   3.143  0.00  0.00    +0.009 C 
ATOM      6  C   UNL     1       2.933  -4.444   1.900  0.00  0.00    +0.010 C 
ATOM      7  C   UNL     1       2.205  -5.526   1.073  0.00  0.00    +0.005 C 
ATOM      8  C   UNL     1       2.048  -6.796   1.888  0.00  0.00    +0.003 C 
ATOM      9  C   UNL     1       1.239  -6.544   3.173  0.00  0.00    +0.001 C 
ATOM     10  C   UNL     1      -0.222  -6.295   2.825  0.00  0.00    +0.031 C 
ATOM     11  C   UNL     1      -0.739  -7.452   2.012  0.00  0.00    -0.027 C 
ATOM     12  C   UNL     1       0.026  -8.187   1.271  0.00  0.00    -0.064 C 
ATOM     13  C   UNL     1       1.512  -7.988   1.129  0.00  0.00    -0.008 C 
ATOM     14  C   UNL     1       2.204  -9.275   1.601  0.00  0.00    +0.015 C 
ATOM     15  C   UNL     1       1.161 -10.327   1.969  0.00  0.00    +0.046 C 
ATOM     16  C   UNL     1       0.203 -10.600   0.813  0.00  0.00    +0.180 C 
ATOM     17  C   UNL     1      -0.592  -9.331   0.483  0.00  0.00    +0.075 C 
ATOM     18  C   UNL     1       1.825  -7.839  -0.362  0.00  0.00    +0.016 C 
ATOM     19  C   UNL     1       0.852  -3.401   2.782  0.00  0.00    +0.015 C 
ENDROOT
BRANCH   1  21
ATOM     20  N   UNL     1       3.623  -1.298   3.126  0.00  0.00    -0.184 NA
ATOM     21  C   UNL     1       2.734  -1.840   3.870  0.00  0.00    +0.069 C 
ATOM     22  C   UNL     1       1.586  -1.016   4.394  0.00  0.00    +0.065 C 
BRANCH  20  25
ATOM     23  C   UNL     1       5.615  -1.507   1.839  0.00  0.00    +0.420 C 
ATOM     24  O   UNL     1       6.475  -2.193   1.323  0.00  0.00    -0.225 OA
ATOM     25  N   UNL     1       4.615  -2.088   2.531  0.00  0.00    -0.172 N 
ATOM     26  H   UNL     1       4.582  -3.054   2.618  0.00  0.00    +0.181 HD
BRANCH  23  27
ATOM     27  O   UNL     1       5.660  -0.167   1.719  0.00  0.00    -0.450 OA
BRANCH  27  29
ATOM     28  C   UNL     1       6.631   1.907   0.944  0.00  0.00    +0.048 C 
ATOM     29  C   UNL     1       6.748   0.381   0.971  0.00  0.00    +0.230 C 
ENDBRANCH  27  29
ENDBRANCH  23  27
ENDBRANCH  20  25
ENDBRANCH   1  21
BRANCH   1  30
ATOM     30  O   UNL     1       4.190  -3.701   4.375  0.00  0.00    -0.378 OA
ATOM     31  H   UNL     1       4.670  -3.217   5.061  0.00  0.00    +0.211 HD
ENDBRANCH   1  30
BRANCH  16  32
ATOM     32  O   UNL     1       0.941 -11.019  -0.336  0.00  0.00    -0.461 OA
BRANCH  32  33
ATOM     33  C   UNL     1       0.323 -11.855  -1.186  0.00  0.00    +0.304 C 
ATOM     34  O   UNL     1      -0.807 -12.219  -0.961  0.00  0.00    -0.251 OA
ATOM     35  C   UNL     1       1.038 -12.340  -2.420  0.00  0.00    +0.136 C 
ENDBRANCH  32  33
ENDBRANCH  16  32
BRANCH   2  36
ATOM     36  O   UNL     1       2.894  -3.851   6.600  0.00  0.00    -0.458 OA
BRANCH  36  37
ATOM     37  C   UNL     1       2.445  -3.530   7.824  0.00  0.00    +0.304 C 
ATOM     38  O   UNL     1       1.340  -3.059   7.957  0.00  0.00    -0.251 OA
ATOM     39  C   UNL     1       3.319  -3.756   9.031  0.00  0.00    +0.136 C 
ENDBRANCH  36  37
ENDBRANCH   2  36
TORSDOF 9
