REMARK  Name = ZINC67053884
REMARK  10 active torsions:
REMARK  status: ('A' for Active; 'I' for Inactive)
REMARK    1  A    between atoms: C_1  and  C_2
REMARK    2  A    between atoms: N_4  and  C_5
REMARK    3  A    between atoms: C_5  and  C_6
REMARK    4  A    between atoms: C_9  and  C_11
REMARK    5  A    between atoms: N_13  and  C_14
REMARK    6  A    between atoms: C_14  and  C_16
REMARK    7  A    between atoms: C_14  and  C_23
REMARK    8  A    between atoms: C_23  and  C_24
REMARK    9  A    between atoms: C_23  and  C_25
REMARK   10  A    between atoms: C_23  and  C_26
REMARK                            x       y       z     vdW  Elec       q    Type
REMARK                         _______ _______ _______ _____ _____    ______ ____
ROOT
ATOM      1  C   UNL     1      -6.249  -4.050   1.060  0.00  0.00    +0.251 C 
ATOM      2  O   UNL     1      -7.157  -4.382   0.320  0.00  0.00    -0.270 OA
ATOM      3  N   UNL     1      -6.411  -4.115   2.397  0.00  0.00    -0.304 N 
ATOM      4  H   UNL     1      -5.688  -3.850   2.986  0.00  0.00    +0.150 HD
ENDROOT
BRANCH   1   8
ATOM      5  C   UNL     1      -2.550  -2.680   0.012  0.00  0.00    +0.008 A 
ATOM      6  C   UNL     1      -3.340  -2.968  -1.052  0.00  0.00    +0.013 A 
ATOM      7  C   UNL     1      -4.612  -3.439  -0.832  0.00  0.00    +0.021 A 
ATOM      8  C   UNL     1      -4.980  -3.579   0.498  0.00  0.00    +0.074 A 
ATOM      9  S   UNL     1      -3.505  -3.045   1.345  0.00  0.00    -0.087 S 
BRANCH   5  10
ATOM     10  C   UNL     1      -1.136  -2.159   0.001  0.00  0.00    +0.146 C 
BRANCH  10  14
ATOM     11  C   UNL     1      -0.018   1.503   0.010  0.00  0.00    +0.109 C 
ATOM     12  C   UNL     1       0.002  -0.004   0.002  0.00  0.00    +0.210 C 
ATOM     13  O   UNL     1       1.060  -0.596  -0.011  0.00  0.00    -0.276 OA
ATOM     14  N   UNL     1      -1.156  -0.694   0.009  0.00  0.00    -0.311 N 
ATOM     15  H   UNL     1      -2.002  -0.220   0.020  0.00  0.00    +0.149 HD
ENDBRANCH  10  14
ENDBRANCH   5  10
ENDBRANCH   1   8
BRANCH   3  16
ATOM     16  C   UNL     1      -7.680  -4.585   2.958  0.00  0.00    +0.109 C 
BRANCH  16  17
ATOM     17  C   UNL     1      -7.442  -5.143   4.338  0.00  0.00    -0.027 A 
ATOM     18  C   UNL     1      -6.568  -4.505   5.199  0.00  0.00    +0.008 A 
ATOM     19  C   UNL     1      -6.349  -5.015   6.465  0.00  0.00    +0.038 A 
ATOM     20  C   UNL     1      -7.006  -6.165   6.871  0.00  0.00    +0.123 A 
ATOM     21  C   UNL     1      -7.882  -6.802   6.008  0.00  0.00    +0.038 A 
ATOM     22  C   UNL     1      -8.103  -6.287   4.744  0.00  0.00    +0.008 A 
ATOM     23  F   UNL     1      -6.793  -6.664   8.108  0.00  0.00    -0.205 F 
ENDBRANCH  16  17
BRANCH  16  24
ATOM     24  C   UNL     1      -8.665  -3.417   3.043  0.00  0.00    -0.015 C 
ATOM     25  C   UNL     1      -8.906  -2.852   1.642  0.00  0.00    +0.013 C 
ATOM     26  C   UNL     1      -9.989  -3.909   3.630  0.00  0.00    +0.013 C 
ATOM     27  C   UNL     1      -8.083  -2.324   3.941  0.00  0.00    +0.013 C 
ENDBRANCH  16  24
ENDBRANCH   3  16
TORSDOF 6
