REMARK  Name = ZINC53097998
REMARK  1 active torsions:
REMARK  status: ('A' for Active; 'I' for Inactive)
REMARK    1  A    between atoms: C_4  and  N_8
REMARK                            x       y       z     vdW  Elec       q    Type
REMARK                         _______ _______ _______ _____ _____    ______ ____
ROOT
ATOM      1  N   UNL     1       3.601  -0.632  -0.036  0.00  0.00    -0.225 NA
ATOM      2  C   UNL     1       3.626  -1.943   0.056  0.00  0.00    +0.155 C 
ATOM      3  N   UNL     1       4.723  -2.761   0.157  0.00  0.00    -0.317 N 
ATOM      4  C   UNL     1       4.587  -4.183  -0.116  0.00  0.00    +0.043 C 
ATOM      5  C   UNL     1       5.485  -4.569  -1.298  0.00  0.00    +0.026 C 
ATOM      6  C   UNL     1       6.940  -4.245  -0.958  0.00  0.00    +0.002 C 
ATOM      7  C   UNL     1       7.366  -5.040   0.279  0.00  0.00    +0.000 C 
ATOM      8  C   UNL     1       6.468  -4.662   1.459  0.00  0.00    +0.002 C 
ATOM      9  C   UNL     1       5.013  -4.987   1.119  0.00  0.00    +0.026 C 
ATOM     10  C   UNL     1       3.131  -4.582  -0.469  0.00  0.00    +0.102 C 
ATOM     11  S   UNL     1       2.238  -3.067   0.086  0.00  0.00    -0.088 S 
ATOM     12  H   UNL     1       5.585  -2.393   0.408  0.00  0.00    +0.149 HD
ENDROOT
BRANCH   1  16
ATOM     13  C   UNL     1      -0.017   1.379   0.009  0.00  0.00    +0.016 A 
ATOM     14  C   UNL     1       0.907   1.648  -0.985  0.00  0.00    +0.018 A 
ATOM     15  C   UNL     1       2.116   0.981  -1.006  0.00  0.00    +0.043 A 
ATOM     16  C   UNL     1       2.404   0.033  -0.021  0.00  0.00    +0.081 A 
ATOM     17  C   UNL     1       1.467  -0.233   0.979  0.00  0.00    +0.044 A 
ATOM     18  C   UNL     1       0.262   0.441   0.988  0.00  0.00    +0.020 A 
ATOM     19 BR   UNL     1      -1.009   0.082   2.341  0.00  0.00    -0.050 Br
ATOM     20 BR   UNL     1       3.378   1.350  -2.365  0.00  0.00    -0.048 Br
ENDBRANCH   1  16
TORSDOF 1
