REMARK  Name = ZINC38591283
REMARK  5 active torsions:
REMARK  status: ('A' for Active; 'I' for Inactive)
REMARK    1  A    between atoms: C_1  and  C_2
REMARK    2  A    between atoms: C_4  and  C_14
REMARK    3  A    between atoms: N_16  and  C_17
REMARK    4  A    between atoms: C_17  and  C_18
REMARK    5  A    between atoms: C_18  and  C_21
REMARK                            x       y       z     vdW  Elec       q    Type
REMARK                         _______ _______ _______ _____ _____    ______ ____
ROOT
ATOM      1  C   UNL     1      -2.122   0.234   0.851  0.00  0.00    +0.258 C 
ATOM      2  O   UNL     1      -2.222  -0.685   1.636  0.00  0.00    -0.272 OA
ATOM      3  N   UNL     1      -2.428   1.488   1.238  0.00  0.00    -0.311 N 
ATOM      4  H   UNL     1      -2.415   2.212   0.593  0.00  0.00    +0.149 HD
ENDROOT
BRANCH   1   7
ATOM      5  C   UNL     1      -0.233   2.034  -0.476  0.00  0.00    +0.056 C 
ATOM      6  C   UNL     1      -0.237   0.528  -0.745  0.00  0.00    +0.220 C 
ATOM      7  C   UNL     1      -1.656  -0.027  -0.558  0.00  0.00    +0.298 C 
ATOM      8  O   UNL     1      -1.621  -1.437  -0.803  0.00  0.00    -0.472 OA
ATOM      9  C   UNL     1      -0.613  -2.135  -0.213  0.00  0.00    +0.163 A 
ATOM     10  C   UNL     1      -0.716  -3.514  -0.101  0.00  0.00    +0.049 A 
ATOM     11  C   UNL     1       0.301  -4.238   0.493  0.00  0.00    +0.004 A 
ATOM     12  C   UNL     1       1.423  -3.590   0.977  0.00  0.00    +0.004 A 
ATOM     13  C   UNL     1       1.530  -2.216   0.869  0.00  0.00    +0.049 A 
ATOM     14  C   UNL     1       0.512  -1.484   0.276  0.00  0.00    +0.163 A 
ATOM     15  O   UNL     1       0.629  -0.131   0.185  0.00  0.00    -0.481 OA
ENDBRANCH   1   7
BRANCH   3  16
ATOM     16  C   UNL     1      -2.781   1.758   2.634  0.00  0.00    +0.115 C 
BRANCH  16  17
ATOM     17  C   UNL     1      -2.972   3.263   2.830  0.00  0.00    +0.011 C 
ATOM     18  C   UNL     1      -4.206   3.723   3.609  0.00  0.00    +0.014 C 
ATOM     19  C   UNL     1      -4.136   3.929   2.095  0.00  0.00    +0.014 C 
BRANCH  17  20
ATOM     20  C   UNL     1      -1.705   4.063   2.997  0.00  0.00    -0.040 A 
ATOM     21  C   UNL     1      -0.907   3.869   4.108  0.00  0.00    +0.007 A 
ATOM     22  C   UNL     1       0.255   4.601   4.262  0.00  0.00    +0.038 A 
ATOM     23  C   UNL     1       0.620   5.529   3.301  0.00  0.00    +0.123 A 
ATOM     24  C   UNL     1      -0.181   5.723   2.188  0.00  0.00    +0.038 A 
ATOM     25  C   UNL     1      -1.340   4.985   2.034  0.00  0.00    +0.007 A 
ATOM     26  F   UNL     1       1.755   6.246   3.450  0.00  0.00    -0.205 F 
ENDBRANCH  17  20
ENDBRANCH  16  17
ENDBRANCH   3  16
TORSDOF 4
