REMARK  Name = ZINC03572821
REMARK  4 active torsions:
REMARK  status: ('A' for Active; 'I' for Inactive)
REMARK    1  A    between atoms: C_1  and  C_2
REMARK    2  A    between atoms: C_2  and  C_16
REMARK    3  A    between atoms: N_5  and  C_9
REMARK    4  A    between atoms: C_9  and  C_10
REMARK                            x       y       z     vdW  Elec       q    Type
REMARK                         _______ _______ _______ _____ _____    ______ ____
ROOT
ATOM      1  C   UNL     1       1.555   2.654  -1.248  0.00  0.00    +0.047 C 
ATOM      2  C   UNL     1       1.437   1.773  -0.002  0.00  0.00    +0.136 C 
ATOM      3  C   UNL     1       0.153   0.969  -0.036  0.00  0.00    +0.251 C 
ATOM      4  O   UNL     1      -0.980   1.400  -0.057  0.00  0.00    -0.272 OA
ATOM      5  N   UNL     1       0.532  -0.324  -0.045  0.00  0.00    -0.215 N 
ATOM      6  C   UNL     1       1.864  -0.448  -0.021  0.00  0.00    +0.310 C 
ATOM      7  O   UNL     1       2.444  -1.516  -0.024  0.00  0.00    -0.252 OA
ATOM      8  N   UNL     1       2.490   0.743   0.005  0.00  0.00    -0.281 N 
ATOM      9  H   UNL     1       3.448   0.893   0.025  0.00  0.00    +0.152 HD
ENDROOT
BRANCH   2  10
ATOM     10  C   UNL     1       1.506   2.610   1.249  0.00  0.00    -0.008 A 
ATOM     11  C   UNL     1       2.489   2.392   2.165  0.00  0.00    +0.007 A 
ATOM     12  C   UNL     1       2.568   3.155   3.328  0.00  0.00    +0.001 A 
ATOM     13  C   UNL     1       1.666   4.142   3.582  0.00  0.00    +0.008 A 
ATOM     14  C   UNL     1       0.637   4.397   2.659  0.00  0.00    -0.018 A 
ATOM     15  C   UNL     1       0.559   3.623   1.474  0.00  0.00    -0.012 A 
ATOM     16  C   UNL     1      -0.473   3.874   0.554  0.00  0.00    +0.009 A 
ATOM     17  C   UNL     1      -1.376   4.861   0.807  0.00  0.00    +0.001 A 
ATOM     18  C   UNL     1      -1.296   5.625   1.970  0.00  0.00    +0.001 A 
ATOM     19  C   UNL     1      -0.314   5.407   2.886  0.00  0.00    +0.008 A 
ENDBRANCH   2  10
BRANCH   5  20
ATOM     20  C   UNL     1      -0.399  -1.454  -0.076  0.00  0.00    +0.214 C 
BRANCH  20  21
ATOM     21  C   UNL     1      -0.692  -1.825  -1.507  0.00  0.00    +0.238 C 
ATOM     22  O   UNL     1      -0.175  -1.206  -2.412  0.00  0.00    -0.274 OA
ATOM     23  N   UNL     1      -1.530  -2.845  -1.781  0.00  0.00    -0.239 N 
ATOM     24  C   UNL     1      -1.792  -3.176  -3.061  0.00  0.00    +0.303 C 
ATOM     25  O   UNL     1      -1.273  -2.555  -3.968  0.00  0.00    -0.253 OA
ATOM     26  N   UNL     1      -2.630  -4.195  -3.335  0.00  0.00    -0.313 N 
ATOM     27  H   UNL     1      -1.944  -3.340  -1.058  0.00  0.00    +0.159 HD
ATOM     28  H   UNL     1      -3.044  -4.691  -2.611  0.00  0.00    +0.146 HD
ATOM     29  H   UNL     1      -2.818  -4.434  -4.256  0.00  0.00    +0.146 HD
ENDBRANCH  20  21
ENDBRANCH   5  20
TORSDOF 3
