REMARK  Name = ZINC61070820
REMARK  7 active torsions:
REMARK  status: ('A' for Active; 'I' for Inactive)
REMARK    1  A    between atoms: C_1  and  C_2
REMARK    2  A    between atoms: C_2  and  C_3
REMARK    3  A    between atoms: C_2  and  N_12
REMARK    4  A    between atoms: C_13  and  C_15
REMARK    5  A    between atoms: C_15  and  S_16
REMARK    6  A    between atoms: S_16  and  C_17
REMARK    7  A    between atoms: C_17  and  C_18
REMARK                            x       y       z     vdW  Elec       q    Type
REMARK                         _______ _______ _______ _____ _____    ______ ____
ROOT
ATOM      1  N   UNL     1       0.711  -0.489   1.189  0.00  0.00    -0.305 N 
ATOM      2  C   UNL     1       0.051  -0.633   2.355  0.00  0.00    +0.223 C 
ATOM      3  O   UNL     1      -1.129  -0.361   2.423  0.00  0.00    -0.275 OA
ATOM      4  H   UNL     1       1.654  -0.707   1.135  0.00  0.00    +0.149 HD
ENDROOT
BRANCH   1   6
ATOM      5  C   UNL     1      -0.019   1.526   0.010  0.00  0.00    +0.036 C 
ATOM      6  C   UNL     1       0.002  -0.004   0.002  0.00  0.00    +0.136 C 
BRANCH   6   7
ATOM      7  C   UNL     1       0.707  -0.490  -1.238  0.00  0.00    +0.126 A 
ATOM      8  C   UNL     1       0.096  -0.923  -2.349  0.00  0.00    +0.055 A 
ATOM      9  C   UNL     1       1.163  -1.291  -3.287  0.00  0.00    +0.020 A 
ATOM     10  C   UNL     1       1.188  -1.799  -4.585  0.00  0.00    +0.011 A 
ATOM     11  C   UNL     1       2.387  -2.040  -5.196  0.00  0.00    +0.001 A 
ATOM     12  C   UNL     1       3.578  -1.783  -4.531  0.00  0.00    +0.004 A 
ATOM     13  C   UNL     1       3.573  -1.281  -3.248  0.00  0.00    +0.047 A 
ATOM     14  C   UNL     1       2.365  -1.028  -2.609  0.00  0.00    +0.135 A 
ATOM     15  O   UNL     1       2.042  -0.547  -1.392  0.00  0.00    -0.458 OA
ENDBRANCH   6   7
ENDBRANCH   1   6
BRANCH   2  16
ATOM     16  C   UNL     1       0.780  -1.133   3.576  0.00  0.00    +0.165 C 
BRANCH  16  17
ATOM     17  S   UNL     1      -0.371  -1.217   4.976  0.00  0.00    -0.144 S 
BRANCH  17  18
ATOM     18  C   UNL     1       0.648  -1.827   6.346  0.00  0.00    +0.143 C 
BRANCH  18  19
ATOM     19  C   UNL     1      -0.198  -1.945   7.588  0.00  0.00    +0.118 A 
ATOM     20  N   UNL     1      -0.382  -0.955   8.502  0.00  0.00    -0.341 N 
ATOM     21  H   UNL     1       0.001  -0.064   8.471  0.00  0.00    +0.167 HD
ATOM     22  C   UNL     1      -1.216  -1.452   9.484  0.00  0.00    +0.066 A 
ATOM     23  C   UNL     1      -1.754  -0.929  10.652  0.00  0.00    +0.028 A 
ATOM     24  C   UNL     1      -2.576  -1.711  11.435  0.00  0.00    +0.002 A 
ATOM     25  C   UNL     1      -2.869  -3.016  11.063  0.00  0.00    +0.002 A 
ATOM     26  C   UNL     1      -2.348  -3.547   9.918  0.00  0.00    +0.030 A 
ATOM     27  C   UNL     1      -1.513  -2.773   9.108  0.00  0.00    +0.089 A 
ATOM     28  N   UNL     1      -0.863  -3.007   7.938  0.00  0.00    -0.232 NA
ENDBRANCH  18  19
ENDBRANCH  17  18
ENDBRANCH  16  17
ENDBRANCH   2  16
TORSDOF 6
