REMARK  Name = ZINC06143040
REMARK  10 active torsions:
REMARK  status: ('A' for Active; 'I' for Inactive)
REMARK    1  A    between atoms: C_1  and  C_2
REMARK    2  A    between atoms: C_2  and  O_3
REMARK    3  A    between atoms: O_3  and  C_4
REMARK    4  A    between atoms: C_4  and  C_6
REMARK    5  A    between atoms: C_9  and  S_12
REMARK    6  A    between atoms: S_12  and  N_15
REMARK    7  A    between atoms: N_15  and  C_16
REMARK    8  A    between atoms: C_17  and  C_25
REMARK    9  A    between atoms: N_27  and  C_28
REMARK   10  A    between atoms: C_28  and  C_29
REMARK                            x       y       z     vdW  Elec       q    Type
REMARK                         _______ _______ _______ _____ _____    ______ ____
ROOT
ATOM      1  C   UNL     1       2.407   1.156  -0.015  0.00  0.00    +0.098 A 
ATOM      2  C   UNL     1       1.291   1.983   0.000  0.00  0.00    +0.070 A 
ATOM      3  C   UNL     1      -0.016   1.345   0.009  0.00  0.00    -0.023 A 
ATOM      4  C   UNL     1       0.002  -0.004   0.002  0.00  0.00    -0.004 A 
ATOM      5  S   UNL     1       1.719  -0.434  -0.017  0.00  0.00    -0.076 S 
ATOM      6  C   UNL     1      -1.180  -0.924   0.009  0.00  0.00    +0.043 C 
ATOM      7  C   UNL     1      -2.422  -0.112   0.405  0.00  0.00    +0.005 C 
ATOM      8  C   UNL     1      -2.454   1.175  -0.425  0.00  0.00    +0.005 C 
ATOM      9  C   UNL     1      -1.333   2.113   0.020  0.00  0.00    +0.037 C 
ENDROOT
BRANCH   2  10
ATOM     10  C   UNL     1       1.425   3.441   0.007  0.00  0.00    +0.247 C 
ATOM     11  O   UNL     1       1.491   4.042   1.064  0.00  0.00    -0.270 OA
ATOM     12  N   UNL     1       1.476   4.118  -1.157  0.00  0.00    -0.309 N 
ATOM     13  H   UNL     1       1.423   3.640  -2.000  0.00  0.00    +0.149 HD
BRANCH  12  14
ATOM     14  C   UNL     1       1.611   5.577  -1.151  0.00  0.00    +0.136 C 
BRANCH  14  15
ATOM     15  C   UNL     1       1.644   6.093  -2.591  0.00  0.00    +0.135 C 
ATOM     16  C   UNL     1       1.911   7.614  -2.612  0.00  0.00    +0.035 C 
ATOM     17  C   UNL     1       1.035   8.133  -3.774  0.00  0.00    +0.031 C 
ATOM     18  C   UNL     1       0.343   6.864  -4.318  0.00  0.00    +0.160 C 
ATOM     19  O   UNL     1       0.349   5.937  -3.211  0.00  0.00    -0.375 OA
ENDBRANCH  14  15
ENDBRANCH  12  14
ENDBRANCH   2  10
BRANCH   1  20
ATOM     20  N   UNL     1       3.741   1.515  -0.027  0.00  0.00    -0.209 N 
ATOM     21  H   UNL     1       3.992   2.452  -0.024  0.00  0.00    +0.174 HD
BRANCH  20  22
ATOM     22  S   UNL     1       4.913   0.345  -0.045  0.00  0.00    +0.073 S 
ATOM     23  O   UNL     1       6.162   1.022  -0.081  0.00  0.00    -0.150 OA
ATOM     24  O   UNL     1       4.578  -0.582   0.979  0.00  0.00    -0.150 OA
BRANCH  22  28
ATOM     25  C   UNL     1       4.529  -1.875  -3.976  0.00  0.00    +0.059 A 
ATOM     26  C   UNL     1       5.356  -0.755  -3.882  0.00  0.00    +0.017 A 
ATOM     27  C   UNL     1       5.469  -0.083  -2.682  0.00  0.00    +0.029 A 
ATOM     28  C   UNL     1       4.764  -0.518  -1.573  0.00  0.00    +0.109 A 
ATOM     29  C   UNL     1       3.946  -1.632  -1.659  0.00  0.00    +0.029 A 
ATOM     30  C   UNL     1       3.820  -2.309  -2.854  0.00  0.00    +0.017 A 
BRANCH  25  31
ATOM     31  C   UNL     1       4.404  -2.599  -5.258  0.00  0.00    +0.339 C 
ATOM     32  O   UNL     1       5.022  -2.220  -6.232  0.00  0.00    -0.245 OA
BRANCH  31  33
ATOM     33  O   UNL     1       3.605  -3.680  -5.346  0.00  0.00    -0.461 OA
BRANCH  33  35
ATOM     34  C   UNL     1       2.582  -5.538  -6.542  0.00  0.00    +0.048 C 
ATOM     35  C   UNL     1       3.531  -4.342  -6.636  0.00  0.00    +0.229 C 
ENDBRANCH  33  35
ENDBRANCH  31  33
ENDBRANCH  25  31
ENDBRANCH  22  28
ENDBRANCH  20  22
ENDBRANCH   1  20
TORSDOF 9
