REMARK  Name = ZINC14269963
REMARK  6 active torsions:
REMARK  status: ('A' for Active; 'I' for Inactive)
REMARK    1  A    between atoms: C_3  and  C_6
REMARK    2  A    between atoms: C_6  and  C_8
REMARK    3  A    between atoms: C_6  and  N_21
REMARK    4  A    between atoms: C_8  and  C_9
REMARK    5  A    between atoms: N_11  and  C_12
REMARK    6  A    between atoms: C_12  and  C_13
REMARK                            x       y       z     vdW  Elec       q    Type
REMARK                         _______ _______ _______ _____ _____    ______ ____
ROOT
ATOM      1  C   UNL     1       2.552   3.919   1.419  0.00  0.00    +0.123 C 
ENDROOT
BRANCH   1   2
ATOM      2  C   UNL     1       3.412   5.157   1.440  0.00  0.00    +0.215 C 
ATOM      3  O   UNL     1       3.930   5.553   0.418  0.00  0.00    -0.276 OA
ATOM      4  N   UNL     1       3.604   5.824   2.595  0.00  0.00    -0.311 N 
ATOM      5  H   UNL     1       3.189   5.508   3.413  0.00  0.00    +0.149 HD
BRANCH   4   6
ATOM      6  C   UNL     1       4.440   7.027   2.616  0.00  0.00    +0.141 C 
BRANCH   6   7
ATOM      7  C   UNL     1       4.492   7.578   4.018  0.00  0.00    -0.012 A 
ATOM      8  C   UNL     1       5.631   7.410   4.784  0.00  0.00    +0.008 A 
ATOM      9  C   UNL     1       5.680   7.916   6.069  0.00  0.00    +0.020 A 
ATOM     10  C   UNL     1       4.590   8.590   6.590  0.00  0.00    +0.042 A 
ATOM     11  C   UNL     1       3.450   8.758   5.824  0.00  0.00    +0.040 A 
ATOM     12  C   UNL     1       3.404   8.257   4.535  0.00  0.00    +0.047 A 
ATOM     13 CL   UNL     1       1.977   8.473   3.571  0.00  0.00    -0.083 Cl
ATOM     14 CL   UNL     1       4.652   9.224   8.205  0.00  0.00    -0.083 Cl
ENDBRANCH   6   7
ENDBRANCH   4   6
ENDBRANCH   1   2
BRANCH   1  15
ATOM     15  C   UNL     1       2.498   3.360  -0.004  0.00  0.00    +0.120 C 
BRANCH  15  16
ATOM     16  N   UNL     1       1.820   4.318  -0.880  0.00  0.00    -0.292 N 
ATOM     17  C   UNL     1       0.547   4.681  -0.625  0.00  0.00    +0.298 C 
ATOM     18  O   UNL     1      -0.038   4.213   0.333  0.00  0.00    -0.253 OA
ATOM     19  N   UNL     1      -0.077   5.562  -1.431  0.00  0.00    -0.313 N 
ATOM     20  H   UNL     1       2.287   4.692  -1.644  0.00  0.00    +0.151 HD
ATOM     21  H   UNL     1       0.390   5.936  -2.195  0.00  0.00    +0.146 HD
ATOM     22  H   UNL     1      -0.993   5.824  -1.247  0.00  0.00    +0.146 HD
ENDBRANCH  15  16
BRANCH  15  25
ATOM     23  C   UNL     1       1.332  -0.266  -0.012  0.00  0.00    +0.008 A 
ATOM     24  C   UNL     1       2.223   0.790  -0.015  0.00  0.00    +0.013 A 
ATOM     25  C   UNL     1       1.742   2.057  -0.004  0.00  0.00    +0.010 A 
ATOM     26  S   UNL     1      -0.022   1.781   0.012  0.00  0.00    -0.100 S 
ATOM     27  C   UNL     1       0.002  -0.004   0.002  0.00  0.00    +0.045 A 
ENDBRANCH  15  25
ENDBRANCH   1  15
TORSDOF 6
