REMARK  Name = ZINC31054898
REMARK  7 active torsions:
REMARK  status: ('A' for Active; 'I' for Inactive)
REMARK    1  A    between atoms: C_3  and  C_9
REMARK    2  A    between atoms: C_11  and  C_14
REMARK    3  A    between atoms: C_14  and  N_15
REMARK    4  A    between atoms: C_19  and  C_22
REMARK    5  A    between atoms: N_24  and  C_25
REMARK    6  A    between atoms: C_25  and  C_26
REMARK    7  A    between atoms: C_26  and  C_27
REMARK                            x       y       z     vdW  Elec       q    Type
REMARK                         _______ _______ _______ _____ _____    ______ ____
ROOT
ATOM      1  N   UNL     1      -1.645   2.503  -1.361  0.00  0.00    +0.386 N 
ATOM      2  C   UNL     1      -0.632   3.316  -2.046  0.00  0.00    -0.078 C 
ATOM      3  C   UNL     1      -1.016   3.478  -3.518  0.00  0.00    -0.018 C 
ATOM      4  C   UNL     1      -2.387   4.153  -3.612  0.00  0.00    +0.009 C 
ATOM      5  C   UNL     1      -3.415   3.312  -2.850  0.00  0.00    +0.058 C 
ATOM      6  C   UNL     1      -2.961   3.155  -1.397  0.00  0.00    -0.065 C 
ATOM      7  H   UNL     1      -1.729   1.548  -1.900  0.00  0.00    -0.081 HD
ENDROOT
BRANCH   5   8
ATOM      8  C   UNL     1      -4.755   3.999  -2.888  0.00  0.00    +0.214 C 
ATOM      9  O   UNL     1      -5.295   4.331  -1.854  0.00  0.00    -0.276 OA
ATOM     10  N   UNL     1      -5.354   4.245  -4.070  0.00  0.00    -0.315 N 
ATOM     11  H   UNL     1      -4.864   3.944  -5.008  0.00  0.00    +0.149 HD
BRANCH  10  12
ATOM     12  C   UNL     1      -6.657   4.914  -4.106  0.00  0.00    +0.108 C 
BRANCH  12  13
ATOM     13  C   UNL     1      -7.109   5.071  -5.559  0.00  0.00    +0.049 C 
BRANCH  13  14
ATOM     14  C   UNL     1      -8.450   5.758  -5.597  0.00  0.00    -0.072 C 
ATOM     15  C   UNL     1      -8.469   7.042  -5.764  0.00  0.00    -0.028 C 
ATOM     16  C   UNL     1      -9.723   7.864  -5.813  0.00  0.00    +0.027 C 
ATOM     17  C   UNL     1     -10.934   6.964  -6.065  0.00  0.00    +0.004 C 
ATOM     18  C   UNL     1     -10.880   5.790  -5.079  0.00  0.00    +0.005 C 
ATOM     19  C   UNL     1      -9.679   4.912  -5.444  0.00  0.00    +0.030 C 
ENDBRANCH  13  14
ENDBRANCH  12  13
ENDBRANCH  10  12
ENDBRANCH   5   8
BRANCH   1  20
ATOM     20  C   UNL     1      -1.240   2.211   0.020  0.00  0.00    +0.022 C 
BRANCH  20  23
ATOM     21  C   UNL     1       1.976   0.607  -0.013  0.00  0.00    +0.203 A 
ATOM     22  N   UNL     1       1.230   1.735  -0.000  0.00  0.00    -0.193 NA
ATOM     23  C   UNL     1      -0.016   1.333   0.009  0.00  0.00    +0.211 A 
ATOM     24  O   UNL     1       0.002  -0.004   0.002  0.00  0.00    -0.340 OA
ATOM     25  N   UNL     1       1.147  -0.404  -0.011  0.00  0.00    -0.056 NA
BRANCH  21  28
ATOM     26  C   UNL     1       5.473  -0.773  -0.052  0.00  0.00    +0.021 A 
ATOM     27  C   UNL     1       4.094  -0.708  -0.039  0.00  0.00    +0.014 A 
ATOM     28  C   UNL     1       3.458   0.532  -0.028  0.00  0.00    +0.041 A 
ATOM     29  C   UNL     1       4.218   1.701  -0.035  0.00  0.00    +0.053 A 
ATOM     30  C   UNL     1       5.597   1.624  -0.043  0.00  0.00    +0.040 A 
ATOM     31  C   UNL     1       6.224   0.390  -0.054  0.00  0.00    +0.042 A 
ATOM     32 CL   UNL     1       7.957   0.300  -0.071  0.00  0.00    -0.083 Cl
ATOM     33 CL   UNL     1       3.433   3.249  -0.028  0.00  0.00    -0.083 Cl
ENDBRANCH  21  28
ENDBRANCH  20  23
ENDBRANCH   1  20
TORSDOF 7
