REMARK  Name = ZINC17343295
REMARK  6 active torsions:
REMARK  status: ('A' for Active; 'I' for Inactive)
REMARK    1  A    between atoms: C_1  and  C_2
REMARK    2  A    between atoms: C_6  and  C_16
REMARK    3  A    between atoms: N_8  and  C_9
REMARK    4  A    between atoms: N_18  and  N_19
REMARK    5  A    between atoms: C_20  and  C_22
REMARK    6  A    between atoms: C_22  and  C_23
REMARK                            x       y       z     vdW  Elec       q    Type
REMARK                         _______ _______ _______ _____ _____    ______ ____
ROOT
ATOM      1  C   UNL     1       0.792  -4.098   0.183  0.00  0.00    +0.284 C 
ATOM      2  O   UNL     1       0.724  -4.792  -0.813  0.00  0.00    -0.267 OA
ATOM      3  N   UNL     1       1.232  -4.625   1.343  0.00  0.00    -0.229 N 
ATOM      4  H   UNL     1       1.286  -4.071   2.138  0.00  0.00    +0.173 HD
ENDROOT
BRANCH   1  10
ATOM      5  C   UNL     1      -0.704   1.408   0.130  0.00  0.00    +0.066 C 
ATOM      6  C   UNL     1      -0.329  -0.050   0.060  0.00  0.00    +0.044 A 
ATOM      7  C   UNL     1      -0.455  -0.717  -1.112  0.00  0.00    +0.076 A 
ATOM      8  C   UNL     1      -0.087  -2.087  -1.137  0.00  0.00    +0.213 A 
ATOM      9  O   UNL     1      -0.170  -2.750  -2.159  0.00  0.00    -0.285 OA
ATOM     10  C   UNL     1       0.394  -2.677   0.122  0.00  0.00    +0.194 A 
ATOM     11  N   UNL     1       0.463  -1.915   1.193  0.00  0.00    -0.158 NA
ATOM     12  N   UNL     1       0.125  -0.678   1.172  0.00  0.00    -0.236 N 
BRANCH  12  13
ATOM     13  C   UNL     1       0.230   0.059   2.356  0.00  0.00    +0.066 A 
ATOM     14  C   UNL     1       0.820   1.317   2.342  0.00  0.00    +0.029 A 
ATOM     15  C   UNL     1       0.917   2.045   3.512  0.00  0.00    +0.022 A 
ATOM     16  C   UNL     1       0.437   1.519   4.698  0.00  0.00    +0.041 A 
ATOM     17  C   UNL     1      -0.147   0.264   4.715  0.00  0.00    +0.022 A 
ATOM     18  C   UNL     1      -0.251  -0.467   3.548  0.00  0.00    +0.029 A 
ATOM     19 CL   UNL     1       0.567   2.433   6.168  0.00  0.00    -0.084 Cl
ENDBRANCH  12  13
ENDBRANCH   1  10
BRANCH   3  20
ATOM     20  N   UNL     1       1.610  -5.973   1.401  0.00  0.00    -0.234 N 
ATOM     21  C   UNL     1       2.049  -6.500   2.561  0.00  0.00    +0.230 C 
ATOM     22  O   UNL     1       2.117  -5.808   3.555  0.00  0.00    -0.274 OA
ATOM     23  H   UNL     1       1.555  -6.526   0.607  0.00  0.00    +0.173 HD
BRANCH  21  24
ATOM     24  C   UNL     1       2.455  -7.950   2.624  0.00  0.00    +0.104 C 
BRANCH  24  25
ATOM     25  C   UNL     1       2.911  -8.291   4.044  0.00  0.00    -0.020 C 
ATOM     26  C   UNL     1       4.103  -7.410   4.422  0.00  0.00    +0.011 C 
ATOM     27  C   UNL     1       4.559  -7.752   5.843  0.00  0.00    -0.010 C 
ATOM     28  C   UNL     1       4.972  -9.223   5.906  0.00  0.00    +0.007 C 
ATOM     29  C   UNL     1       3.779 -10.104   5.527  0.00  0.00    -0.010 C 
ATOM     30  C   UNL     1       3.324  -9.763   4.107  0.00  0.00    +0.011 C 
ATOM     31  C   UNL     1       2.630  -9.854   6.506  0.00  0.00    +0.007 C 
ATOM     32  C   UNL     1       2.217  -8.382   6.442  0.00  0.00    -0.010 C 
ATOM     33  C   UNL     1       3.409  -7.502   6.821  0.00  0.00    +0.007 C 
ATOM     34  C   UNL     1       1.761  -8.041   5.022  0.00  0.00    +0.011 C 
ENDBRANCH  24  25
ENDBRANCH  21  24
ENDBRANCH   3  20
TORSDOF 5
