REMARK  Name = ZINC02090102
REMARK  8 active torsions:
REMARK  status: ('A' for Active; 'I' for Inactive)
REMARK    1  A    between atoms: C_1  and  C_2
REMARK    2  A    between atoms: C_2  and  C_7
REMARK    3  A    between atoms: N_9  and  C_10
REMARK    4  A    between atoms: C_11  and  C_24
REMARK    5  A    between atoms: C_16  and  C_20
REMARK    6  A    between atoms: C_20  and  C_21
REMARK    7  A    between atoms: C_20  and  C_22
REMARK    8  A    between atoms: C_20  and  C_23
REMARK                            x       y       z     vdW  Elec       q    Type
REMARK                         _______ _______ _______ _____ _____    ______ ____
ROOT
ATOM      1  C   UNL     1      -0.500  -2.623   0.138  0.00  0.00    +0.084 A 
ATOM      2  C   UNL     1       0.782  -2.229  -0.218  0.00  0.00    +0.068 A 
ATOM      3  C   UNL     1       1.051  -0.803  -0.292  0.00  0.00    -0.023 A 
ATOM      4  C   UNL     1       0.002  -0.004   0.002  0.00  0.00    -0.004 A 
ATOM      5  S   UNL     1      -1.325  -1.117   0.370  0.00  0.00    -0.077 S 
ATOM      6  C   UNL     1      -0.018   1.493   0.010  0.00  0.00    +0.046 C 
ATOM      7  C   UNL     1       1.433   1.997  -0.001  0.00  0.00    -0.000 C 
ATOM      8  C   UNL     1       2.207   1.245  -1.087  0.00  0.00    +0.009 C 
ATOM      9  C   UNL     1       2.404  -0.214  -0.670  0.00  0.00    +0.037 C 
ENDROOT
BRANCH   2  10
ATOM     10  C   UNL     1       1.826  -3.216  -0.511  0.00  0.00    +0.244 C 
ATOM     11  O   UNL     1       2.543  -3.626   0.383  0.00  0.00    -0.270 OA
ATOM     12  N   UNL     1       1.993  -3.668  -1.770  0.00  0.00    -0.325 N 
ATOM     13  H   UNL     1       1.421  -3.341  -2.482  0.00  0.00    +0.145 HD
ATOM     14  H   UNL     1       2.684  -4.320  -1.963  0.00  0.00    +0.145 HD
ENDBRANCH   2  10
BRANCH   1  17
ATOM     15  C   UNL     1      -2.285  -4.098   0.634  0.00  0.00    +0.226 C 
ATOM     16  O   UNL     1      -3.005  -3.143   0.836  0.00  0.00    -0.275 OA
ATOM     17  N   UNL     1      -0.999  -3.909   0.276  0.00  0.00    -0.279 N 
ATOM     18  H   UNL     1      -0.423  -4.672   0.115  0.00  0.00    +0.155 HD
BRANCH  15  20
ATOM     19  C   UNL     1      -1.838  -6.534   1.316  0.00  0.00    +0.023 C 
ATOM     20  C   UNL     1      -2.828  -5.495   0.784  0.00  0.00    +0.071 C 
ATOM     21  C   UNL     1      -4.295  -5.644   1.193  0.00  0.00    +0.048 C 
ATOM     22  C   UNL     1      -3.863  -5.965  -0.239  0.00  0.00    +0.096 C 
ATOM     23 BR   UNL     1      -4.384  -4.698  -1.650  0.00  0.00    -0.071 Br
ATOM     24 BR   UNL     1      -3.820  -7.857  -0.772  0.00  0.00    -0.071 Br
ENDBRANCH  15  20
ENDBRANCH   1  17
BRANCH   7  25
ATOM     25  C   UNL     1       1.452   3.497  -0.302  0.00  0.00    -0.035 C 
ATOM     26  C   UNL     1       0.663   4.244   0.774  0.00  0.00    +0.011 C 
ATOM     27  C   UNL     1       2.899   3.995  -0.313  0.00  0.00    +0.011 C 
ATOM     28  C   UNL     1       0.816   3.751  -1.670  0.00  0.00    +0.011 C 
ENDBRANCH   7  25
TORSDOF 4
