REMARK  Name = ZINC45937155
REMARK  7 active torsions:
REMARK  status: ('A' for Active; 'I' for Inactive)
REMARK    1  A    between atoms: C_1  and  C_2
REMARK    2  A    between atoms: C_6  and  N_9
REMARK    3  A    between atoms: C_7  and  C_8
REMARK    4  A    between atoms: C_11  and  C_16
REMARK    5  A    between atoms: N_18  and  C_19
REMARK    6  A    between atoms: N_22  and  C_25
REMARK    7  A    between atoms: C_25  and  C_26
REMARK                            x       y       z     vdW  Elec       q    Type
REMARK                         _______ _______ _______ _____ _____    ______ ____
ROOT
ATOM      1  C   UNL     1      -1.429  -4.240   5.399  0.00  0.00    +0.218 C 
ATOM      2  O   UNL     1      -2.292  -3.401   5.545  0.00  0.00    -0.275 OA
ATOM      3  N   UNL     1      -1.152  -5.102   6.397  0.00  0.00    -0.312 N 
ATOM      4  H   UNL     1      -0.461  -5.773   6.280  0.00  0.00    +0.149 HD
ENDROOT
BRANCH   3   5
ATOM      5  C   UNL     1      -1.893  -5.026   7.658  0.00  0.00    +0.069 C 
ATOM      6  C   UNL     1      -1.235  -3.993   8.578  0.00  0.00    +0.003 C 
ATOM      7  C   UNL     1      -1.966  -3.976   9.922  0.00  0.00    -0.076 C 
ATOM      8  N   UNL     1      -1.890  -5.304  10.542  0.00  0.00    +0.385 N 
ATOM      9  C   UNL     1      -2.582  -6.287   9.700  0.00  0.00    -0.076 C 
ATOM     10  C   UNL     1      -1.874  -6.394   8.347  0.00  0.00    +0.003 C 
ATOM     11  H   UNL     1      -0.922  -5.572  10.643  0.00  0.00    -0.081 HD
BRANCH   8  12
ATOM     12  C   UNL     1      -2.525  -5.262  11.866  0.00  0.00    +0.018 C 
BRANCH  12  13
ATOM     13  C   UNL     1      -2.340  -6.590  12.554  0.00  0.00    +0.194 C 
ATOM     14  O   UNL     1      -1.738  -7.483  11.996  0.00  0.00    -0.278 OA
ATOM     15  N   UNL     1      -2.843  -6.785  13.789  0.00  0.00    -0.331 N 
ATOM     16  H   UNL     1      -3.324  -6.071  14.235  0.00  0.00    +0.145 HD
ATOM     17  H   UNL     1      -2.724  -7.640  14.232  0.00  0.00    +0.145 HD
ENDBRANCH  12  13
ENDBRANCH   8  12
ENDBRANCH   3   5
BRANCH   1  20
ATOM     18  N   UNL     1       0.052  -2.797   2.393  0.00  0.00    -0.270 N 
ATOM     19  C   UNL     1      -1.150  -3.238   3.109  0.00  0.00    +0.127 C 
ATOM     20  C   UNL     1      -0.666  -4.318   4.102  0.00  0.00    +0.101 C 
ATOM     21  C   UNL     1       0.814  -3.919   4.304  0.00  0.00    +0.110 C 
ATOM     22  C   UNL     1       1.170  -3.167   3.041  0.00  0.00    +0.221 C 
ATOM     23  O   UNL     1       2.300  -2.929   2.669  0.00  0.00    -0.275 OA
BRANCH  18  29
ATOM     24  C   UNL     1      -0.018   1.503   0.010  0.00  0.00    +0.044 C 
ATOM     25  C   UNL     1       0.002  -0.004   0.002  0.00  0.00    -0.046 A 
ATOM     26  C   UNL     1       0.006  -0.688  -1.200  0.00  0.00    +0.004 A 
ATOM     27  C   UNL     1       0.025  -2.071  -1.212  0.00  0.00    +0.002 A 
ATOM     28  C   UNL     1       0.041  -2.773  -0.022  0.00  0.00    +0.024 A 
ATOM     29  C   UNL     1       0.037  -2.089   1.186  0.00  0.00    +0.039 A 
ATOM     30  C   UNL     1       0.023  -0.700   1.194  0.00  0.00    -0.026 A 
ATOM     31  C   UNL     1       0.025   0.046   2.504  0.00  0.00    +0.046 C 
ENDBRANCH  18  29
ENDBRANCH   1  20
TORSDOF 5
