REMARK  Name = ZINC58338025
REMARK  12 active torsions:
REMARK  status: ('A' for Active; 'I' for Inactive)
REMARK    1  A    between atoms: C_1  and  C_2
REMARK    2  A    between atoms: C_4  and  C_27
REMARK    3  A    between atoms: C_5  and  C_26
REMARK    4  A    between atoms: C_6  and  S_9
REMARK    5  A    between atoms: C_7  and  C_8
REMARK    6  A    between atoms: S_9  and  N_12
REMARK    7  A    between atoms: C_18  and  C_20
REMARK    8  A    between atoms: C_20  and  N_21
REMARK    9  A    between atoms: N_21  and  C_22
REMARK   10  A    between atoms: N_21  and  C_23
REMARK   11  A    between atoms: C_23  and  C_24
REMARK   12  A    between atoms: C_23  and  C_25
REMARK                            x       y       z     vdW  Elec       q    Type
REMARK                         _______ _______ _______ _____ _____    ______ ____
ROOT
ATOM      1  N   UNL     1       0.969  -2.871   3.551  0.00  0.00    -0.174 NA
ATOM      2  C   UNL     1       1.605  -4.193   3.466  0.00  0.00    +0.128 C 
ATOM      3  C   UNL     1       3.007  -4.025   2.867  0.00  0.00    +0.125 C 
ATOM      4  N   UNL     1       3.701  -2.951   3.591  0.00  0.00    -0.300 N 
ATOM      5  C   UNL     1       3.065  -1.629   3.677  0.00  0.00    +0.125 C 
ATOM      6  C   UNL     1       1.666  -1.795   4.271  0.00  0.00    +0.128 C 
ATOM      7  C   UNL     1       4.899  -3.174   4.167  0.00  0.00    +0.199 C 
ATOM      8  O   UNL     1       5.414  -4.270   4.090  0.00  0.00    -0.278 OA
ENDROOT
BRANCH   1   9
ATOM      9  S   UNL     1      -0.503  -2.596   2.844  0.00  0.00    +0.061 S 
ATOM     10  O   UNL     1      -1.100  -1.519   3.553  0.00  0.00    -0.153 OA
ATOM     11  O   UNL     1      -1.133  -3.863   2.712  0.00  0.00    -0.153 OA
BRANCH   9  17
ATOM     12  C   UNL     1       0.596  -3.438  -2.196  0.00  0.00    +0.044 C 
ATOM     13  C   UNL     1       0.310  -2.457  -1.088  0.00  0.00    -0.045 A 
ATOM     14  C   UNL     1       0.289  -1.101  -1.354  0.00  0.00    +0.007 A 
ATOM     15  C   UNL     1       0.027  -0.201  -0.338  0.00  0.00    -0.045 A 
ATOM     16  C   UNL     1      -0.215  -0.658   0.944  0.00  0.00    -0.021 A 
ATOM     17  C   UNL     1      -0.195  -2.014   1.210  0.00  0.00    +0.112 A 
ATOM     18  C   UNL     1       0.063  -2.914   0.193  0.00  0.00    -0.021 A 
ATOM     19  C   UNL     1       0.080  -4.393   0.481  0.00  0.00    +0.046 C 
ATOM     20  C   UNL     1      -0.500   0.323   2.052  0.00  0.00    +0.046 C 
ATOM     21  C   UNL     1       0.005   1.278  -0.628  0.00  0.00    +0.044 C 
ENDBRANCH   9  17
ENDBRANCH   1   9
BRANCH   7  22
ATOM     22  C   UNL     1       5.599  -2.063   4.906  0.00  0.00    +0.019 C 
BRANCH  22  23
ATOM     23  N   UNL     1       6.876  -2.557   5.437  0.00  0.00    +0.385 N 
ATOM     24  C   UNL     1       6.619  -3.593   6.446  0.00  0.00    -0.095 C 
ATOM     25  H   UNL     1       7.424  -2.948   4.685  0.00  0.00    -0.081 HD
BRANCH  23  26
ATOM     26  C   UNL     1       7.613  -1.445   6.053  0.00  0.00    -0.075 C 
ATOM     27  C   UNL     1       8.943  -1.960   6.606  0.00  0.00    -0.014 C 
ATOM     28  C   UNL     1       7.880  -0.366   5.003  0.00  0.00    -0.014 C 
ENDBRANCH  23  26
ENDBRANCH  22  23
ENDBRANCH   7  22
TORSDOF 5
