REMARK  Name = ZINC19997753
REMARK  13 active torsions:
REMARK  status: ('A' for Active; 'I' for Inactive)
REMARK    1  A    between atoms: C_1  and  N_2
REMARK    2  A    between atoms: N_2  and  C_3
REMARK    3  A    between atoms: N_2  and  C_4
REMARK    4  A    between atoms: C_4  and  C_5
REMARK    5  A    between atoms: C_5  and  C_6
REMARK    6  A    between atoms: C_6  and  N_7
REMARK    7  A    between atoms: N_7  and  C_8
REMARK    8  A    between atoms: N_12  and  C_26
REMARK    9  A    between atoms: N_15  and  C_18
REMARK   10  A    between atoms: C_23  and  O_24
REMARK   11  A    between atoms: O_24  and  C_25
REMARK   12  A    between atoms: C_31  and  O_32
REMARK   13  A    between atoms: O_32  and  C_33
REMARK                            x       y       z     vdW  Elec       q    Type
REMARK                         _______ _______ _______ _____ _____    ______ ____
ROOT
ATOM      1  C   UNL     1       4.853   5.349   2.302  0.00  0.00    +0.085 C 
ATOM      2  C   UNL     1       4.203   4.976   1.140  0.00  0.00    +0.113 C 
ATOM      3  C   UNL     1       4.734   5.338  -0.187  0.00  0.00    +0.263 C 
ATOM      4  O   UNL     1       5.763   5.977  -0.296  0.00  0.00    -0.269 OA
ATOM      5  N   UNL     1       4.047   4.940  -1.278  0.00  0.00    -0.213 N 
ATOM      6  C   UNL     1       2.911   4.236  -1.173  0.00  0.00    +0.158 C 
ATOM      7  S   UNL     1       2.107   3.775  -2.612  0.00  0.00    -0.017 S 
ATOM      8  N   UNL     1       2.372   3.873  -0.001  0.00  0.00    -0.213 N 
ATOM      9  C   UNL     1       2.948   4.206   1.173  0.00  0.00    +0.263 C 
ATOM     10  O   UNL     1       2.446   3.875   2.231  0.00  0.00    -0.269 OA
ENDROOT
BRANCH   8  11
ATOM     11  C   UNL     1       1.178   3.136   0.006  0.00  0.00    +0.085 A 
ATOM     12  C   UNL     1       1.217   1.750  -0.016  0.00  0.00    +0.027 A 
ATOM     13  C   UNL     1       0.040   1.026  -0.009  0.00  0.00    +0.002 A 
ATOM     14  C   UNL     1      -1.178   1.681   0.015  0.00  0.00    +0.004 A 
ATOM     15  C   UNL     1      -1.224   3.062   0.043  0.00  0.00    +0.047 A 
ATOM     16  C   UNL     1      -0.049   3.795   0.036  0.00  0.00    +0.142 A 
BRANCH  16  17
ATOM     17  O   UNL     1      -0.092   5.154   0.058  0.00  0.00    -0.493 OA
ATOM     18  C   UNL     1      -1.386   5.761   0.088  0.00  0.00    +0.277 C 
ENDBRANCH  16  17
ENDBRANCH   8  11
BRANCH   5  19
ATOM     19  C   UNL     1       4.532   5.272  -2.552  0.00  0.00    +0.085 A 
ATOM     20  C   UNL     1       4.137   6.455  -3.160  0.00  0.00    +0.027 A 
ATOM     21  C   UNL     1       4.619   6.782  -4.413  0.00  0.00    +0.002 A 
ATOM     22  C   UNL     1       5.488   5.928  -5.067  0.00  0.00    +0.004 A 
ATOM     23  C   UNL     1       5.882   4.745  -4.470  0.00  0.00    +0.047 A 
ATOM     24  C   UNL     1       5.406   4.412  -3.212  0.00  0.00    +0.142 A 
BRANCH  24  25
ATOM     25  O   UNL     1       5.793   3.250  -2.623  0.00  0.00    -0.493 OA
ATOM     26  C   UNL     1       6.692   2.417  -3.358  0.00  0.00    +0.277 C 
ENDBRANCH  24  25
ENDBRANCH   5  19
BRANCH   1  27
ATOM     27  N   UNL     1       4.280   5.113   3.499  0.00  0.00    -0.349 N 
ATOM     28  H   UNL     1       3.337   4.549   3.557  0.00  0.00    +0.146 HD
BRANCH  27  29
ATOM     29  C   UNL     1       4.913   5.607   4.724  0.00  0.00    +0.099 C 
BRANCH  29  30
ATOM     30  C   UNL     1       4.066   5.207   5.934  0.00  0.00    -0.000 C 
BRANCH  30  31
ATOM     31  C   UNL     1       4.727   5.723   7.213  0.00  0.00    -0.078 C 
BRANCH  31  33
ATOM     32  C   UNL     1       3.903   3.880   8.550  0.00  0.00    -0.097 C 
ATOM     33  N   UNL     1       3.914   5.339   8.374  0.00  0.00    +0.376 N 
ATOM     34  C   UNL     1       4.383   6.013   9.592  0.00  0.00    -0.097 C 
ATOM     35  H   UNL     1       2.880   5.664   8.185  0.00  0.00    -0.083 HD
ENDBRANCH  31  33
ENDBRANCH  30  31
ENDBRANCH  29  30
ENDBRANCH  27  29
ENDBRANCH   1  27
TORSDOF 9
