REMARK  Name = ZINC36550647
REMARK  13 active torsions:
REMARK  status: ('A' for Active; 'I' for Inactive)
REMARK    1  A    between atoms: C_1  and  C_2
REMARK    2  A    between atoms: C_2  and  C_3
REMARK    3  A    between atoms: C_3  and  C_4
REMARK    4  A    between atoms: C_4  and  C_5
REMARK    5  A    between atoms: N_7  and  C_8
REMARK    6  A    between atoms: N_7  and  C_15
REMARK    7  A    between atoms: C_15  and  C_17
REMARK    8  A    between atoms: C_15  and  C_24
REMARK    9  A    between atoms: C_20  and  O_23
REMARK   10  A    between atoms: N_26  and  C_27
REMARK   11  A    between atoms: C_27  and  S_28
REMARK   12  A    between atoms: S_28  and  C_31
REMARK   13  A    between atoms: C_34  and  C_37
REMARK                            x       y       z     vdW  Elec       q    Type
REMARK                         _______ _______ _______ _____ _____    ______ ____
ROOT
ATOM      1  C   UNL     1       2.316  -4.571  -4.099  0.00  0.00    +0.197 C 
ENDROOT
BRANCH   1   2
ATOM      2  C   UNL     1       0.850  -4.829  -3.866  0.00  0.00    -0.018 A 
ATOM      3  C   UNL     1       0.312  -4.669  -2.602  0.00  0.00    +0.009 A 
ATOM      4  C   UNL     1      -1.032  -4.905  -2.387  0.00  0.00    +0.046 A 
ATOM      5  C   UNL     1      -1.843  -5.302  -3.440  0.00  0.00    +0.117 A 
ATOM      6  C   UNL     1      -1.301  -5.461  -4.708  0.00  0.00    +0.046 A 
ATOM      7  C   UNL     1       0.042  -5.219  -4.919  0.00  0.00    +0.009 A 
BRANCH   5   8
ATOM      8  O   UNL     1      -3.165  -5.535  -3.231  0.00  0.00    -0.507 OA
ATOM      9  H   UNL     1      -3.726  -4.757  -3.352  0.00  0.00    +0.292 HD
ENDBRANCH   5   8
ENDBRANCH   1   2
BRANCH   1  10
ATOM     10  C   UNL     1       3.124  -5.691  -3.496  0.00  0.00    +0.240 C 
ATOM     11  O   UNL     1       3.301  -5.735  -2.297  0.00  0.00    -0.273 OA
ATOM     12  N   UNL     1       3.651  -6.644  -4.290  0.00  0.00    -0.294 N 
ATOM     13  H   UNL     1       3.510  -6.609  -5.249  0.00  0.00    +0.150 HD
BRANCH  12  14
ATOM     14  C   UNL     1       4.437  -7.733  -3.705  0.00  0.00    +0.278 C 
BRANCH  14  15
ATOM     15  S   UNL     1       3.365  -9.170  -3.425  0.00  0.00    +0.013 S 
ATOM     16  O   UNL     1       4.126 -10.256  -2.915  0.00  0.00    -0.168 OA
ATOM     17  O   UNL     1       2.162  -8.765  -2.785  0.00  0.00    -0.168 OA
BRANCH  15  18
ATOM     18  C   UNL     1       2.868  -9.685  -5.035  0.00  0.00    +0.090 A 
ATOM     19  C   UNL     1       1.724  -9.159  -5.605  0.00  0.00    +0.027 A 
ATOM     20  C   UNL     1       1.334  -9.563  -6.869  0.00  0.00    +0.005 A 
ATOM     21  C   UNL     1       2.088 -10.492  -7.561  0.00  0.00    -0.050 A 
ATOM     22  C   UNL     1       3.233 -11.017  -6.990  0.00  0.00    +0.005 A 
ATOM     23  C   UNL     1       3.625 -10.610  -5.729  0.00  0.00    +0.027 A 
ATOM     24  C   UNL     1       1.662 -10.933  -8.938  0.00  0.00    +0.044 C 
ENDBRANCH  15  18
ENDBRANCH  14  15
ENDBRANCH  12  14
ENDBRANCH   1  10
BRANCH   1  27
ATOM     25  C   UNL     1       2.101  -2.156  -3.856  0.00  0.00    +0.221 C 
ATOM     26  O   UNL     1       1.253  -2.174  -4.723  0.00  0.00    -0.275 OA
ATOM     27  N   UNL     1       2.695  -3.303  -3.470  0.00  0.00    -0.254 N 
BRANCH  27  28
ATOM     28  C   UNL     1       3.673  -3.283  -2.469  0.00  0.00    +0.056 A 
ATOM     29  C   UNL     1       3.314  -3.478  -1.142  0.00  0.00    +0.025 A 
ATOM     30  C   UNL     1       4.282  -3.458  -0.157  0.00  0.00    +0.002 A 
ATOM     31  C   UNL     1       5.607  -3.243  -0.490  0.00  0.00    +0.002 A 
ATOM     32  C   UNL     1       5.968  -3.047  -1.810  0.00  0.00    +0.022 A 
ATOM     33  C   UNL     1       5.005  -3.072  -2.802  0.00  0.00    +0.062 A 
ATOM     34 CL   UNL     1       5.460  -2.834  -4.460  0.00  0.00    -0.082 Cl
ENDBRANCH  27  28
BRANCH  25  35
ATOM     35  C   UNL     1       2.490  -0.852  -3.209  0.00  0.00    +0.096 C 
BRANCH  35  36
ATOM     36  C   UNL     1       1.673   0.286  -3.825  0.00  0.00    +0.009 C 
BRANCH  36  38
ATOM     37  C   UNL     1       1.252   2.748  -3.783  0.00  0.00    +0.004 C 
ATOM     38  C   UNL     1       2.069   1.611  -3.168  0.00  0.00    -0.003 C 
ENDBRANCH  36  38
ENDBRANCH  35  36
ENDBRANCH  25  35
ENDBRANCH   1  27
TORSDOF 11
