REMARK  Name = ZINC22570441
REMARK  11 active torsions:
REMARK  status: ('A' for Active; 'I' for Inactive)
REMARK    1  A    between atoms: C_1  and  C_2
REMARK    2  A    between atoms: C_5  and  C_33
REMARK    3  A    between atoms: N_8  and  C_10
REMARK    4  A    between atoms: C_13  and  C_19
REMARK    5  A    between atoms: C_15  and  N_16
REMARK    6  A    between atoms: C_19  and  O_21
REMARK    7  A    between atoms: O_21  and  C_22
REMARK    8  A    between atoms: C_22  and  C_24
REMARK    9  A    between atoms: C_22  and  C_27
REMARK   10  A    between atoms: C_24  and  C_25
REMARK   11  A    between atoms: C_24  and  C_26
REMARK                            x       y       z     vdW  Elec       q    Type
REMARK                         _______ _______ _______ _____ _____    ______ ____
ROOT
ATOM      1  C   UNL     1       1.780  -2.763   1.398  0.00  0.00    +0.060 A 
ATOM      2  C   UNL     1       2.440  -3.194   0.251  0.00  0.00    +0.026 A 
ATOM      3  C   UNL     1       3.562  -3.967   0.352  0.00  0.00    +0.017 A 
ATOM      4  C   UNL     1       4.052  -4.328   1.611  0.00  0.00    +0.061 A 
ATOM      5  C   UNL     1       3.391  -3.896   2.765  0.00  0.00    +0.049 A 
ATOM      6  C   UNL     1       2.264  -3.114   2.656  0.00  0.00    +0.148 A 
ENDROOT
BRANCH   1  12
ATOM      7  C   UNL     1      -0.019   1.526   0.010  0.00  0.00    +0.009 C 
ATOM      8  C   UNL     1       0.002  -0.004   0.002  0.00  0.00    +0.003 C 
ATOM      9  C   UNL     1      -1.433  -0.534   0.015  0.00  0.00    +0.009 C 
ATOM     10  C   UNL     1      -1.414  -2.064  -0.027  0.00  0.00    +0.003 C 
ATOM     11  C   UNL     1      -0.692  -2.596   1.215  0.00  0.00    +0.108 C 
ATOM     12  N   UNL     1       0.639  -1.977   1.288  0.00  0.00    -0.328 N 
ATOM     13  C   UNL     1       0.742  -0.512   1.244  0.00  0.00    +0.108 C 
ATOM     14  C   UNL     1      -2.850  -2.592  -0.049  0.00  0.00    +0.009 C 
ENDBRANCH   1  12
BRANCH   6  15
ATOM     15  N   UNL     1       1.564  -2.649   3.875  0.00  0.00    +0.058 N 
ATOM     16  O   UNL     1       1.984  -2.954   4.967  0.00  0.00    -0.126 OA
ATOM     17  O   UNL     1       0.571  -1.966   3.778  0.00  0.00    -0.126 OA
ENDBRANCH   6  15
BRANCH   4  18
ATOM     18  C   UNL     1       5.262  -5.162   1.721  0.00  0.00    +0.340 C 
ATOM     19  O   UNL     1       5.687  -5.475   2.816  0.00  0.00    -0.245 OA
BRANCH  18  20
ATOM     20  O   UNL     1       5.898  -5.577   0.608  0.00  0.00    -0.448 OA
BRANCH  20  21
ATOM     21  C   UNL     1       7.064  -6.383   0.789  0.00  0.00    +0.265 C 
BRANCH  21  22
ATOM     22  C   UNL     1       8.016  -6.153  -0.357  0.00  0.00    +0.261 C 
ATOM     23  O   UNL     1       7.724  -5.377  -1.241  0.00  0.00    -0.271 OA
ATOM     24  N   UNL     1       9.192  -6.811  -0.398  0.00  0.00    -0.237 N 
ATOM     25  C   UNL     1      10.043  -6.606  -1.423  0.00  0.00    +0.303 C 
ATOM     26  O   UNL     1       9.750  -5.827  -2.309  0.00  0.00    -0.253 OA
ATOM     27  N   UNL     1      11.218  -7.264  -1.465  0.00  0.00    -0.313 N 
ATOM     28  H   UNL     1       9.425  -7.433   0.309  0.00  0.00    +0.159 HD
ATOM     29  H   UNL     1      11.452  -7.885  -0.757  0.00  0.00    +0.146 HD
ATOM     30  H   UNL     1      11.831  -7.116  -2.202  0.00  0.00    +0.146 HD
ENDBRANCH  21  22
BRANCH  21  31
ATOM     31  C   UNL     1       6.663  -7.859   0.831  0.00  0.00    +0.033 C 
ATOM     32  C   UNL     1       5.697  -8.092   1.994  0.00  0.00    +0.011 C 
ATOM     33  C   UNL     1       5.980  -8.239  -0.484  0.00  0.00    +0.011 C 
ENDBRANCH  21  31
ENDBRANCH  20  21
ENDBRANCH  18  20
ENDBRANCH   4  18
TORSDOF 7
