REMARK  Name = ZINC14667975
REMARK  12 active torsions:
REMARK  status: ('A' for Active; 'I' for Inactive)
REMARK    1  A    between atoms: C_1  and  C_2
REMARK    2  A    between atoms: C_5  and  N_9
REMARK    3  A    between atoms: C_6  and  C_8
REMARK    4  A    between atoms: C_10  and  C_12
REMARK    5  A    between atoms: C_12  and  C_13
REMARK    6  A    between atoms: C_13  and  C_14
REMARK    7  A    between atoms: N_16  and  N_17
REMARK    8  A    between atoms: C_18  and  C_20
REMARK    9  A    between atoms: C_25  and  O_26
REMARK   10  A    between atoms: O_26  and  C_27
REMARK   11  A    between atoms: C_27  and  C_28
REMARK   12  A    between atoms: C_27  and  C_29
REMARK                            x       y       z     vdW  Elec       q    Type
REMARK                         _______ _______ _______ _____ _____    ______ ____
ROOT
ATOM      1  C   UNL     1      -6.199  -0.759   0.798  0.00  0.00    +0.230 C 
ATOM      2  O   UNL     1      -5.957  -1.947   0.829  0.00  0.00    -0.274 OA
ATOM      3  N   UNL     1      -5.193   0.130   0.678  0.00  0.00    -0.234 N 
ATOM      4  H   UNL     1      -5.386   1.080   0.654  0.00  0.00    +0.173 HD
ENDROOT
BRANCH   3   5
ATOM      5  N   UNL     1      -3.868  -0.319   0.590  0.00  0.00    -0.230 N 
ATOM      6  C   UNL     1      -2.862   0.570   0.471  0.00  0.00    +0.264 C 
ATOM      7  O   UNL     1      -3.104   1.762   0.440  0.00  0.00    -0.269 OA
ATOM      8  H   UNL     1      -3.675  -1.269   0.615  0.00  0.00    +0.173 HD
BRANCH   6   9
ATOM      9  C   UNL     1      -1.468   0.098   0.378  0.00  0.00    +0.081 A 
ATOM     10  C   UNL     1      -1.186  -1.270   0.407  0.00  0.00    +0.032 A 
ATOM     11  C   UNL     1       0.120  -1.704   0.327  0.00  0.00    +0.019 A 
ATOM     12  C   UNL     1       1.155  -0.789   0.210  0.00  0.00    +0.019 A 
ATOM     13  C   UNL     1       0.889   0.565   0.173  0.00  0.00    +0.047 A 
ATOM     14  C   UNL     1      -0.419   1.019   0.254  0.00  0.00    +0.133 A 
ATOM     15 BR   UNL     1       0.501  -3.556   0.376  0.00  0.00    -0.050 Br
BRANCH  14  16
ATOM     16  O   UNL     1      -0.681   2.350   0.218  0.00  0.00    -0.489 OA
BRANCH  16  17
ATOM     17  C   UNL     1       0.443   3.232   0.193  0.00  0.00    +0.167 C 
ATOM     18  C   UNL     1       0.029   4.567  -0.429  0.00  0.00    +0.051 C 
ATOM     19  C   UNL     1       0.939   3.466   1.621  0.00  0.00    +0.051 C 
ENDBRANCH  16  17
ENDBRANCH  14  16
ENDBRANCH   6   9
ENDBRANCH   3   5
BRANCH   1  20
ATOM     20  C   UNL     1      -7.623  -0.277   0.893  0.00  0.00    +0.106 C 
BRANCH  20  21
ATOM     21  C   UNL     1      -8.561  -1.479   1.020  0.00  0.00    +0.105 C 
BRANCH  21  23
ATOM     22  N   UNL     1     -10.992  -1.885   1.234  0.00  0.00    -0.285 N 
ATOM     23  C   UNL     1      -9.986  -0.996   1.115  0.00  0.00    +0.218 C 
ATOM     24  O   UNL     1     -10.227   0.192   1.084  0.00  0.00    -0.275 OA
ATOM     25  H   UNL     1     -10.795  -2.832   1.319  0.00  0.00    +0.155 HD
BRANCH  22  30
ATOM     26  C   UNL     1     -16.375  -0.094   1.242  0.00  0.00    +0.044 C 
ATOM     27  C   UNL     1     -14.945  -0.570   1.240  0.00  0.00    -0.050 A 
ATOM     28  C   UNL     1     -13.957   0.210   1.814  0.00  0.00    +0.005 A 
ATOM     29  C   UNL     1     -12.646  -0.223   1.814  0.00  0.00    +0.024 A 
ATOM     30  C   UNL     1     -12.319  -1.444   1.236  0.00  0.00    +0.036 A 
ATOM     31  C   UNL     1     -13.312  -2.221   0.656  0.00  0.00    -0.029 A 
ATOM     32  C   UNL     1     -14.623  -1.785   0.664  0.00  0.00    +0.008 A 
ATOM     33  C   UNL     1     -12.962  -3.543   0.022  0.00  0.00    +0.045 C 
ENDBRANCH  22  30
ENDBRANCH  21  23
ENDBRANCH  20  21
ENDBRANCH   1  20
TORSDOF 8
