REMARK  Name = ZINC38008938
REMARK  4 active torsions:
REMARK  status: ('A' for Active; 'I' for Inactive)
REMARK    1  A    between atoms: C_6  and  N_7
REMARK    2  A    between atoms: N_7  and  S_8
REMARK    3  A    between atoms: S_8  and  C_11
REMARK    4  A    between atoms: N_17  and  N_18
REMARK                            x       y       z     vdW  Elec       q    Type
REMARK                         _______ _______ _______ _____ _____    ______ ____
ROOT
ATOM      1  C   UNL     1      -2.849  -2.922   0.015  0.00  0.00    +0.115 A 
ATOM      2  C   UNL     1      -3.514  -3.143   1.214  0.00  0.00    +0.046 A 
ATOM      3  C   UNL     1      -4.826  -3.570   1.190  0.00  0.00    +0.086 A 
ATOM      4  N   UNL     1      -5.452  -3.769   0.046  0.00  0.00    -0.349 N 
ATOM      5  C   UNL     1      -4.853  -3.570  -1.117  0.00  0.00    +0.112 A 
ATOM      6  C   UNL     1      -3.533  -3.135  -1.168  0.00  0.00    +0.071 A 
ATOM      7  N   UNL     1      -5.551  -3.793  -2.299  0.00  0.00    -0.269 N 
ATOM      8  H   UNL     1      -5.116  -3.649  -3.154  0.00  0.00    +0.167 HD
ATOM      9  H   UNL     1      -6.375  -4.069   0.058  0.00  0.00    +0.167 HD
ENDROOT
BRANCH   1  10
ATOM     10  S   UNL     1      -1.173  -2.376   0.001  0.00  0.00    +0.092 S 
ATOM     11  O   UNL     1      -0.629  -2.768  -1.252  0.00  0.00    -0.148 OA
ATOM     12  O   UNL     1      -0.604  -2.781   1.239  0.00  0.00    -0.148 OA
BRANCH  10  13
ATOM     13  N   UNL     1      -1.198  -0.720   0.010  0.00  0.00    -0.098 NA
BRANCH  13  19
ATOM     14  C   UNL     1      -0.017   1.385   0.010  0.00  0.00    +0.028 A 
ATOM     15  C   UNL     1       1.171   2.090   0.002  0.00  0.00    +0.017 A 
ATOM     16  C   UNL     1       2.378   1.415  -0.013  0.00  0.00    +0.018 A 
ATOM     17  C   UNL     1       2.400   0.031  -0.021  0.00  0.00    +0.017 A 
ATOM     18  C   UNL     1       1.216  -0.679  -0.014  0.00  0.00    +0.028 A 
ATOM     19  C   UNL     1       0.002  -0.004   0.002  0.00  0.00    +0.074 A 
ATOM     20 BR   UNL     1       4.002   2.384  -0.025  0.00  0.00    -0.050 Br
ENDBRANCH  13  19
ENDBRANCH  10  13
ENDBRANCH   1  10
BRANCH   7  21
ATOM     21  N   UNL     1      -6.849  -4.216  -2.256  0.00  0.00    -0.255 NA
ATOM     22  H   UNL     1      -7.222  -4.334  -3.186  0.00  0.00    +0.140 HD
ATOM     23  H   UNL     1      -6.935  -5.067  -1.721  0.00  0.00    +0.140 HD
ENDBRANCH   7  21
TORSDOF 4
