REMARK  Name = ZINC65503600
REMARK  6 active torsions:
REMARK  status: ('A' for Active; 'I' for Inactive)
REMARK    1  A    between atoms: C_1  and  C_2
REMARK    2  A    between atoms: C_2  and  C_4
REMARK    3  A    between atoms: C_2  and  N_13
REMARK    4  A    between atoms: C_22  and  C_24
REMARK    5  A    between atoms: C_24  and  C_25
REMARK    6  A    between atoms: C_25  and  N_26
REMARK                            x       y       z     vdW  Elec       q    Type
REMARK                         _______ _______ _______ _____ _____    ______ ____
ROOT
ATOM      1  N   UNL     1       0.711  -0.489   1.189  0.00  0.00    -0.320 N 
ATOM      2  C   UNL     1       0.036  -0.637   2.382  0.00  0.00    +0.131 A 
ATOM      3  C   UNL     1       0.704  -1.099   3.543  0.00  0.00    +0.040 A 
ATOM      4  C   UNL     1       2.064  -1.425   3.539  0.00  0.00    +0.013 A 
ATOM      5  C   UNL     1       2.653  -1.865   4.688  0.00  0.00    +0.001 A 
ATOM      6  C   UNL     1       1.919  -1.994   5.863  0.00  0.00    +0.002 A 
ATOM      7  C   UNL     1       0.591  -1.684   5.900  0.00  0.00    +0.028 A 
ATOM      8  C   UNL     1      -0.045  -1.229   4.738  0.00  0.00    +0.076 A 
ATOM      9  N   UNL     1      -1.348  -0.910   4.719  0.00  0.00    -0.232 NA
ATOM     10  C   UNL     1      -1.914  -0.487   3.614  0.00  0.00    +0.130 A 
ATOM     11  N   UNL     1      -1.254  -0.345   2.476  0.00  0.00    -0.217 NA
ATOM     12  H   UNL     1       1.654  -0.707   1.135  0.00  0.00    +0.148 HD
ENDROOT
BRANCH   1  14
ATOM     13  C   UNL     1      -0.019   1.526   0.010  0.00  0.00    +0.035 C 
ATOM     14  C   UNL     1       0.002  -0.004   0.002  0.00  0.00    +0.124 C 
BRANCH  14  15
ATOM     15  C   UNL     1       0.707  -0.490  -1.238  0.00  0.00    +0.099 A 
ATOM     16  N   UNL     1       1.991  -0.497  -1.493  0.00  0.00    -0.247 NA
ATOM     17  C   UNL     1       2.482  -0.959  -2.638  0.00  0.00    +0.052 A 
ATOM     18  C   UNL     1       1.548  -1.418  -3.514  0.00  0.00    +0.013 A 
ATOM     19  S   UNL     1       0.035  -1.163  -2.630  0.00  0.00    -0.075 S 
ATOM     20  C   UNL     1       1.776  -1.990  -4.871  0.00  0.00    +0.044 C 
ATOM     21  C   UNL     1       3.215  -1.654  -5.298  0.00  0.00    +0.006 C 
ATOM     22  C   UNL     1       4.163  -1.986  -4.143  0.00  0.00    +0.006 C 
ATOM     23  C   UNL     1       3.961  -0.997  -2.993  0.00  0.00    +0.056 C 
ENDBRANCH  14  15
ENDBRANCH   1  14
BRANCH  10  24
ATOM     24  C   UNL     1      -3.381  -0.142   3.644  0.00  0.00    +0.057 C 
BRANCH  24  25
ATOM     25  C   UNL     1      -3.550   1.335   4.007  0.00  0.00    -0.079 C 
BRANCH  25  26
ATOM     26  N   UNL     1      -4.979   1.672   4.035  0.00  0.00    +0.378 N 
ATOM     27  H   UNL     1      -5.383   1.500   3.127  0.00  0.00    -0.090 HD
ATOM     28  H   UNL     1      -5.446   1.101   4.724  0.00  0.00    -0.090 HD
ATOM     29  H   UNL     1      -5.091   2.646   4.275  0.00  0.00    -0.090 HD
ENDBRANCH  25  26
ENDBRANCH  24  25
ENDBRANCH  10  24
TORSDOF 5
