REMARK  Name = ZINC35809923
REMARK  10 active torsions:
REMARK  status: ('A' for Active; 'I' for Inactive)
REMARK    1  A    between atoms: C_1  and  C_2
REMARK    2  A    between atoms: C_5  and  C_8
REMARK    3  A    between atoms: C_8  and  N_9
REMARK    4  A    between atoms: C_18  and  C_20
REMARK    5  A    between atoms: C_22  and  O_30
REMARK    6  A    between atoms: C_23  and  O_28
REMARK    7  A    between atoms: C_24  and  O_26
REMARK    8  A    between atoms: O_26  and  C_27
REMARK    9  A    between atoms: O_28  and  C_29
REMARK   10  A    between atoms: O_30  and  C_31
REMARK                            x       y       z     vdW  Elec       q    Type
REMARK                         _______ _______ _______ _____ _____    ______ ____
ROOT
ATOM      1  N   UNL     1       1.531  -4.754  -0.166  0.00  0.00    +0.391 N 
ATOM      2  C   UNL     1       2.207  -4.178   0.999  0.00  0.00    -0.075 C 
ATOM      3  C   UNL     1       3.649  -4.662   1.090  0.00  0.00    +0.003 C 
ATOM      4  C   UNL     1       4.220  -4.856  -0.317  0.00  0.00    +0.119 C 
ATOM      5  N   UNL     1       3.919  -6.219  -0.770  0.00  0.00    -0.352 N 
ATOM      6  C   UNL     1       4.787  -7.083  -1.365  0.00  0.00    +0.086 A 
ATOM      7  C   UNL     1       4.121  -8.223  -1.645  0.00  0.00    +0.019 A 
ATOM      8  C   UNL     1       2.794  -8.056  -1.201  0.00  0.00    +0.021 A 
ATOM      9  C   UNL     1       2.700  -6.825  -0.664  0.00  0.00    +0.009 A 
ATOM     10  C   UNL     1       1.467  -6.216  -0.040  0.00  0.00    +0.011 C 
ATOM     11  H   UNL     1       2.043  -4.512  -1.002  0.00  0.00    -0.080 HD
ENDROOT
BRANCH  10  12
ATOM     12  C   UNL     1       0.239  -6.729  -0.747  0.00  0.00    -0.048 A 
ATOM     13  C   UNL     1      -0.711  -7.447  -0.045  0.00  0.00    +0.052 A 
ATOM     14  C   UNL     1      -1.842  -7.921  -0.693  0.00  0.00    +0.165 A 
ATOM     15  C   UNL     1      -2.019  -7.674  -2.049  0.00  0.00    +0.204 A 
ATOM     16  C   UNL     1      -1.061  -6.952  -2.751  0.00  0.00    +0.165 A 
ATOM     17  C   UNL     1       0.064  -6.477  -2.095  0.00  0.00    +0.052 A 
BRANCH  16  18
ATOM     18  O   UNL     1      -1.230  -6.708  -4.078  0.00  0.00    -0.491 OA
ATOM     19  C   UNL     1      -0.205  -5.959  -4.735  0.00  0.00    +0.277 C 
ENDBRANCH  16  18
BRANCH  15  20
ATOM     20  O   UNL     1      -3.128  -8.138  -2.688  0.00  0.00    -0.488 OA
ATOM     21  C   UNL     1      -4.269  -7.278  -2.716  0.00  0.00    +0.277 C 
ENDBRANCH  15  20
BRANCH  14  22
ATOM     22  O   UNL     1      -2.777  -8.627  -0.002  0.00  0.00    -0.491 OA
ATOM     23  C   UNL     1      -2.529  -8.843   1.389  0.00  0.00    +0.277 C 
ENDBRANCH  14  22
ENDBRANCH  10  12
BRANCH   1  24
ATOM     24  C   UNL     1       0.168  -4.212  -0.256  0.00  0.00    -0.042 C 
BRANCH  24  29
ATOM     25  C   UNL     1       0.413   1.498  -1.111  0.00  0.00    +0.044 C 
ATOM     26  C   UNL     1       0.349   0.009  -0.888  0.00  0.00    -0.050 A 
ATOM     27  C   UNL     1       0.329  -0.852  -1.970  0.00  0.00    +0.003 A 
ATOM     28  C   UNL     1       0.270  -2.218  -1.765  0.00  0.00    +0.002 A 
ATOM     29  C   UNL     1       0.233  -2.723  -0.479  0.00  0.00    -0.064 A 
ATOM     30  C   UNL     1       0.255  -1.863   0.603  0.00  0.00    +0.002 A 
ATOM     31  C   UNL     1       0.318  -0.497   0.398  0.00  0.00    +0.003 A 
ENDBRANCH  24  29
ENDBRANCH   1  24
TORSDOF 6
