REMARK  Name = ZINC39715222
REMARK  13 active torsions:
REMARK  status: ('A' for Active; 'I' for Inactive)
REMARK    1  A    between atoms: C_1  and  C_2
REMARK    2  A    between atoms: C_5  and  S_8
REMARK    3  A    between atoms: S_8  and  N_11
REMARK    4  A    between atoms: N_11  and  C_12
REMARK    5  A    between atoms: C_12  and  C_13
REMARK    6  A    between atoms: C_13  and  C_14
REMARK    7  A    between atoms: C_14  and  O_15
REMARK    8  A    between atoms: O_15  and  C_16
REMARK    9  A    between atoms: C_16  and  C_17
REMARK   10  A    between atoms: C_29  and  C_31
REMARK   11  A    between atoms: C_29  and  C_32
REMARK   12  A    between atoms: C_34  and  C_36
REMARK   13  A    between atoms: C_34  and  C_37
REMARK                            x       y       z     vdW  Elec       q    Type
REMARK                         _______ _______ _______ _____ _____    ______ ____
ROOT
ATOM      1  C   UNL     1       6.790  -5.795   3.223  0.00  0.00    +0.194 C 
ENDROOT
BRANCH   1   2
ATOM      2  C   UNL     1       8.021  -6.683   3.036  0.00  0.00    +0.178 C 
ATOM      3  C   UNL     1       8.925  -6.548   4.241  0.00  0.00    +0.184 C 
ATOM      4  C   UNL     1      10.250  -7.307   4.063  0.00  0.00    +0.187 C 
ATOM      5  C   UNL     1      10.888  -7.038   2.697  0.00  0.00    +0.209 C 
ATOM      6  C   UNL     1       9.853  -7.049   1.561  0.00  0.00    +0.285 C 
ATOM      7  O   UNL     1       8.716  -6.285   1.856  0.00  0.00    -0.340 OA
ATOM      8  O   UNL     1       9.573  -8.452   1.408  0.00  0.00    -0.318 OA
ATOM      9  C   UNL     1      10.853  -9.085   1.606  0.00  0.00    +0.168 C 
ATOM     10  O   UNL     1      11.697  -8.204   2.387  0.00  0.00    -0.338 OA
ATOM     11  C   UNL     1      11.510  -9.352   0.250  0.00  0.00    +0.074 C 
ATOM     12  C   UNL     1      10.663 -10.408   2.350  0.00  0.00    +0.074 C 
ATOM     13  O   UNL     1      11.094  -6.658   5.052  0.00  0.00    -0.341 OA
ATOM     14  C   UNL     1      10.554  -5.345   5.262  0.00  0.00    +0.166 C 
ATOM     15  O   UNL     1       9.370  -5.196   4.453  0.00  0.00    -0.341 OA
ATOM     16  C   UNL     1      11.588  -4.292   4.857  0.00  0.00    +0.074 C 
ATOM     17  C   UNL     1      10.194  -5.167   6.739  0.00  0.00    +0.074 C 
ENDBRANCH   1   2
BRANCH   1  18
ATOM     18  O   UNL     1       5.876  -6.013   2.146  0.00  0.00    -0.377 OA
BRANCH  18  19
ATOM     19  C   UNL     1       4.686  -5.227   2.225  0.00  0.00    +0.161 C 
BRANCH  19  20
ATOM     20  C   UNL     1       3.787  -5.540   1.028  0.00  0.00    +0.045 C 
BRANCH  20  21
ATOM     21  C   UNL     1       2.512  -4.699   1.113  0.00  0.00    +0.108 C 
BRANCH  21  22
ATOM     22  N   UNL     1       1.651  -4.999  -0.034  0.00  0.00    -0.190 NA
ATOM     23  H   UNL     1       2.011  -5.473  -0.800  0.00  0.00    +0.148 HD
BRANCH  22  24
ATOM     24  S   UNL     1       0.063  -4.530  -0.023  0.00  0.00    +0.058 S 
ATOM     25  O   UNL     1      -0.476  -4.950   1.223  0.00  0.00    -0.153 OA
ATOM     26  O   UNL     1      -0.490  -4.937  -1.267  0.00  0.00    -0.153 OA
BRANCH  24  31
ATOM     27  C   UNL     1      -0.018   1.503   0.010  0.00  0.00    +0.044 C 
ATOM     28  C   UNL     1       0.002  -0.004   0.002  0.00  0.00    -0.050 A 
ATOM     29  C   UNL     1       0.006  -0.689  -1.199  0.00  0.00    +0.005 A 
ATOM     30  C   UNL     1       0.025  -2.071  -1.206  0.00  0.00    +0.029 A 
ATOM     31  C   UNL     1       0.040  -2.768  -0.013  0.00  0.00    +0.105 A 
ATOM     32  C   UNL     1       0.037  -2.084   1.188  0.00  0.00    +0.029 A 
ATOM     33  C   UNL     1       0.023  -0.702   1.195  0.00  0.00    +0.005 A 
ENDBRANCH  24  31
ENDBRANCH  22  24
ENDBRANCH  21  22
ENDBRANCH  20  21
ENDBRANCH  19  20
ENDBRANCH  18  19
ENDBRANCH   1  18
TORSDOF 8
