REMARK  Name = ZINC00880652
REMARK  8 active torsions:
REMARK  status: ('A' for Active; 'I' for Inactive)
REMARK    1  A    between atoms: C_1  and  C_2
REMARK    2  A    between atoms: C_2  and  O_3
REMARK    3  A    between atoms: O_3  and  C_4
REMARK    4  A    between atoms: C_8  and  C_11
REMARK    5  A    between atoms: C_9  and  O_10
REMARK    6  A    between atoms: N_12  and  C_13
REMARK    7  A    between atoms: C_16  and  O_20
REMARK    8  A    between atoms: O_20  and  C_21
REMARK                            x       y       z     vdW  Elec       q    Type
REMARK                         _______ _______ _______ _____ _____    ______ ____
ROOT
ATOM      1  C   UNL     1      -3.962  -4.275  -1.631  0.00  0.00    +0.163 A 
ATOM      2  C   UNL     1      -4.978  -3.899  -0.767  0.00  0.00    +0.065 A 
ATOM      3  C   UNL     1      -4.809  -2.819   0.085  0.00  0.00    +0.036 A 
ATOM      4  C   UNL     1      -3.625  -2.111   0.085  0.00  0.00    +0.044 A 
ATOM      5  C   UNL     1      -2.592  -2.476  -0.786  0.00  0.00    +0.053 A 
ATOM      6  C   UNL     1      -2.765  -3.569  -1.647  0.00  0.00    +0.168 A 
ATOM      7 BR   UNL     1      -3.401  -0.644   1.257  0.00  0.00    -0.048 Br
ATOM      8 BR   UNL     1      -6.206  -2.318   1.257  0.00  0.00    -0.049 Br
ENDROOT
BRANCH   6   9
ATOM      9  O   UNL     1      -1.767  -3.936  -2.493  0.00  0.00    -0.503 OA
ATOM     10  H   UNL     1      -1.152  -4.582  -2.119  0.00  0.00    +0.292 HD
ENDBRANCH   6   9
BRANCH   5  11
ATOM     11  C   UNL     1      -1.330  -1.722  -0.793  0.00  0.00    +0.124 C 
ATOM     12  N   UNL     1      -1.173  -0.706   0.009  0.00  0.00    -0.255 NA
BRANCH  12  13
ATOM     13  C   UNL     1       0.002  -0.004   0.002  0.00  0.00    +0.065 A 
ATOM     14  C   UNL     1       1.224  -0.682  -0.013  0.00  0.00    +0.031 A 
ATOM     15  C   UNL     1       2.405   0.029  -0.021  0.00  0.00    +0.049 A 
ATOM     16  C   UNL     1       2.382   1.417  -0.013  0.00  0.00    +0.138 A 
ATOM     17  C   UNL     1       1.170   2.096   0.002  0.00  0.00    +0.085 A 
ATOM     18  C   UNL     1      -0.017   1.393   0.010  0.00  0.00    +0.051 A 
ATOM     19 CL   UNL     1       1.148   3.832   0.012  0.00  0.00    -0.080 Cl
BRANCH  16  20
ATOM     20  O   UNL     1       3.549   2.114  -0.021  0.00  0.00    -0.494 OA
ATOM     21  C   UNL     1       4.758   1.353  -0.036  0.00  0.00    +0.277 C 
ENDBRANCH  16  20
ENDBRANCH  12  13
ENDBRANCH   5  11
BRANCH   1  22
ATOM     22  O   UNL     1      -4.136  -5.336  -2.464  0.00  0.00    -0.489 OA
BRANCH  22  24
ATOM     23  C   UNL     1      -5.401  -7.172  -3.397  0.00  0.00    +0.048 C 
ATOM     24  C   UNL     1      -5.391  -6.016  -2.394  0.00  0.00    +0.226 C 
ENDBRANCH  22  24
ENDBRANCH   1  22
TORSDOF 6
