REMARK  Name = ZINC16009668
REMARK  4 active torsions:
REMARK  status: ('A' for Active; 'I' for Inactive)
REMARK    1  A    between atoms: C_1  and  C_2
REMARK    2  A    between atoms: C_6  and  C_35
REMARK    3  A    between atoms: C_7  and  N_8
REMARK    4  A    between atoms: C_26  and  C_34
REMARK                            x       y       z     vdW  Elec       q    Type
REMARK                         _______ _______ _______ _____ _____    ______ ____
ROOT
ATOM      1  N   UNL     1      -0.210  -0.028   2.416  0.00  0.00    -0.209 N 
ATOM      2  C   UNL     1       0.840   0.515   3.044  0.00  0.00    +0.232 C 
ATOM      3  O   UNL     1       1.986   0.482   2.650  0.00  0.00    -0.274 OA
ATOM      4  C   UNL     1       0.374   1.177   4.321  0.00  0.00    +0.107 C 
ATOM      5  C   UNL     1       0.934   0.407   5.531  0.00  0.00    +0.071 C 
ATOM      6  C   UNL     1       2.217  -0.335   5.115  0.00  0.00    +0.021 C 
ATOM      7  C   UNL     1       1.757  -1.731   4.655  0.00  0.00    +0.017 C 
ATOM      8  C   UNL     1       0.222  -1.717   4.800  0.00  0.00    +0.086 C 
ATOM      9  N   UNL     1      -0.077  -0.654   5.823  0.00  0.00    -0.281 NA
ATOM     10  C   UNL     1      -1.374  -0.013   5.545  0.00  0.00    +0.138 C 
ATOM     11  C   UNL     1      -1.156   0.913   4.324  0.00  0.00    +0.123 C 
ATOM     12  C   UNL     1      -1.380   0.142   3.043  0.00  0.00    +0.233 C 
ATOM     13  O   UNL     1      -2.452  -0.263   2.647  0.00  0.00    -0.274 OA
ATOM     14  C   UNL     1      -2.444  -1.034   5.275  0.00  0.00    +0.005 A 
ATOM     15  C   UNL     1      -2.584  -2.033   4.336  0.00  0.00    +0.011 A 
ATOM     16  C   UNL     1      -3.712  -2.833   4.340  0.00  0.00    -0.049 A 
ATOM     17  C   UNL     1      -4.698  -2.628   5.288  0.00  0.00    +0.025 A 
ATOM     18  C   UNL     1      -4.562  -1.629   6.231  0.00  0.00    +0.063 A 
ATOM     19  C   UNL     1      -3.428  -0.819   6.234  0.00  0.00    +0.057 A 
ATOM     20  N   UNL     1      -3.063   0.239   7.071  0.00  0.00    -0.282 N 
ATOM     21  C   UNL     1      -1.869   0.765   6.734  0.00  0.00    +0.243 C 
ATOM     22  O   UNL     1      -1.304   1.687   7.282  0.00  0.00    -0.273 OA
ATOM     23 CL   UNL     1      -5.806  -1.380   7.415  0.00  0.00    -0.082 Cl
ATOM     24  C   UNL     1      -3.867  -3.925   3.314  0.00  0.00    +0.044 C 
ATOM     25  H   UNL     1      -3.606   0.558   7.808  0.00  0.00    +0.155 HD
ENDROOT
BRANCH   1  32
ATOM     26  C   UNL     1       0.140  -2.852   2.488  0.00  0.00    +0.046 C 
ATOM     27  C   UNL     1       0.078  -2.090   1.189  0.00  0.00    -0.028 A 
ATOM     28  C   UNL     1       0.186  -2.763  -0.012  0.00  0.00    +0.005 A 
ATOM     29  C   UNL     1       0.130  -2.065  -1.205  0.00  0.00    +0.001 A 
ATOM     30  C   UNL     1      -0.036  -0.692  -1.198  0.00  0.00    +0.005 A 
ATOM     31  C   UNL     1      -0.145  -0.014   0.000  0.00  0.00    -0.028 A 
ATOM     32  C   UNL     1      -0.094  -0.713   1.199  0.00  0.00    +0.050 A 
ATOM     33  C   UNL     1      -0.326   1.482   0.006  0.00  0.00    +0.046 C 
ENDBRANCH   1  32
TORSDOF 1
