REMARK  Name = ZINC40892572
REMARK  11 active torsions:
REMARK  status: ('A' for Active; 'I' for Inactive)
REMARK    1  A    between atoms: C_1  and  C_2
REMARK    2  A    between atoms: C_2  and  C_3
REMARK    3  A    between atoms: C_3  and  C_4
REMARK    4  A    between atoms: C_6  and  C_9
REMARK    5  A    between atoms: C_12  and  N_16
REMARK    6  A    between atoms: C_20  and  C_23
REMARK    7  A    between atoms: N_25  and  C_26
REMARK    8  A    between atoms: C_26  and  C_27
REMARK    9  A    between atoms: C_27  and  N_28
REMARK   10  A    between atoms: N_31  and  C_34
REMARK   11  A    between atoms: C_34  and  C_35
REMARK                            x       y       z     vdW  Elec       q    Type
REMARK                         _______ _______ _______ _____ _____    ______ ____
ROOT
ATOM      1  N   UNL     1      -2.838  -8.512  -3.393  0.00  0.00    -0.327 N 
ATOM      2  C   UNL     1      -3.871  -9.108  -2.534  0.00  0.00    +0.105 C 
ATOM      3  C   UNL     1      -5.188  -9.167  -3.315  0.00  0.00    +0.020 C 
ATOM      4  C   UNL     1      -4.961  -9.910  -4.633  0.00  0.00    +0.016 C 
ATOM      5  C   UNL     1      -3.933  -9.154  -5.477  0.00  0.00    +0.092 C 
ATOM      6  C   UNL     1      -2.606  -9.091  -4.723  0.00  0.00    +0.118 C 
ENDROOT
BRANCH   1  10
ATOM      7  C   UNL     1      -0.622  -5.234  -2.085  0.00  0.00    +0.025 A 
ATOM      8  C   UNL     1      -1.819  -5.039  -2.772  0.00  0.00    +0.013 A 
ATOM      9  C   UNL     1      -2.550  -6.125  -3.204  0.00  0.00    +0.027 A 
ATOM     10  C   UNL     1      -2.096  -7.415  -2.955  0.00  0.00    +0.065 A 
ATOM     11  C   UNL     1      -0.900  -7.612  -2.268  0.00  0.00    +0.145 A 
ATOM     12  C   UNL     1      -0.163  -6.528  -1.840  0.00  0.00    +0.052 A 
ATOM     13  F   UNL     1      -0.460  -8.867  -2.027  0.00  0.00    -0.204 F 
BRANCH   7  16
ATOM     14  C   UNL     1       0.739  -2.004  -1.265  0.00  0.00    +0.228 A 
ATOM     15  N   UNL     1      -0.169  -2.775  -1.794  0.00  0.00    -0.191 NA
ATOM     16  C   UNL     1       0.165  -4.066  -1.620  0.00  0.00    +0.202 A 
ATOM     17  N   UNL     1       1.303  -4.121  -0.971  0.00  0.00    -0.056 NA
ATOM     18  O   UNL     1       1.696  -2.777  -0.735  0.00  0.00    -0.338 OA
BRANCH  14  19
ATOM     19  C   UNL     1       0.718  -0.497  -1.257  0.00  0.00    +0.098 C 
BRANCH  19  21
ATOM     20  C   UNL     1      -0.019   1.526   0.010  0.00  0.00    +0.004 C 
ATOM     21  C   UNL     1       0.002  -0.004   0.002  0.00  0.00    +0.006 C 
ENDBRANCH  19  21
ENDBRANCH  14  19
ENDBRANCH   7  16
ENDBRANCH   1  10
BRANCH   5  22
ATOM     22  C   UNL     1      -3.735  -9.868  -6.789  0.00  0.00    +0.218 C 
ATOM     23  O   UNL     1      -2.638 -10.287  -7.092  0.00  0.00    -0.275 OA
ATOM     24  N   UNL     1      -4.777 -10.042  -7.625  0.00  0.00    -0.314 N 
ATOM     25  H   UNL     1      -5.655  -9.707  -7.383  0.00  0.00    +0.149 HD
BRANCH  24  26
ATOM     26  C   UNL     1      -4.585 -10.737  -8.901  0.00  0.00    +0.119 C 
BRANCH  26  27
ATOM     27  C   UNL     1      -5.916 -10.799  -9.654  0.00  0.00    +0.103 C 
BRANCH  27  28
ATOM     28  N   UNL     1      -5.723 -11.495 -10.932  0.00  0.00    -0.304 NA
ATOM     29  C   UNL     1      -5.384 -12.909 -10.716  0.00  0.00    +0.066 C 
ATOM     30  C   UNL     1      -5.133 -13.583 -12.067  0.00  0.00    -0.063 C 
ATOM     31  N   UNL     1      -6.338 -13.472 -12.900  0.00  0.00    +0.381 N 
ATOM     32  C   UNL     1      -6.650 -12.055 -13.128  0.00  0.00    -0.063 C 
ATOM     33  C   UNL     1      -6.913 -11.369 -11.786  0.00  0.00    +0.066 C 
ATOM     34  H   UNL     1      -7.113 -13.916 -12.431  0.00  0.00    -0.082 HD
BRANCH  31  35
ATOM     35  C   UNL     1      -6.103 -14.135 -14.190  0.00  0.00    -0.082 C 
ATOM     36  C   UNL     1      -7.396 -14.129 -15.009  0.00  0.00    -0.017 C 
ENDBRANCH  31  35
ENDBRANCH  27  28
ENDBRANCH  26  27
ENDBRANCH  24  26
ENDBRANCH   5  22
TORSDOF 9
