REMARK  Name = ZINC09421119
REMARK  9 active torsions:
REMARK  status: ('A' for Active; 'I' for Inactive)
REMARK    1  A    between atoms: C_1  and  C_2
REMARK    2  A    between atoms: C_2  and  C_4
REMARK    3  A    between atoms: C_2  and  N_10
REMARK    4  A    between atoms: C_4  and  C_5
REMARK    5  A    between atoms: C_5  and  C_6
REMARK    6  A    between atoms: C_6  and  C_7
REMARK    7  A    between atoms: C_7  and  C_8
REMARK    8  A    between atoms: C_7  and  C_9
REMARK    9  A    between atoms: C_11  and  C_13
REMARK                            x       y       z     vdW  Elec       q    Type
REMARK                         _______ _______ _______ _____ _____    ______ ____
ROOT
ATOM      1  C   UNL     1       0.740  -1.099  -3.601  0.00  0.00    +0.092 C 
ATOM      2  C   UNL     1       1.292  -2.505  -3.354  0.00  0.00    +0.016 C 
ATOM      3  C   UNL     1       2.019  -2.997  -4.607  0.00  0.00    +0.020 C 
ATOM      4  C   UNL     1       1.029  -3.065  -5.774  0.00  0.00    +0.106 C 
ATOM      5  N   UNL     1       0.386  -1.752  -5.926  0.00  0.00    -0.313 N 
ATOM      6  C   UNL     1      -0.265  -1.145  -4.757  0.00  0.00    +0.119 C 
ATOM      7  C   UNL     1       0.394  -1.100  -7.146  0.00  0.00    +0.154 A 
ATOM      8  C   UNL     1      -0.325   0.094  -7.327  0.00  0.00    +0.148 A 
ATOM      9  C   UNL     1      -0.279   0.711  -8.588  0.00  0.00    +0.164 A 
ATOM     10  N   UNL     1      -1.055   1.838  -8.486  0.00  0.00    -0.329 N 
ATOM     11  H   UNL     1      -1.227   2.482  -9.191  0.00  0.00    +0.168 HD
ATOM     12  C   UNL     1      -1.541   1.886  -7.213  0.00  0.00    +0.198 A 
ATOM     13  N   UNL     1      -1.111   0.862  -6.535  0.00  0.00    -0.231 NA
ATOM     14  N   UNL     1       0.435   0.148  -9.558  0.00  0.00    -0.198 NA
ATOM     15  C   UNL     1       1.093  -0.972  -9.343  0.00  0.00    +0.226 A 
ATOM     16  N   UNL     1       1.085  -1.585  -8.172  0.00  0.00    -0.200 NA
ATOM     17 CL   UNL     1       2.011  -1.666 -10.643  0.00  0.00    -0.041 Cl
ENDROOT
BRANCH   1  19
ATOM     18  N   UNL     1       0.745  -0.482  -1.206  0.00  0.00    -0.312 N 
ATOM     19  C   UNL     1       0.052  -0.603  -2.356  0.00  0.00    +0.218 C 
ATOM     20  O   UNL     1      -1.125  -0.313  -2.388  0.00  0.00    -0.275 OA
ATOM     21  H   UNL     1       1.687  -0.714  -1.180  0.00  0.00    +0.149 HD
BRANCH  18  23
ATOM     22  C   UNL     1       0.079   1.531   0.014  0.00  0.00    +0.028 C 
ATOM     23  C   UNL     1       0.076   0.001   0.005  0.00  0.00    +0.070 C 
BRANCH  23  24
ATOM     24  C   UNL     1       0.819  -0.517   1.238  0.00  0.00    +0.022 C 
BRANCH  24  25
ATOM     25  C   UNL     1       0.709  -2.042   1.296  0.00  0.00    +0.002 C 
BRANCH  25  26
ATOM     26  C   UNL     1       1.452  -2.561   2.530  0.00  0.00    +0.003 C 
BRANCH  26  27
ATOM     27  C   UNL     1       1.342  -4.086   2.587  0.00  0.00    -0.017 C 
ATOM     28  C   UNL     1       2.073  -4.695   1.389  0.00  0.00    +0.007 C 
ATOM     29  C   UNL     1       1.976  -4.594   3.884  0.00  0.00    +0.007 C 
ENDBRANCH  26  27
ENDBRANCH  25  26
ENDBRANCH  24  25
ENDBRANCH  23  24
ENDBRANCH  18  23
ENDBRANCH   1  19
TORSDOF 6
