REMARK  Name = ZINC33436584
REMARK  8 active torsions:
REMARK  status: ('A' for Active; 'I' for Inactive)
REMARK    1  A    between atoms: C_1  and  C_2
REMARK    2  A    between atoms: C_2  and  C_3
REMARK    3  A    between atoms: C_3  and  N_4
REMARK    4  A    between atoms: C_5  and  C_7
REMARK    5  A    between atoms: C_7  and  N_22
REMARK    6  A    between atoms: C_8  and  C_9
REMARK    7  A    between atoms: C_12  and  C_14
REMARK    8  A    between atoms: C_23  and  C_25
REMARK                            x       y       z     vdW  Elec       q    Type
REMARK                         _______ _______ _______ _____ _____    ______ ____
ROOT
ATOM      1  C   UNL     1      -2.410   1.160  -0.095  0.00  0.00    +0.100 C 
ATOM      2  C   UNL     1      -3.518   1.944  -0.199  0.00  0.00    +0.074 C 
ENDROOT
BRANCH   2   3
ATOM      3  C   UNL     1      -4.784   1.352  -0.417  0.00  0.00    +0.131 A 
ATOM      4  C   UNL     1      -5.970   2.029  -0.632  0.00  0.00    +0.050 A 
ATOM      5  C   UNL     1      -6.962   1.058  -0.802  0.00  0.00    +0.050 A 
ATOM      6  C   UNL     1      -6.358  -0.161  -0.678  0.00  0.00    +0.137 A 
ATOM      7  O   UNL     1      -5.046   0.029  -0.447  0.00  0.00    -0.455 OA
BRANCH   6   8
ATOM      8  C   UNL     1      -7.033  -1.469  -0.781  0.00  0.00    +0.036 A 
ATOM      9  C   UNL     1      -8.190  -1.722  -0.040  0.00  0.00    +0.014 A 
ATOM     10  C   UNL     1      -8.818  -2.945  -0.143  0.00  0.00    +0.021 A 
ATOM     11  C   UNL     1      -8.299  -3.926  -0.973  0.00  0.00    +0.042 A 
ATOM     12  C   UNL     1      -7.150  -3.684  -1.707  0.00  0.00    +0.040 A 
ATOM     13  C   UNL     1      -6.514  -2.463  -1.616  0.00  0.00    +0.053 A 
ATOM     14 CL   UNL     1      -5.073  -2.162  -2.536  0.00  0.00    -0.083 Cl
ATOM     15 CL   UNL     1      -9.094  -5.465  -1.093  0.00  0.00    -0.083 Cl
ENDBRANCH   6   8
ENDBRANCH   2   3
BRANCH   1  17
ATOM     16  N   UNL     1      -2.801  -0.952   1.054  0.00  0.00    -0.310 N 
ATOM     17  C   UNL     1      -2.541  -0.298  -0.095  0.00  0.00    +0.258 C 
ATOM     18  O   UNL     1      -2.416  -0.920  -1.134  0.00  0.00    -0.269 OA
ATOM     19  H   UNL     1      -2.997  -0.386   1.977  0.00  0.00    +0.149 HD
BRANCH  16  20
ATOM     20  C   UNL     1      -2.824  -2.417   1.075  0.00  0.00    +0.104 C 
BRANCH  20  22
ATOM     21  C   UNL     1      -3.164  -4.431   2.513  0.00  0.00    +0.005 C 
ATOM     22  C   UNL     1      -3.140  -2.902   2.491  0.00  0.00    +0.015 C 
ENDBRANCH  20  22
ENDBRANCH  16  20
ENDBRANCH   1  17
BRANCH   1  23
ATOM     23  N   UNL     1      -1.145   1.749   0.013  0.00  0.00    -0.277 N 
ATOM     24  C   UNL     1      -0.041   0.977   0.016  0.00  0.00    +0.248 C 
ATOM     25  O   UNL     1      -0.146  -0.235   0.021  0.00  0.00    -0.270 OA
ATOM     26  H   UNL     1      -1.052   2.842   0.096  0.00  0.00    +0.155 HD
BRANCH  24  27
ATOM     27  C   UNL     1       1.299   1.602   0.007  0.00  0.00    +0.037 A 
ATOM     28  C   UNL     1       1.423   2.992  -0.005  0.00  0.00    +0.013 A 
ATOM     29  C   UNL     1       2.676   3.570  -0.007  0.00  0.00    +0.001 A 
ATOM     30  C   UNL     1       3.808   2.774  -0.011  0.00  0.00    +0.000 A 
ATOM     31  C   UNL     1       3.692   1.395  -0.005  0.00  0.00    +0.001 A 
ATOM     32  C   UNL     1       2.445   0.805   0.004  0.00  0.00    +0.013 A 
ENDBRANCH  24  27
ENDBRANCH   1  23
TORSDOF 7
