REMARK  Name = ZINC03285701
REMARK  9 active torsions:
REMARK  status: ('A' for Active; 'I' for Inactive)
REMARK    1  A    between atoms: C_1  and  C_2
REMARK    2  A    between atoms: C_2  and  O_3
REMARK    3  A    between atoms: O_3  and  C_4
REMARK    4  A    between atoms: C_4  and  C_6
REMARK    5  A    between atoms: N_11  and  C_13
REMARK    6  A    between atoms: C_13  and  C_14
REMARK    7  A    between atoms: N_16  and  C_17
REMARK    8  A    between atoms: C_18  and  C_26
REMARK    9  A    between atoms: N_28  and  C_29
REMARK                            x       y       z     vdW  Elec       q    Type
REMARK                         _______ _______ _______ _____ _____    ______ ____
ROOT
ATOM      1  C   UNL     1      -1.196   1.038 -10.849  0.00  0.00    +0.084 A 
ATOM      2  C   UNL     1      -0.867   0.712 -12.157  0.00  0.00    +0.069 A 
ATOM      3  C   UNL     1      -1.875   0.938 -13.179  0.00  0.00    -0.023 A 
ATOM      4  C   UNL     1      -3.039   1.460 -12.733  0.00  0.00    -0.004 A 
ATOM      5  S   UNL     1      -2.813   1.644 -10.987  0.00  0.00    -0.077 S 
ATOM      6  C   UNL     1      -4.246   1.803 -13.550  0.00  0.00    +0.043 C 
ATOM      7  C   UNL     1      -3.838   1.825 -15.030  0.00  0.00    +0.005 C 
ATOM      8  C   UNL     1      -3.036   0.558 -15.340  0.00  0.00    +0.005 C 
ATOM      9  C   UNL     1      -1.669   0.627 -14.656  0.00  0.00    +0.037 C 
ENDROOT
BRANCH   1  12
ATOM     10  C   UNL     1      -0.908   1.291  -8.512  0.00  0.00    +0.201 C 
ATOM     11  O   UNL     1      -2.033   1.739  -8.432  0.00  0.00    -0.278 OA
ATOM     12  N   UNL     1      -0.416   0.913  -9.709  0.00  0.00    -0.281 N 
ATOM     13  H   UNL     1       0.603   0.506  -9.780  0.00  0.00    +0.155 HD
BRANCH  10  14
ATOM     14  C   UNL     1      -0.062   1.156  -7.272  0.00  0.00    +0.019 C 
BRANCH  14  19
ATOM     15  C   UNL     1      -1.738   3.801  -5.181  0.00  0.00    +0.081 C 
ATOM     16  C   UNL     1      -1.082   3.484  -3.834  0.00  0.00    +0.011 C 
ATOM     17  C   UNL     1      -0.922   1.967  -3.697  0.00  0.00    -0.018 C 
ATOM     18  C   UNL     1      -0.090   1.439  -4.868  0.00  0.00    -0.078 C 
ATOM     19  N   UNL     1      -0.760   1.767  -6.133  0.00  0.00    +0.386 N 
ATOM     20  C   UNL     1      -0.882   3.220  -6.309  0.00  0.00    -0.064 C 
ATOM     21  H   UNL     1      -1.776   1.347  -6.093  0.00  0.00    -0.081 HD
BRANCH  15  22
ATOM     22  C   UNL     1      -1.845   5.295  -5.349  0.00  0.00    +0.308 C 
ATOM     23  O   UNL     1      -1.294   5.839  -6.277  0.00  0.00    -0.251 OA
BRANCH  22  24
ATOM     24  O   UNL     1      -2.553   6.020  -4.470  0.00  0.00    -0.465 OA
BRANCH  24  26
ATOM     25  C   UNL     1      -3.457   8.106  -3.598  0.00  0.00    +0.048 C 
ATOM     26  C   UNL     1      -2.613   7.453  -4.694  0.00  0.00    +0.229 C 
ENDBRANCH  24  26
ENDBRANCH  22  24
ENDBRANCH  15  22
ENDBRANCH  14  19
ENDBRANCH  10  14
ENDBRANCH   1  12
BRANCH   2  27
ATOM     27  C   UNL     1       0.447   0.157 -12.496  0.00  0.00    +0.251 C 
ATOM     28  O   UNL     1       0.619  -1.048 -12.488  0.00  0.00    -0.270 OA
ATOM     29  N   UNL     1       1.464   0.981 -12.815  0.00  0.00    -0.281 N 
ATOM     30  H   UNL     1       1.335   2.071 -12.737  0.00  0.00    +0.155 HD
BRANCH  29  31
ATOM     31  C   UNL     1       2.685   0.451 -13.247  0.00  0.00    +0.034 A 
ATOM     32  C   UNL     1       3.419   1.104 -14.228  0.00  0.00    +0.025 A 
ATOM     33  C   UNL     1       4.627   0.581 -14.648  0.00  0.00    +0.022 A 
ATOM     34  C   UNL     1       5.100  -0.598 -14.100  0.00  0.00    +0.041 A 
ATOM     35  C   UNL     1       4.367  -1.254 -13.126  0.00  0.00    +0.022 A 
ATOM     36  C   UNL     1       3.162  -0.733 -12.699  0.00  0.00    +0.025 A 
ATOM     37 CL   UNL     1       6.614  -1.256 -14.635  0.00  0.00    -0.084 Cl
ENDBRANCH  29  31
ENDBRANCH   2  27
TORSDOF 8
