REMARK  Name = ZINC28924693
REMARK  6 active torsions:
REMARK  status: ('A' for Active; 'I' for Inactive)
REMARK    1  A    between atoms: C_1  and  N_2
REMARK    2  A    between atoms: C_3  and  C_5
REMARK    3  A    between atoms: C_5  and  N_6
REMARK    4  A    between atoms: N_15  and  C_29
REMARK    5  A    between atoms: C_16  and  C_18
REMARK    6  A    between atoms: N_21  and  C_23
REMARK                            x       y       z     vdW  Elec       q    Type
REMARK                         _______ _______ _______ _____ _____    ______ ____
ROOT
ATOM      1  N   UNL     1       3.599  -0.570  -0.180  0.00  0.00    -0.298 N 
ATOM      2  C   UNL     1       2.359   0.047  -0.186  0.00  0.00    +0.044 A 
ATOM      3  C   UNL     1       1.189  -0.698  -0.130  0.00  0.00    +0.024 A 
ATOM      4  C   UNL     1      -0.034  -0.057  -0.128  0.00  0.00    +0.002 A 
ATOM      5  C   UNL     1      -0.108   1.326  -0.182  0.00  0.00    +0.001 A 
ATOM      6  C   UNL     1       1.044   2.083  -0.240  0.00  0.00    +0.015 A 
ATOM      7  C   UNL     1       2.283   1.449  -0.244  0.00  0.00    +0.058 A 
ATOM      8  C   UNL     1       3.542   2.217  -0.310  0.00  0.00    +0.250 C 
ATOM      9  O   UNL     1       3.572   3.406  -0.055  0.00  0.00    -0.270 OA
ATOM     10  N   UNL     1       4.662   1.544  -0.666  0.00  0.00    -0.278 N 
ATOM     11  C   UNL     1       4.574   0.128  -1.021  0.00  0.00    +0.198 C 
ATOM     12  C   UNL     1       5.956   2.231  -0.696  0.00  0.00    +0.134 C 
ENDROOT
BRANCH  11  13
ATOM     13  C   UNL     1       4.159   0.005  -2.464  0.00  0.00    +0.029 A 
ATOM     14  C   UNL     1       2.932   0.407  -3.005  0.00  0.00    +0.141 A 
ATOM     15  N   UNL     1       2.943   0.143  -4.287  0.00  0.00    -0.174 NA
ATOM     16  N   UNL     1       4.175  -0.445  -4.602  0.00  0.00    -0.239 N 
ATOM     17  C   UNL     1       4.904  -0.519  -3.465  0.00  0.00    +0.121 A 
BRANCH  16  18
ATOM     18  C   UNL     1       4.580  -0.881  -5.871  0.00  0.00    +0.065 A 
ATOM     19  C   UNL     1       5.837  -1.444  -6.045  0.00  0.00    +0.028 A 
ATOM     20  C   UNL     1       6.231  -1.878  -7.295  0.00  0.00    +0.002 A 
ATOM     21  C   UNL     1       5.380  -1.740  -8.377  0.00  0.00    +0.000 A 
ATOM     22  C   UNL     1       4.130  -1.174  -8.208  0.00  0.00    +0.002 A 
ATOM     23  C   UNL     1       3.728  -0.744  -6.958  0.00  0.00    +0.028 A 
ENDBRANCH  16  18
ENDBRANCH  11  13
BRANCH   1  24
ATOM     24  C   UNL     1       3.487  -1.982  -0.566  0.00  0.00    +0.202 C 
BRANCH  24  27
ATOM     25  C   UNL     1       6.350  -4.482  -1.024  0.00  0.00    +0.128 C 
ATOM     26  N   UNL     1       5.021  -3.866  -1.033  0.00  0.00    -0.317 N 
ATOM     27  C   UNL     1       4.854  -2.616  -0.557  0.00  0.00    +0.230 C 
ATOM     28  O   UNL     1       5.804  -2.002  -0.121  0.00  0.00    -0.274 OA
ATOM     29  H   UNL     1       4.159  -4.423  -1.428  0.00  0.00    +0.148 HD
ENDBRANCH  24  27
ENDBRANCH   1  24
TORSDOF 4
