REMARK  Name = ZINC41004952
REMARK  9 active torsions:
REMARK  status: ('A' for Active; 'I' for Inactive)
REMARK    1  A    between atoms: C_1  and  C_2
REMARK    2  A    between atoms: C_2  and  S_3
REMARK    3  A    between atoms: S_3  and  C_4
REMARK    4  A    between atoms: C_9  and  C_18
REMARK    5  A    between atoms: C_11  and  C_15
REMARK    6  A    between atoms: C_12  and  C_14
REMARK    7  A    between atoms: C_22  and  O_24
REMARK    8  A    between atoms: O_24  and  C_25
REMARK    9  A    between atoms: C_25  and  C_26
REMARK                            x       y       z     vdW  Elec       q    Type
REMARK                         _______ _______ _______ _____ _____    ______ ____
ROOT
ATOM      1  C   UNL     1       0.322  -2.361  -1.394  0.00  0.00    +0.210 A 
ATOM      2  N   UNL     1      -0.160  -3.111  -0.393  0.00  0.00    -0.187 NA
ATOM      3  C   UNL     1       0.170  -4.359  -0.586  0.00  0.00    +0.219 A 
ATOM      4  N   UNL     1       0.879  -4.434  -1.739  0.00  0.00    -0.220 N 
ATOM      5  N   UNL     1       0.962  -3.137  -2.242  0.00  0.00    -0.141 NA
ATOM      6  C   UNL     1       1.409  -5.682  -2.283  0.00  0.00    +0.177 C 
ATOM      7  C   UNL     1       1.307  -6.765  -1.242  0.00  0.00    +0.060 C 
ATOM      8  C   UNL     1       0.592  -6.633  -0.115  0.00  0.00    +0.018 C 
ATOM      9  N   UNL     1      -0.099  -5.484   0.183  0.00  0.00    -0.287 N 
ATOM     10  C   UNL     1       0.545  -7.783   0.857  0.00  0.00    +0.061 C 
ATOM     11  H   UNL     1      -0.750  -5.459   0.901  0.00  0.00    +0.155 HD
ENDROOT
BRANCH   6  12
ATOM     12  C   UNL     1       0.613  -6.078  -3.499  0.00  0.00    -0.015 A 
ATOM     13  C   UNL     1      -0.747  -6.306  -3.391  0.00  0.00    +0.006 A 
ATOM     14  C   UNL     1      -1.480  -6.669  -4.506  0.00  0.00    +0.004 A 
ATOM     15  C   UNL     1      -0.856  -6.807  -5.730  0.00  0.00    +0.045 A 
ATOM     16  C   UNL     1       0.508  -6.579  -5.841  0.00  0.00    +0.121 A 
ATOM     17  C   UNL     1       1.241  -6.208  -4.722  0.00  0.00    +0.051 A 
BRANCH  16  18
ATOM     18  O   UNL     1       1.125  -6.714  -7.045  0.00  0.00    -0.487 OA
BRANCH  18  19
ATOM     19  C   UNL     1       0.308  -7.092  -8.154  0.00  0.00    +0.266 C 
BRANCH  19  20
ATOM     20  C   UNL     1       1.158  -7.191  -9.394  0.00  0.00    +0.008 A 
ATOM     21  C   UNL     1       2.515  -6.934  -9.324  0.00  0.00    +0.010 A 
ATOM     22  C   UNL     1       3.295  -7.025 -10.461  0.00  0.00    +0.020 A 
ATOM     23  C   UNL     1       2.720  -7.374 -11.670  0.00  0.00    +0.042 A 
ATOM     24  C   UNL     1       1.363  -7.632 -11.740  0.00  0.00    +0.040 A 
ATOM     25  C   UNL     1       0.583  -7.545 -10.601  0.00  0.00    +0.049 A 
ATOM     26 CL   UNL     1      -1.120  -7.875 -10.687  0.00  0.00    -0.083 Cl
ATOM     27 CL   UNL     1       3.700  -7.487 -13.098  0.00  0.00    -0.083 Cl
ENDBRANCH  19  20
ENDBRANCH  18  19
ENDBRANCH  16  18
ENDBRANCH   6  12
BRANCH   7  28
ATOM     28  C   UNL     1       1.998  -7.980  -1.463  0.00  0.00    +0.241 C 
ATOM     29  O   UNL     1       3.188  -8.057  -1.217  0.00  0.00    -0.271 OA
ATOM     30  N   UNL     1       1.338  -9.052  -1.946  0.00  0.00    -0.325 N 
ATOM     31  H   UNL     1       0.390  -8.990  -2.142  0.00  0.00    +0.145 HD
ATOM     32  H   UNL     1       1.812  -9.885  -2.098  0.00  0.00    +0.145 HD
ENDBRANCH   7  28
BRANCH   1  33
ATOM     33  S   UNL     1       0.123  -0.617  -1.553  0.00  0.00    -0.085 S 
BRANCH  33  35
ATOM     34  C   UNL     1      -1.083   1.361  -0.099  0.00  0.00    +0.016 C 
ATOM     35  C   UNL     1      -0.836  -0.149  -0.086  0.00  0.00    +0.074 C 
ENDBRANCH  33  35
ENDBRANCH   1  33
TORSDOF 7
