REMARK  Name = ZINC04064929
REMARK  7 active torsions:
REMARK  status: ('A' for Active; 'I' for Inactive)
REMARK    1  A    between atoms: C_6  and  O_7
REMARK    2  A    between atoms: O_7  and  C_8
REMARK    3  A    between atoms: C_10  and  O_23
REMARK    4  A    between atoms: C_12  and  O_22
REMARK    5  A    between atoms: C_14  and  O_21
REMARK    6  A    between atoms: C_16  and  C_19
REMARK    7  A    between atoms: C_19  and  O_20
REMARK                            x       y       z     vdW  Elec       q    Type
REMARK                         _______ _______ _______ _____ _____    ______ ____
ROOT
ATOM      1  O   UNL     1       2.097  -0.067   1.207  0.00  0.00    -0.461 OA
ENDROOT
BRANCH   1   7
ATOM      2  C   UNL     1       2.316  -1.036   3.369  0.00  0.00    +0.046 A 
ATOM      3  C   UNL     1       3.076  -1.324   4.466  0.00  0.00    +0.015 A 
ATOM      4  C   UNL     1       4.416  -0.921   4.507  0.00  0.00    +0.021 A 
ATOM      5  C   UNL     1       4.976  -0.223   3.423  0.00  0.00    +0.143 A 
ATOM      6  C   UNL     1       4.192   0.056   2.314  0.00  0.00    +0.092 A 
ATOM      7  C   UNL     1       2.866  -0.345   2.291  0.00  0.00    +0.128 A 
ATOM      8  O   UNL     1       6.268   0.163   3.473  0.00  0.00    -0.422 OA
ATOM      9  C   UNL     1       7.035  -0.109   4.537  0.00  0.00    +0.341 A 
ATOM     10  O   UNL     1       8.195   0.262   4.537  0.00  0.00    -0.245 OA
ATOM     11  C   UNL     1       6.541  -0.813   5.663  0.00  0.00    +0.041 A 
ATOM     12  C   UNL     1       5.253  -1.219   5.677  0.00  0.00    -0.027 A 
ATOM     13  C   UNL     1       4.634  -1.954   6.834  0.00  0.00    +0.036 C 
ATOM     14  C   UNL     1       5.716  -2.545   7.737  0.00  0.00    +0.005 C 
ATOM     15  C   UNL     1       6.722  -1.437   8.072  0.00  0.00    +0.005 C 
ATOM     16  C   UNL     1       7.490  -1.084   6.800  0.00  0.00    +0.042 C 
ENDBRANCH   1   7
BRANCH   1  17
ATOM     17  C   UNL     1       0.740  -0.512   1.244  0.00  0.00    +0.339 C 
ATOM     18  C   UNL     1       0.002  -0.004   0.002  0.00  0.00    +0.214 C 
ATOM     19  C   UNL     1      -1.435  -0.536   0.016  0.00  0.00    +0.180 C 
ATOM     20  C   UNL     1      -1.400  -2.065   0.088  0.00  0.00    +0.177 C 
ATOM     21  C   UNL     1      -0.609  -2.494   1.326  0.00  0.00    +0.179 C 
ATOM     22  O   UNL     1       0.707  -1.941   1.263  0.00  0.00    -0.331 OA
BRANCH  20  23
ATOM     23  O   UNL     1      -2.735  -2.569   0.176  0.00  0.00    -0.386 OA
ATOM     24  H   UNL     1      -3.294  -2.335  -0.577  0.00  0.00    +0.210 HD
ENDBRANCH  20  23
BRANCH  19  25
ATOM     25  O   UNL     1      -2.107  -0.127  -1.177  0.00  0.00    -0.386 OA
ATOM     26  H   UNL     1      -2.159   0.833  -1.289  0.00  0.00    +0.210 HD
ENDBRANCH  19  25
BRANCH  18  27
ATOM     27  O   UNL     1      -0.017   1.425   0.010  0.00  0.00    -0.383 OA
ATOM     28  H   UNL     1       0.861   1.830   0.004  0.00  0.00    +0.210 HD
ENDBRANCH  18  27
BRANCH  21  29
ATOM     29  C   UNL     1      -0.519  -4.021   1.371  0.00  0.00    +0.190 C 
BRANCH  29  30
ATOM     30  O   UNL     1       0.119  -4.425   2.584  0.00  0.00    -0.392 OA
ATOM     31  H   UNL     1       0.210  -5.383   2.680  0.00  0.00    +0.210 HD
ENDBRANCH  29  30
ENDBRANCH  21  29
ENDBRANCH   1  17
TORSDOF 7
