REMARK  Name = ZINC36347642
REMARK  6 active torsions:
REMARK  status: ('A' for Active; 'I' for Inactive)
REMARK    1  A    between atoms: C_1  and  C_2
REMARK    2  A    between atoms: C_2  and  O_3
REMARK    3  A    between atoms: O_3  and  C_4
REMARK    4  A    between atoms: C_9  and  C_10
REMARK    5  A    between atoms: C_10  and  N_11
REMARK    6  A    between atoms: C_20  and  C_22
REMARK                            x       y       z     vdW  Elec       q    Type
REMARK                         _______ _______ _______ _____ _____    ______ ____
ROOT
ATOM      1  N   UNL     1      -4.160  -0.877  -1.387  0.00  0.00    +0.391 N 
ATOM      2  C   UNL     1      -4.320  -2.042  -2.259  0.00  0.00    -0.075 C 
ATOM      3  C   UNL     1      -4.653  -1.618  -3.684  0.00  0.00    +0.003 C 
ATOM      4  C   UNL     1      -3.945  -0.300  -4.011  0.00  0.00    +0.119 C 
ATOM      5  N   UNL     1      -4.807   0.816  -3.607  0.00  0.00    -0.352 N 
ATOM      6  C   UNL     1      -5.093   1.925  -4.343  0.00  0.00    +0.086 A 
ATOM      7  C   UNL     1      -5.904   2.719  -3.613  0.00  0.00    +0.019 A 
ATOM      8  C   UNL     1      -6.131   2.072  -2.382  0.00  0.00    +0.021 A 
ATOM      9  C   UNL     1      -5.454   0.908  -2.407  0.00  0.00    +0.009 A 
ATOM     10  C   UNL     1      -5.422  -0.128  -1.310  0.00  0.00    +0.011 C 
ATOM     11  H   UNL     1      -3.438  -0.278  -1.760  0.00  0.00    -0.080 HD
ENDROOT
BRANCH  10  12
ATOM     12  C   UNL     1      -5.520   0.555   0.030  0.00  0.00    -0.055 A 
ATOM     13  C   UNL     1      -4.545   1.453   0.421  0.00  0.00    +0.005 A 
ATOM     14  C   UNL     1      -4.634   2.081   1.649  0.00  0.00    +0.038 A 
ATOM     15  C   UNL     1      -5.702   1.809   2.488  0.00  0.00    +0.123 A 
ATOM     16  C   UNL     1      -6.678   0.909   2.096  0.00  0.00    +0.038 A 
ATOM     17  C   UNL     1      -6.589   0.287   0.865  0.00  0.00    +0.005 A 
ATOM     18  F   UNL     1      -5.790   2.422   3.689  0.00  0.00    -0.205 F 
ENDBRANCH  10  12
BRANCH   1  19
ATOM     19  C   UNL     1      -3.776  -1.324  -0.042  0.00  0.00    -0.038 C 
BRANCH  19  25
ATOM     20  C   UNL     1      -1.271  -1.274  -0.154  0.00  0.00    +0.122 A 
ATOM     21  C   UNL     1      -0.043  -1.917  -0.207  0.00  0.00    +0.046 A 
ATOM     22  C   UNL     1       0.013  -3.297  -0.218  0.00  0.00    +0.004 A 
ATOM     23  C   UNL     1      -1.154  -4.038  -0.176  0.00  0.00    +0.000 A 
ATOM     24  C   UNL     1      -2.379  -3.400  -0.123  0.00  0.00    +0.005 A 
ATOM     25  C   UNL     1      -2.440  -2.019  -0.106  0.00  0.00    -0.022 A 
BRANCH  20  26
ATOM     26  O   UNL     1      -1.329   0.084  -0.142  0.00  0.00    -0.492 OA
BRANCH  26  28
ATOM     27  C   UNL     1      -0.350   2.293  -0.172  0.00  0.00    +0.048 C 
ATOM     28  C   UNL     1      -0.085   0.786  -0.194  0.00  0.00    +0.225 C 
ENDBRANCH  26  28
ENDBRANCH  20  26
ENDBRANCH  19  25
ENDBRANCH   1  19
TORSDOF 5
