REMARK  Name = ZINC13567698
REMARK  4 active torsions:
REMARK  status: ('A' for Active; 'I' for Inactive)
REMARK    1  A    between atoms: C_1  and  N_2
REMARK    2  A    between atoms: C_12  and  C_30
REMARK    3  A    between atoms: C_13  and  N_29
REMARK    4  A    between atoms: N_14  and  C_22
REMARK                            x       y       z     vdW  Elec       q    Type
REMARK                         _______ _______ _______ _____ _____    ______ ____
ROOT
ATOM      1  C   UNL     1       1.779   3.311   0.426  0.00  0.00    +0.138 C 
ATOM      2  N   UNL     1       1.435   1.887   0.471  0.00  0.00    -0.273 N 
ATOM      3  C   UNL     1       0.223   1.399   0.924  0.00  0.00    +0.041 A 
ATOM      4  C   UNL     1      -0.888   2.094   1.407  0.00  0.00    +0.024 A 
ATOM      5  C   UNL     1      -1.984   1.341   1.801  0.00  0.00    +0.002 A 
ATOM      6  C   UNL     1      -1.993  -0.036   1.716  0.00  0.00    +0.000 A 
ATOM      7  C   UNL     1      -0.895  -0.739   1.233  0.00  0.00    +0.007 A 
ATOM      8  C   UNL     1       0.200   0.002   0.843  0.00  0.00    -0.001 A 
ATOM      9  C   UNL     1       1.528  -0.410   0.285  0.00  0.00    +0.141 C 
ATOM     10  C   UNL     1       2.263   0.899   0.076  0.00  0.00    +0.240 C 
ATOM     11  O   UNL     1       3.385   1.032  -0.365  0.00  0.00    -0.274 OA
ATOM     12  C   UNL     1       1.362  -1.117  -1.026  0.00  0.00    +0.089 C 
ATOM     13  C   UNL     1       1.534  -2.462  -1.121  0.00  0.00    +0.108 C 
ATOM     14  N   UNL     1       1.869  -3.196  -0.006  0.00  0.00    -0.260 N 
ATOM     15  C   UNL     1       2.408  -2.587   1.097  0.00  0.00    +0.025 C 
ATOM     16  C   UNL     1       2.280  -1.256   1.279  0.00  0.00    +0.037 C 
ATOM     17  C   UNL     1       2.846  -0.620   2.398  0.00  0.00    +0.162 C 
ATOM     18  O   UNL     1       2.705   0.579   2.537  0.00  0.00    -0.292 OA
ATOM     19  C   UNL     1       3.621  -1.395   3.428  0.00  0.00    +0.080 C 
ATOM     20  C   UNL     1       4.255  -2.619   2.758  0.00  0.00    +0.014 C 
ATOM     21  C   UNL     1       3.143  -3.442   2.101  0.00  0.00    +0.052 C 
ENDROOT
BRANCH  14  22
ATOM     22  C   UNL     1       1.658  -4.580   0.001  0.00  0.00    +0.041 A 
ATOM     23  C   UNL     1       0.476  -5.100   0.514  0.00  0.00    +0.024 A 
ATOM     24  C   UNL     1       0.269  -6.465   0.516  0.00  0.00    +0.003 A 
ATOM     25  C   UNL     1       1.239  -7.315   0.017  0.00  0.00    +0.015 A 
ATOM     26  C   UNL     1       2.419  -6.801  -0.490  0.00  0.00    +0.020 A 
ATOM     27  C   UNL     1       2.631  -5.435  -0.499  0.00  0.00    +0.039 A 
ATOM     28 BR   UNL     1       3.742  -7.967  -1.172  0.00  0.00    -0.050 Br
ENDBRANCH  14  22
BRANCH  13  29
ATOM     29  N   UNL     1       1.371  -3.090  -2.333  0.00  0.00    -0.345 N 
ATOM     30  H   UNL     1       1.050  -2.590  -3.099  0.00  0.00    +0.144 HD
ATOM     31  H   UNL     1       1.579  -4.034  -2.421  0.00  0.00    +0.144 HD
ENDBRANCH  13  29
BRANCH  12  32
ATOM     32  C   UNL     1       1.016  -0.365  -2.195  0.00  0.00    +0.100 C 
ATOM     33  N   UNL     1       0.743   0.231  -3.122  0.00  0.00    -0.191 NA
ENDBRANCH  12  32
TORSDOF 3
