REMARK  Name = ZINC25383723
REMARK  9 active torsions:
REMARK  status: ('A' for Active; 'I' for Inactive)
REMARK    1  A    between atoms: C_4  and  C_7
REMARK    2  A    between atoms: C_10  and  S_18
REMARK    3  A    between atoms: N_11  and  C_12
REMARK    4  A    between atoms: S_18  and  C_19
REMARK    5  A    between atoms: C_19  and  C_20
REMARK    6  A    between atoms: N_22  and  C_23
REMARK    7  A    between atoms: C_23  and  C_24
REMARK    8  A    between atoms: C_24  and  C_26
REMARK    9  A    between atoms: C_24  and  N_31
REMARK                            x       y       z     vdW  Elec       q    Type
REMARK                         _______ _______ _______ _____ _____    ______ ____
ROOT
ATOM      1  S   UNL     1      -2.874   4.256   0.065  0.00  0.00    -0.076 S 
ENDROOT
BRANCH   1   5
ATOM      2  C   UNL     1      -2.850   8.152   0.391  0.00  0.00    +0.169 A 
ATOM      3  N   UNL     1      -1.575   7.847   0.457  0.00  0.00    -0.128 NA
ATOM      4  N   UNL     1      -1.421   6.575   0.363  0.00  0.00    -0.122 NA
ATOM      5  C   UNL     1      -2.588   5.987   0.230  0.00  0.00    +0.197 A 
ATOM      6  N   UNL     1      -3.540   6.969   0.237  0.00  0.00    -0.270 N 
BRANCH   2  10
ATOM      7  C   UNL     1      -4.530  12.047   0.593  0.00  0.00    +0.000 A 
ATOM      8  C   UNL     1      -3.174  11.893   0.367  0.00  0.00    +0.001 A 
ATOM      9  C   UNL     1      -2.622  10.631   0.300  0.00  0.00    +0.011 A 
ATOM     10  C   UNL     1      -3.435   9.508   0.461  0.00  0.00    +0.020 A 
ATOM     11  C   UNL     1      -4.803   9.670   0.685  0.00  0.00    +0.011 A 
ATOM     12  C   UNL     1      -5.342  10.938   0.755  0.00  0.00    +0.001 A 
ENDBRANCH   2  10
BRANCH   6  13
ATOM     13  C   UNL     1      -4.927   6.807   0.115  0.00  0.00    +0.051 A 
ATOM     14  C   UNL     1      -5.594   7.323  -0.988  0.00  0.00    +0.026 A 
ATOM     15  C   UNL     1      -6.960   7.157  -1.107  0.00  0.00    +0.002 A 
ATOM     16  C   UNL     1      -7.665   6.487  -0.124  0.00  0.00    +0.000 A 
ATOM     17  C   UNL     1      -7.005   5.976   0.978  0.00  0.00    +0.002 A 
ATOM     18  C   UNL     1      -5.638   6.134   1.100  0.00  0.00    +0.026 A 
ENDBRANCH   6  13
ENDBRANCH   1   5
BRANCH   1  19
ATOM     19  C   UNL     1      -1.171   3.648   0.138  0.00  0.00    +0.173 C 
BRANCH  19  20
ATOM     20  C   UNL     1      -1.167   2.146   0.013  0.00  0.00    +0.223 C 
ATOM     21  O   UNL     1      -2.214   1.546  -0.112  0.00  0.00    -0.275 OA
ATOM     22  N   UNL     1      -0.002   1.470   0.042  0.00  0.00    -0.316 N 
ATOM     23  H   UNL     1       0.947   2.014   0.156  0.00  0.00    +0.149 HD
BRANCH  22  24
ATOM     24  C   UNL     1       0.001   0.010  -0.079  0.00  0.00    +0.094 C 
BRANCH  24  25
ATOM     25  C   UNL     1       1.445  -0.494  -0.140  0.00  0.00    -0.013 C 
BRANCH  25  26
ATOM     26  N   UNL     1       1.448  -1.942  -0.388  0.00  0.00    +0.386 N 
ATOM     27  C   UNL     1       0.763  -2.264  -1.666  0.00  0.00    -0.078 C 
ATOM     28  C   UNL     1       1.307  -3.672  -2.014  0.00  0.00    -0.020 C 
ATOM     29  C   UNL     1       2.784  -3.593  -1.564  0.00  0.00    -0.020 C 
ATOM     30  C   UNL     1       2.829  -2.452  -0.531  0.00  0.00    -0.078 C 
ATOM     31  H   UNL     1       0.939  -2.394   0.475  0.00  0.00    -0.081 HD
ENDBRANCH  25  26
BRANCH  25  32
ATOM     32  C   UNL     1       2.132  -0.207   1.170  0.00  0.00    -0.022 A 
ATOM     33  C   UNL     1       2.986   0.798   1.484  0.00  0.00    +0.009 A 
ATOM     34  C   UNL     1       3.498   0.867   2.766  0.00  0.00    +0.008 A 
ATOM     35  C   UNL     1       3.140  -0.079   3.668  0.00  0.00    +0.045 A 
ATOM     36  S   UNL     1       2.040  -1.107   2.709  0.00  0.00    -0.103 S 
ENDBRANCH  25  32
ENDBRANCH  24  25
ENDBRANCH  22  24
ENDBRANCH  19  20
ENDBRANCH   1  19
TORSDOF 9
