REMARK  Name = ZINC40320199
REMARK  13 active torsions:
REMARK  status: ('A' for Active; 'I' for Inactive)
REMARK    1  A    between atoms: C_1  and  C_2
REMARK    2  A    between atoms: C_2  and  O_3
REMARK    3  A    between atoms: O_3  and  C_4
REMARK    4  A    between atoms: C_6  and  C_33
REMARK    5  A    between atoms: C_9  and  O_10
REMARK    6  A    between atoms: O_10  and  C_11
REMARK    7  A    between atoms: C_11  and  C_12
REMARK    8  A    between atoms: C_12  and  C_14
REMARK    9  A    between atoms: C_12  and  O_32
REMARK   10  A    between atoms: C_14  and  N_15
REMARK   11  A    between atoms: N_15  and  C_16
REMARK   12  A    between atoms: N_15  and  C_24
REMARK   13  A    between atoms: C_16  and  C_17
REMARK                            x       y       z     vdW  Elec       q    Type
REMARK                         _______ _______ _______ _____ _____    ______ ____
ROOT
ATOM      1  C   UNL     1       2.965  -2.203  -7.714  0.00  0.00    -0.043 C 
ENDROOT
BRANCH   1   2
ATOM      2  N   UNL     1       3.458  -1.026  -8.443  0.00  0.00    +0.387 N 
ATOM      3  H   UNL     1       2.895  -0.882  -9.268  0.00  0.00    -0.081 HD
BRANCH   2   4
ATOM      4  C   UNL     1       3.372   0.158  -7.578  0.00  0.00    -0.045 C 
ATOM      5  C   UNL     1       1.897   0.487  -7.293  0.00  0.00    +0.009 C 
ATOM      6  C   UNL     1       1.783   1.895  -6.661  0.00  0.00    +0.164 C 
ATOM      7  S   UNL     1       3.254   2.764  -7.344  0.00  0.00    -0.033 S 
ATOM      8  O   UNL     1       4.119   3.118  -6.274  0.00  0.00    -0.174 OA
ATOM      9  O   UNL     1       2.818   3.767  -8.251  0.00  0.00    -0.174 OA
ATOM     10  C   UNL     1       4.011   1.381  -8.296  0.00  0.00    +0.151 C 
ENDBRANCH   2   4
BRANCH   2  11
ATOM     11  C   UNL     1       4.856  -1.245  -8.837  0.00  0.00    -0.041 C 
BRANCH  11  12
ATOM     12  C   UNL     1       5.223  -0.285  -9.940  0.00  0.00    -0.046 A 
ATOM     13  C   UNL     1       4.275   0.089 -10.874  0.00  0.00    +0.003 A 
ATOM     14  C   UNL     1       4.612   0.969 -11.886  0.00  0.00    +0.000 A 
ATOM     15  C   UNL     1       5.896   1.475 -11.964  0.00  0.00    +0.001 A 
ATOM     16  C   UNL     1       6.845   1.101 -11.031  0.00  0.00    +0.020 A 
ATOM     17  C   UNL     1       6.507   0.225 -10.015  0.00  0.00    +0.042 A 
ATOM     18 CL   UNL     1       7.696  -0.240  -8.838  0.00  0.00    -0.083 Cl
ENDBRANCH  11  12
ENDBRANCH   2  11
ENDBRANCH   1   2
BRANCH   1  19
ATOM     19  C   UNL     1       1.459  -2.349  -7.941  0.00  0.00    +0.135 C 
BRANCH  19  20
ATOM     20  O   UNL     1       1.201  -2.515  -9.336  0.00  0.00    -0.390 OA
ATOM     21  H   UNL     1       1.625  -3.292  -9.725  0.00  0.00    +0.210 HD
ENDBRANCH  19  20
BRANCH  19  22
ATOM     22  C   UNL     1       0.945  -3.572  -7.178  0.00  0.00    +0.258 C 
BRANCH  22  23
ATOM     23  O   UNL     1      -0.477  -3.642  -7.294  0.00  0.00    -0.486 OA
BRANCH  23  29
ATOM     24  C   UNL     1      -2.483  -4.804  -6.744  0.00  0.00    +0.163 A 
ATOM     25  C   UNL     1      -3.114  -5.858  -6.115  0.00  0.00    +0.060 A 
ATOM     26  C   UNL     1      -2.359  -6.795  -5.399  0.00  0.00    +0.018 A 
ATOM     27  C   UNL     1      -0.968  -6.657  -5.325  0.00  0.00    +0.015 A 
ATOM     28  C   UNL     1      -0.347  -5.603  -5.955  0.00  0.00    +0.050 A 
ATOM     29  C   UNL     1      -1.096  -4.677  -6.670  0.00  0.00    +0.162 A 
BRANCH  26  30
ATOM     30  C   UNL     1      -3.025  -7.919  -4.727  0.00  0.00    +0.258 C 
ATOM     31  O   UNL     1      -2.369  -8.729  -4.107  0.00  0.00    -0.296 OA
ENDBRANCH  26  30
BRANCH  24  32
ATOM     32  O   UNL     1      -3.214  -3.892  -7.440  0.00  0.00    -0.489 OA
BRANCH  32  34
ATOM     33  C   UNL     1      -5.276  -2.968  -8.297  0.00  0.00    +0.048 C 
ATOM     34  C   UNL     1      -4.629  -4.084  -7.473  0.00  0.00    +0.226 C 
ENDBRANCH  32  34
ENDBRANCH  24  32
ENDBRANCH  23  29
ENDBRANCH  22  23
ENDBRANCH  19  22
ENDBRANCH   1  19
TORSDOF 12
