REMARK  Name = ZINC44854596
REMARK  6 active torsions:
REMARK  status: ('A' for Active; 'I' for Inactive)
REMARK    1  A    between atoms: C_4  and  C_7
REMARK    2  A    between atoms: C_7  and  C_8
REMARK    3  A    between atoms: C_8  and  N_9
REMARK    4  A    between atoms: C_12  and  C_27
REMARK    5  A    between atoms: C_14  and  N_26
REMARK    6  A    between atoms: N_15  and  C_19
REMARK                            x       y       z     vdW  Elec       q    Type
REMARK                         _______ _______ _______ _____ _____    ______ ____
ROOT
ATOM      1  N   UNL     1       5.264  -1.958   1.365  0.00  0.00    -0.313 N 
ATOM      2  C   UNL     1       6.022  -2.064   2.518  0.00  0.00    +0.218 A 
ATOM      3  N   UNL     1       7.210  -2.654   2.437  0.00  0.00    -0.214 NA
ATOM      4  C   UNL     1       8.001  -2.797   3.493  0.00  0.00    +0.091 A 
ATOM      5  C   UNL     1       7.551  -2.301   4.738  0.00  0.00    +0.086 A 
ATOM      6  C   UNL     1       8.057  -2.253   6.031  0.00  0.00    +0.131 A 
ATOM      7  N   UNL     1       7.139  -1.638   6.803  0.00  0.00    -0.216 N 
ATOM      8  N   UNL     1       6.030  -1.278   6.028  0.00  0.00    -0.144 NA
ATOM      9  C   UNL     1       6.228  -1.653   4.783  0.00  0.00    +0.189 A 
ATOM     10  N   UNL     1       5.528  -1.569   3.635  0.00  0.00    -0.193 NA
ATOM     11  H   UNL     1       5.602  -2.313   0.528  0.00  0.00    +0.149 HD
ENDROOT
BRANCH   7  12
ATOM     12  C   UNL     1       7.274  -1.395   8.175  0.00  0.00    +0.068 A 
ATOM     13  C   UNL     1       7.939  -2.310   8.981  0.00  0.00    +0.030 A 
ATOM     14  C   UNL     1       8.072  -2.068  10.334  0.00  0.00    +0.040 A 
ATOM     15  C   UNL     1       7.542  -0.914  10.888  0.00  0.00    +0.124 A 
ATOM     16  C   UNL     1       6.878  -0.001  10.086  0.00  0.00    +0.040 A 
ATOM     17  C   UNL     1       6.748  -0.236   8.731  0.00  0.00    +0.030 A 
ATOM     18  F   UNL     1       7.672  -0.680  12.212  0.00  0.00    -0.205 F 
ENDBRANCH   7  12
BRANCH   4  19
ATOM     19  C   UNL     1       9.318  -3.460   3.371  0.00  0.00    +0.036 A 
ATOM     20  C   UNL     1       9.614  -4.581   4.148  0.00  0.00    +0.013 A 
ATOM     21  C   UNL     1      10.843  -5.194   4.029  0.00  0.00    +0.001 A 
ATOM     22  C   UNL     1      11.785  -4.701   3.143  0.00  0.00    +0.003 A 
ATOM     23  C   UNL     1      11.501  -3.591   2.369  0.00  0.00    +0.039 A 
ATOM     24  C   UNL     1      10.270  -2.969   2.473  0.00  0.00    +0.133 A 
ATOM     25  F   UNL     1       9.990  -1.888   1.713  0.00  0.00    -0.205 F 
ENDBRANCH   4  19
BRANCH   6  26
ATOM     26  N   UNL     1       9.277  -2.748   6.451  0.00  0.00    -0.342 N 
ATOM     27  H   UNL     1       9.864  -3.191   5.818  0.00  0.00    +0.144 HD
ATOM     28  H   UNL     1       9.547  -2.652   7.378  0.00  0.00    +0.144 HD
ENDBRANCH   6  26
BRANCH   1  29
ATOM     29  C   UNL     1       3.951  -1.310   1.409  0.00  0.00    +0.109 C 
BRANCH  29  30
ATOM     30  C   UNL     1       3.329  -1.325   0.011  0.00  0.00    +0.054 C 
BRANCH  30  34
ATOM     31  C   UNL     1      -0.500   0.566   0.135  0.00  0.00    +0.000 A 
ATOM     32  C   UNL     1       0.633   1.315  -0.124  0.00  0.00    +0.000 A 
ATOM     33  C   UNL     1       1.872   0.703  -0.164  0.00  0.00    +0.004 A 
ATOM     34  C   UNL     1       1.978  -0.658   0.056  0.00  0.00    -0.046 A 
ATOM     35  C   UNL     1       0.845  -1.406   0.316  0.00  0.00    +0.004 A 
ATOM     36  C   UNL     1      -0.394  -0.795   0.355  0.00  0.00    +0.000 A 
ENDBRANCH  30  34
ENDBRANCH  29  30
ENDBRANCH   1  29
TORSDOF 6
