REMARK  Name = ZINC33032969
REMARK  11 active torsions:
REMARK  status: ('A' for Active; 'I' for Inactive)
REMARK    1  A    between atoms: C_1  and  C_2
REMARK    2  A    between atoms: C_2  and  C_3
REMARK    3  A    between atoms: C_3  and  N_4
REMARK    4  A    between atoms: C_5  and  C_7
REMARK    5  A    between atoms: C_7  and  N_8
REMARK    6  A    between atoms: N_8  and  C_9
REMARK    7  A    between atoms: C_10  and  C_12
REMARK    8  A    between atoms: C_15  and  N_29
REMARK    9  A    between atoms: C_16  and  N_18
REMARK   10  A    between atoms: N_18  and  S_19
REMARK   11  A    between atoms: S_19  and  C_22
REMARK                            x       y       z     vdW  Elec       q    Type
REMARK                         _______ _______ _______ _____ _____    ______ ____
ROOT
ATOM      1  C   UNL     1      -1.830   2.409  -0.181  0.00  0.00    +0.039 A 
ATOM      2  C   UNL     1      -1.834   3.758  -0.547  0.00  0.00    +0.015 A 
ATOM      3  C   UNL     1      -3.025   4.443  -0.643  0.00  0.00    +0.026 A 
ATOM      4  C   UNL     1      -4.225   3.799  -0.368  0.00  0.00    +0.052 A 
ATOM      5  C   UNL     1      -4.229   2.452   0.004  0.00  0.00    +0.070 A 
ATOM      6  C   UNL     1      -3.037   1.759   0.097  0.00  0.00    +0.039 A 
ENDROOT
BRANCH   4   7
ATOM      7  N   UNL     1      -5.427   4.498  -0.462  0.00  0.00    -0.332 N 
ATOM      8  C   UNL     1      -5.187   5.933  -0.666  0.00  0.00    +0.086 C 
ATOM      9  C   UNL     1      -6.526   6.674  -0.684  0.00  0.00    -0.063 C 
ATOM     10  N   UNL     1      -7.371   6.127  -1.755  0.00  0.00    +0.381 N 
ATOM     11  C   UNL     1      -7.611   4.692  -1.551  0.00  0.00    -0.063 C 
ATOM     12  C   UNL     1      -6.272   3.951  -1.533  0.00  0.00    +0.086 C 
ATOM     13  H   UNL     1      -8.339   6.650  -1.762  0.00  0.00    -0.086 HD
ATOM     14  H   UNL     1      -6.871   6.268  -2.725  0.00  0.00    -0.086 HD
ENDBRANCH   4   7
BRANCH   1  17
ATOM     15  N   UNL     1       0.513   2.078  -0.797  0.00  0.00    -0.292 N 
ATOM     16  C   UNL     1       0.382   3.184  -1.748  0.00  0.00    +0.133 C 
ATOM     17  C   UNL     1      -0.555   1.674  -0.082  0.00  0.00    +0.247 C 
ATOM     18  O   UNL     1      -0.470   0.699   0.640  0.00  0.00    -0.270 OA
BRANCH  15  19
ATOM     19  C   UNL     1       1.806   1.412  -0.623  0.00  0.00    +0.203 C 
BRANCH  19  21
ATOM     20  N   UNL     1       3.024  -0.502  -1.609  0.00  0.00    -0.314 N 
ATOM     21  C   UNL     1       1.913   0.261  -1.589  0.00  0.00    +0.230 C 
ATOM     22  O   UNL     1       0.999   0.020  -2.349  0.00  0.00    -0.274 OA
ATOM     23  H   UNL     1       3.853  -0.284  -0.920  0.00  0.00    +0.149 HD
BRANCH  20  24
ATOM     24  C   UNL     1       3.127  -1.621  -2.549  0.00  0.00    +0.104 C 
BRANCH  24  26
ATOM     25  C   UNL     1       4.586  -3.486  -3.348  0.00  0.00    +0.005 C 
ATOM     26  C   UNL     1       4.478  -2.317  -2.366  0.00  0.00    +0.015 C 
ENDBRANCH  24  26
ENDBRANCH  20  24
ENDBRANCH  19  21
ENDBRANCH  15  19
ENDBRANCH   1  17
BRANCH   5  27
ATOM     27  N   UNL     1      -5.439   1.804   0.281  0.00  0.00    -0.214 N 
ATOM     28  H   UNL     1      -6.056   1.415  -0.543  0.00  0.00    +0.174 HD
BRANCH  27  29
ATOM     29  S   UNL     1      -5.942   1.625   1.848  0.00  0.00    +0.072 S 
ATOM     30  O   UNL     1      -7.198   0.962   1.798  0.00  0.00    -0.150 OA
ATOM     31  O   UNL     1      -4.835   1.106   2.573  0.00  0.00    -0.150 OA
BRANCH  29  32
ATOM     32  C   UNL     1      -6.249   3.239   2.485  0.00  0.00    +0.109 A 
ATOM     33  C   UNL     1      -5.235   3.939   3.112  0.00  0.00    +0.031 A 
ATOM     34  C   UNL     1      -5.474   5.206   3.608  0.00  0.00    +0.040 A 
ATOM     35  C   UNL     1      -6.732   5.772   3.485  0.00  0.00    +0.124 A 
ATOM     36  C   UNL     1      -7.748   5.068   2.862  0.00  0.00    +0.040 A 
ATOM     37  C   UNL     1      -7.506   3.802   2.362  0.00  0.00    +0.031 A 
ATOM     38  F   UNL     1      -6.968   7.009   3.973  0.00  0.00    -0.205 F 
ENDBRANCH  29  32
ENDBRANCH  27  29
ENDBRANCH   5  27
TORSDOF 9
