REMARK  Name = ZINC65198724
REMARK  7 active torsions:
REMARK  status: ('A' for Active; 'I' for Inactive)
REMARK    1  A    between atoms: C_1  and  C_2
REMARK    2  A    between atoms: C_2  and  O_3
REMARK    3  A    between atoms: O_3  and  C_4
REMARK    4  A    between atoms: C_4  and  C_6
REMARK    5  A    between atoms: C_6  and  N_7
REMARK    6  A    between atoms: C_12  and  S_17
REMARK    7  A    between atoms: S_17  and  N_20
REMARK                            x       y       z     vdW  Elec       q    Type
REMARK                         _______ _______ _______ _____ _____    ______ ____
ROOT
ATOM      1  N   UNL     1      -2.784  -3.888   0.008  0.00  0.00    -0.201 N 
ATOM      2  C   UNL     1      -2.727  -4.690   1.091  0.00  0.00    +0.352 A 
ATOM      3  O   UNL     1      -2.746  -4.326   2.255  0.00  0.00    -0.244 OA
ATOM      4  N   UNL     1      -2.645  -5.964   0.660  0.00  0.00    -0.249 N 
ATOM      5  C   UNL     1      -2.563  -7.157   1.337  0.00  0.00    +0.126 A 
ATOM      6  C   UNL     1      -2.489  -8.322   0.669  0.00  0.00    +0.122 A 
ATOM      7  C   UNL     1      -2.494  -8.342  -0.741  0.00  0.00    +0.033 A 
ATOM      8  C   UNL     1      -2.574  -7.179  -1.432  0.00  0.00    +0.050 A 
ATOM      9  C   UNL     1      -2.652  -5.954  -0.723  0.00  0.00    +0.162 A 
ATOM     10  N   UNL     1      -2.741  -4.708  -1.128  0.00  0.00    -0.148 NA
ENDROOT
BRANCH   6  11
ATOM     11  S   UNL     1      -2.384  -9.836   1.564  0.00  0.00    +0.063 S 
ATOM     12  O   UNL     1      -1.389 -10.620   0.919  0.00  0.00    -0.153 OA
ATOM     13  O   UNL     1      -2.308  -9.491   2.940  0.00  0.00    -0.153 OA
BRANCH  11  14
ATOM     14  N   UNL     1      -3.822 -10.630   1.353  0.00  0.00    -0.172 NA
ATOM     15  C   UNL     1      -4.953 -10.422   2.272  0.00  0.00    +0.114 C 
ATOM     16  C   UNL     1      -6.092  -9.784   1.478  0.00  0.00    +0.052 C 
ATOM     17  C   UNL     1      -6.317 -10.516   0.182  0.00  0.00    -0.042 A 
ATOM     18  C   UNL     1      -7.547 -10.354  -0.444  0.00  0.00    +0.004 A 
ATOM     19  C   UNL     1      -7.816 -10.989  -1.639  0.00  0.00    +0.000 A 
ATOM     20  C   UNL     1      -6.853 -11.792  -2.222  0.00  0.00    +0.000 A 
ATOM     21  C   UNL     1      -5.633 -11.958  -1.601  0.00  0.00    +0.005 A 
ATOM     22  C   UNL     1      -5.364 -11.324  -0.395  0.00  0.00    -0.028 A 
ATOM     23  C   UNL     1      -4.021 -11.564   0.240  0.00  0.00    +0.144 C 
ENDBRANCH  11  14
ENDBRANCH   6  11
BRANCH   1  24
ATOM     24  C   UNL     1      -2.881  -2.427   0.017  0.00  0.00    +0.269 C 
BRANCH  24  25
ATOM     25  C   UNL     1      -1.496  -1.832   0.006  0.00  0.00    +0.329 C 
ATOM     26  O   UNL     1      -0.528  -2.555  -0.007  0.00  0.00    -0.249 OA
BRANCH  25  27
ATOM     27  O   UNL     1      -1.339  -0.499   0.012  0.00  0.00    -0.464 OA
BRANCH  27  29
ATOM     28  C   UNL     1      -0.019   1.526   0.010  0.00  0.00    +0.048 C 
ATOM     29  C   UNL     1       0.002  -0.004   0.002  0.00  0.00    +0.229 C 
ENDBRANCH  27  29
ENDBRANCH  25  27
ENDBRANCH  24  25
ENDBRANCH   1  24
TORSDOF 6
