REMARK  Name = ZINC06149549
REMARK  13 active torsions:
REMARK  status: ('A' for Active; 'I' for Inactive)
REMARK    1  A    between atoms: C_1  and  C_2
REMARK    2  A    between atoms: C_2  and  C_3
REMARK    3  A    between atoms: C_3  and  C_4
REMARK    4  A    between atoms: C_3  and  C_5
REMARK    5  A    between atoms: C_3  and  N_6
REMARK    6  A    between atoms: C_7  and  C_11
REMARK    7  A    between atoms: C_11  and  C_13
REMARK    8  A    between atoms: C_11  and  N_69
REMARK    9  A    between atoms: C_18  and  C_25
REMARK   10  A    between atoms: C_26  and  C_27
REMARK   11  A    between atoms: C_26  and  N_69
REMARK   12  A    between atoms: C_34  and  C_35
REMARK   13  A    between atoms: C_34  and  N_69
REMARK                            x       y       z     vdW  Elec       q    Type
REMARK                         _______ _______ _______ _____ _____    ______ ____
ROOT
ATOM      1  C   UNL     1      -5.128  -0.121  -0.357  0.00  0.00    +0.040 C 
ENDROOT
BRANCH   1   2
ATOM      2  C   UNL     1      -3.624  -0.050  -0.283  0.00  0.00    +0.011 A 
ATOM      3  C   UNL     1      -3.023   0.344   0.867  0.00  0.00    +0.017 A 
ATOM      4  C   UNL     1      -1.560   0.399   0.908  0.00  0.00    -0.001 A 
ATOM      5  C   UNL     1      -0.883   0.802   2.064  0.00  0.00    +0.010 A 
ATOM      6  C   UNL     1       0.482   0.846   2.068  0.00  0.00    +0.004 A 
ATOM      7  C   UNL     1       1.204   0.500   0.934  0.00  0.00    -0.048 A 
ATOM      8  C   UNL     1       0.558   0.105  -0.217  0.00  0.00    +0.029 A 
ATOM      9  C   UNL     1      -0.832   0.052  -0.246  0.00  0.00    +0.049 A 
ATOM     10  N   UNL     1      -1.504  -0.340  -1.384  0.00  0.00    -0.322 N 
ATOM     11  H   UNL     1      -0.985  -0.590  -2.201  0.00  0.00    +0.169 HD
ATOM     12  C   UNL     1      -2.848  -0.392  -1.410  0.00  0.00    +0.251 A 
ATOM     13  O   UNL     1      -3.409  -0.743  -2.434  0.00  0.00    -0.268 OA
ATOM     14  C   UNL     1       2.709   0.557   0.962  0.00  0.00    +0.044 C 
ENDBRANCH   1   2
BRANCH   1  16
ATOM     15  N   UNL     1      -6.262  -0.656   1.864  0.00  0.00    -0.225 N 
ATOM     16  C   UNL     1      -5.714   0.210   0.991  0.00  0.00    +0.143 A 
ATOM     17  N   UNL     1      -5.784   1.396   1.544  0.00  0.00    -0.115 NA
ATOM     18  N   UNL     1      -6.352   1.267   2.693  0.00  0.00    -0.023 NA
ATOM     19  N   UNL     1      -6.640   0.028   2.891  0.00  0.00    -0.043 NA
BRANCH  15  20
ATOM     20  C   UNL     1      -6.402  -2.103   1.682  0.00  0.00    +0.061 C 
ATOM     21  C   UNL     1      -7.345  -2.381   0.510  0.00  0.00    +0.036 C 
ATOM     22  C   UNL     1      -5.031  -2.716   1.390  0.00  0.00    +0.036 C 
BRANCH  20  24
ATOM     23  C   UNL     1      -7.123  -4.235   2.767  0.00  0.00    +0.006 C 
ATOM     24  C   UNL     1      -6.976  -2.724   2.957  0.00  0.00    +0.026 C 
ENDBRANCH  20  24
ENDBRANCH  15  20
ENDBRANCH   1  16
BRANCH   1  25
ATOM     25  N   UNL     1      -5.605   0.835  -1.379  0.00  0.00    +0.397 N 
ATOM     26  H   UNL     1      -5.216   0.570  -2.291  0.00  0.00    -0.079 HD
BRANCH  25  27
ATOM     27  C   UNL     1      -7.080   0.797  -1.456  0.00  0.00    -0.041 C 
BRANCH  27  28
ATOM     28  C   UNL     1      -7.515   1.474  -2.730  0.00  0.00    -0.064 A 
ATOM     29  C   UNL     1      -7.913   2.798  -2.708  0.00  0.00    +0.003 A 
ATOM     30  C   UNL     1      -8.306   3.421  -3.877  0.00  0.00    +0.020 A 
ATOM     31  C   UNL     1      -8.313   2.717  -5.068  0.00  0.00    +0.041 A 
ATOM     32  C   UNL     1      -7.921   1.390  -5.088  0.00  0.00    +0.020 A 
ATOM     33  C   UNL     1      -7.522   0.770  -3.920  0.00  0.00    +0.003 A 
ATOM     34 CL   UNL     1      -8.814   3.497  -6.536  0.00  0.00    -0.084 Cl
ENDBRANCH  27  28
ENDBRANCH  25  27
BRANCH  25  35
ATOM     35  C   UNL     1      -5.151   2.201  -1.042  0.00  0.00    -0.001 C 
BRANCH  35  36
ATOM     36  C   UNL     1      -3.792   2.420  -1.655  0.00  0.00    +0.089 A 
ATOM     37  C   UNL     1      -3.552   2.780  -2.929  0.00  0.00    +0.042 A 
ATOM     38  C   UNL     1      -2.148   2.871  -3.071  0.00  0.00    +0.041 A 
ATOM     39  C   UNL     1      -1.615   2.561  -1.876  0.00  0.00    +0.195 A 
ATOM     40  O   UNL     1      -2.615   2.294  -1.021  0.00  0.00    -0.470 OA
ENDBRANCH  35  36
ENDBRANCH  25  35
ENDBRANCH   1  25
TORSDOF 9
