REMARK  Name = ZINC26417357
REMARK  10 active torsions:
REMARK  status: ('A' for Active; 'I' for Inactive)
REMARK    1  A    between atoms: C_1  and  C_2
REMARK    2  A    between atoms: C_2  and  C_3
REMARK    3  A    between atoms: C_2  and  C_4
REMARK    4  A    between atoms: C_2  and  C_5
REMARK    5  A    between atoms: C_18  and  C_20
REMARK    6  A    between atoms: C_20  and  N_21
REMARK    7  A    between atoms: N_21  and  C_22
REMARK    8  A    between atoms: C_22  and  C_23
REMARK    9  A    between atoms: C_23  and  C_24
REMARK   10  A    between atoms: C_27  and  O_30
REMARK                            x       y       z     vdW  Elec       q    Type
REMARK                         _______ _______ _______ _____ _____    ______ ____
ROOT
ATOM      1  C   UNL     1       0.718  -0.497  -1.257  0.00  0.00    -0.000 C 
ATOM      2  C   UNL     1       0.748  -2.029  -1.264  0.00  0.00    +0.009 C 
ATOM      3  C   UNL     1       1.237  -2.532  -2.621  0.00  0.00    +0.037 C 
ATOM      4  C   UNL     1       2.560  -1.848  -2.958  0.00  0.00    -0.023 A 
ATOM      5  C   UNL     1       2.925  -0.709  -2.325  0.00  0.00    -0.004 A 
ATOM      6  S   UNL     1       4.501  -0.277  -3.019  0.00  0.00    -0.073 S 
ATOM      7  C   UNL     1       4.665  -1.619  -4.153  0.00  0.00    +0.116 A 
ATOM      8  C   UNL     1       3.482  -2.365  -3.954  0.00  0.00    +0.075 A 
ATOM      9  C   UNL     1       3.315  -3.548  -4.749  0.00  0.00    +0.260 A 
ATOM     10  O   UNL     1       2.330  -4.260  -4.654  0.00  0.00    -0.267 OA
ATOM     11  N   UNL     1       4.322  -3.821  -5.613  0.00  0.00    -0.309 N 
ATOM     12  H   UNL     1       4.267  -4.712  -6.257  0.00  0.00    +0.170 HD
ATOM     13  C   UNL     1       5.424  -3.043  -5.734  0.00  0.00    +0.125 A 
ATOM     14  N   UNL     1       5.613  -1.953  -5.024  0.00  0.00    -0.225 NA
ATOM     15  C   UNL     1       2.162   0.025  -1.267  0.00  0.00    +0.046 C 
ENDROOT
BRANCH   1  17
ATOM     16  C   UNL     1      -0.019   1.526   0.010  0.00  0.00    +0.011 C 
ATOM     17  C   UNL     1       0.002  -0.004   0.002  0.00  0.00    -0.035 C 
ATOM     18  C   UNL     1       0.742  -0.511   1.242  0.00  0.00    +0.011 C 
ATOM     19  C   UNL     1      -1.433  -0.534   0.013  0.00  0.00    +0.011 C 
ENDBRANCH   1  17
BRANCH  13  20
ATOM     20  C   UNL     1       6.481  -3.444  -6.730  0.00  0.00    +0.155 C 
BRANCH  20  21
ATOM     21  N   UNL     1       7.579  -2.469  -6.699  0.00  0.00    -0.309 NA
ATOM     22  H   UNL     1       7.192  -1.472  -6.957  0.00  0.00    +0.122 HD
BRANCH  21  23
ATOM     23  C   UNL     1       8.631  -2.829  -7.659  0.00  0.00    +0.086 C 
BRANCH  23  24
ATOM     24  C   UNL     1       9.755  -1.792  -7.597  0.00  0.00    +0.050 C 
BRANCH  24  25
ATOM     25  C   UNL     1      10.834  -2.161  -8.582  0.00  0.00    -0.046 A 
ATOM     26  C   UNL     1      11.881  -2.973  -8.186  0.00  0.00    +0.007 A 
ATOM     27  C   UNL     1      12.868  -3.317  -9.089  0.00  0.00    +0.045 A 
ATOM     28  C   UNL     1      12.815  -2.839 -10.390  0.00  0.00    +0.117 A 
ATOM     29  C   UNL     1      11.765  -2.021 -10.783  0.00  0.00    +0.045 A 
ATOM     30  C   UNL     1      10.777  -1.684  -9.878  0.00  0.00    +0.007 A 
BRANCH  28  31
ATOM     31  O   UNL     1      13.787  -3.173 -11.278  0.00  0.00    -0.507 OA
ATOM     32  H   UNL     1      13.744  -2.793 -12.310  0.00  0.00    +0.292 HD
ENDBRANCH  28  31
ENDBRANCH  24  25
ENDBRANCH  23  24
ENDBRANCH  21  23
ENDBRANCH  20  21
ENDBRANCH  13  20
TORSDOF 7
