REMARK  Name = ZINC45046915
REMARK  3 active torsions:
REMARK  status: ('A' for Active; 'I' for Inactive)
REMARK    1  A    between atoms: C_1  and  C_2
REMARK    2  A    between atoms: C_2  and  N_8
REMARK    3  A    between atoms: C_9  and  C_11
REMARK                            x       y       z     vdW  Elec       q    Type
REMARK                         _______ _______ _______ _____ _____    ______ ____
ROOT
ATOM      1  N   UNL     1      -1.372  -0.511   0.012  0.00  0.00    -0.309 N 
ATOM      2  C   UNL     1      -2.216  -0.192  -0.989  0.00  0.00    +0.231 C 
ATOM      3  O   UNL     1      -1.838   0.516  -1.898  0.00  0.00    -0.274 OA
ATOM      4  H   UNL     1      -1.675  -1.077   0.740  0.00  0.00    +0.149 HD
ENDROOT
BRANCH   2   5
ATOM      5  C   UNL     1      -3.630  -0.713  -0.978  0.00  0.00    +0.145 C 
ATOM      6  C   UNL     1      -4.487   0.145  -0.047  0.00  0.00    +0.063 C 
ATOM      7  C   UNL     1      -5.942  -0.212  -0.212  0.00  0.00    -0.041 A 
ATOM      8  C   UNL     1      -6.836   0.182   0.772  0.00  0.00    +0.004 A 
ATOM      9  C   UNL     1      -8.177  -0.122   0.658  0.00  0.00    +0.000 A 
ATOM     10  C   UNL     1      -8.633  -0.822  -0.445  0.00  0.00    +0.000 A 
ATOM     11  C   UNL     1      -7.744  -1.215  -1.424  0.00  0.00    +0.005 A 
ATOM     12  C   UNL     1      -6.395  -0.913  -1.310  0.00  0.00    -0.030 A 
ATOM     13  C   UNL     1      -5.462  -1.374  -2.399  0.00  0.00    +0.117 C 
ATOM     14  N   UNL     1      -4.193  -0.642  -2.336  0.00  0.00    -0.301 NA
ATOM     15  H   UNL     1      -4.317   0.316  -2.626  0.00  0.00    +0.123 HD
ENDBRANCH   2   5
BRANCH   1  17
ATOM     16  C   UNL     1      -0.019   1.526   0.010  0.00  0.00    +0.031 C 
ATOM     17  C   UNL     1       0.002  -0.004   0.002  0.00  0.00    +0.032 C 
ATOM     18  C   UNL     1       0.718  -0.497  -1.257  0.00  0.00    +0.025 C 
ATOM     19  C   UNL     1       0.739  -2.027  -1.265  0.00  0.00    +0.002 C 
ATOM     20  C   UNL     1       1.479  -2.534  -0.026  0.00  0.00    +0.000 C 
ATOM     21  C   UNL     1       0.763  -2.041   1.233  0.00  0.00    +0.002 C 
ATOM     22  C   UNL     1       0.742  -0.511   1.242  0.00  0.00    +0.025 C 
ENDBRANCH   1  17
TORSDOF 2
