REMARK  Name = ZINC27533158
REMARK  7 active torsions:
REMARK  status: ('A' for Active; 'I' for Inactive)
REMARK    1  A    between atoms: C_1  and  O_2
REMARK    2  A    between atoms: O_2  and  C_3
REMARK    3  A    between atoms: C_3  and  C_5
REMARK    4  A    between atoms: C_6  and  N_33
REMARK    5  A    between atoms: C_10  and  C_12
REMARK    6  A    between atoms: C_15  and  N_18
REMARK    7  A    between atoms: C_24  and  C_27
REMARK                            x       y       z     vdW  Elec       q    Type
REMARK                         _______ _______ _______ _____ _____    ______ ____
ROOT
ATOM      1  C   UNL     1       3.066   1.483   1.168  0.00  0.00    +0.105 C 
ATOM      2  C   UNL     1       4.234   2.171   1.199  0.00  0.00    +0.195 C 
ATOM      3  O   UNL     1       4.772   2.680   0.081  0.00  0.00    -0.446 OA
ATOM      4  C   UNL     1       4.432   2.170  -1.118  0.00  0.00    +0.115 C 
ATOM      5  C   UNL     1       3.284   1.492  -1.291  0.00  0.00    +0.045 C 
ATOM      6  C   UNL     1       2.343   1.265  -0.132  0.00  0.00    +0.097 C 
ATOM      7  C   UNL     1       2.921   0.975  -2.550  0.00  0.00    +0.164 C 
ATOM      8  O   UNL     1       1.883   0.353  -2.663  0.00  0.00    -0.292 OA
ATOM      9  C   UNL     1       3.796   1.178  -3.757  0.00  0.00    +0.088 C 
ATOM     10  C   UNL     1       4.591   2.476  -3.580  0.00  0.00    +0.034 C 
ATOM     11  C   UNL     1       5.382   2.385  -2.273  0.00  0.00    +0.083 C 
ENDROOT
BRANCH   6  12
ATOM     12  C   UNL     1       1.189   2.230  -0.229  0.00  0.00    -0.035 A 
ATOM     13  C   UNL     1      -0.103   1.753  -0.343  0.00  0.00    +0.007 A 
ATOM     14  C   UNL     1      -1.161   2.638  -0.437  0.00  0.00    +0.033 A 
ATOM     15  C   UNL     1      -0.927   4.000  -0.408  0.00  0.00    +0.126 A 
ATOM     16  C   UNL     1       0.365   4.477  -0.293  0.00  0.00    +0.033 A 
ATOM     17  C   UNL     1       1.423   3.592  -0.204  0.00  0.00    +0.007 A 
BRANCH  15  18
ATOM     18  N   UNL     1      -2.060   4.948  -0.503  0.00  0.00    +0.056 N 
ATOM     19  O   UNL     1      -1.854   6.148  -0.481  0.00  0.00    -0.126 OA
ATOM     20  O   UNL     1      -3.199   4.527  -0.604  0.00  0.00    -0.126 OA
ENDBRANCH  15  18
ENDBRANCH   6  12
BRANCH  10  21
ATOM     21  C   UNL     1       5.542   2.649  -4.736  0.00  0.00    -0.043 A 
ATOM     22  C   UNL     1       6.516   1.699  -4.978  0.00  0.00    +0.004 A 
ATOM     23  C   UNL     1       7.385   1.856  -6.042  0.00  0.00    +0.000 A 
ATOM     24  C   UNL     1       7.286   2.968  -6.857  0.00  0.00    +0.000 A 
ATOM     25  C   UNL     1       6.315   3.920  -6.612  0.00  0.00    +0.000 A 
ATOM     26  C   UNL     1       5.443   3.761  -5.551  0.00  0.00    +0.004 A 
ENDBRANCH  10  21
BRANCH   2  27
ATOM     27  N   UNL     1       4.876   2.352   2.395  0.00  0.00    -0.329 N 
ATOM     28  H   UNL     1       5.824   2.909   2.432  0.00  0.00    +0.145 HD
ATOM     29  H   UNL     1       4.444   1.940   3.319  0.00  0.00    +0.145 HD
ENDBRANCH   2  27
BRANCH   1  30
ATOM     30  C   UNL     1       2.531   0.969   2.359  0.00  0.00    +0.341 C 
ATOM     31  O   UNL     1       3.053   1.238   3.426  0.00  0.00    -0.245 OA
BRANCH  30  33
ATOM     32  C   UNL     1       0.946  -0.309   3.572  0.00  0.00    +0.280 C 
ATOM     33  O   UNL     1       1.437   0.178   2.322  0.00  0.00    -0.465 OA
ENDBRANCH  30  33
ENDBRANCH   1  30
TORSDOF 6
