REMARK  Name = ZINC63328833
REMARK  5 active torsions:
REMARK  status: ('A' for Active; 'I' for Inactive)
REMARK    1  A    between atoms: C_1  and  C_2
REMARK    2  A    between atoms: C_6  and  C_26
REMARK    3  A    between atoms: N_8  and  C_15
REMARK    4  A    between atoms: C_15  and  C_16
REMARK    5  A    between atoms: C_16  and  C_17
REMARK                            x       y       z     vdW  Elec       q    Type
REMARK                         _______ _______ _______ _____ _____    ______ ____
ROOT
ATOM      1  C   UNL     1      -0.019   1.526   0.010  0.00  0.00    +0.035 C 
ATOM      2  C   UNL     1       0.002  -0.004   0.002  0.00  0.00    +0.132 C 
ATOM      3  C   UNL     1       0.778  -0.530  -1.150  0.00  0.00    +0.075 C 
ATOM      4  C   UNL     1       1.030  -0.109  -2.548  0.00  0.00    +0.114 C 
ATOM      5  N   UNL     1       2.383  -0.706  -2.793  0.00  0.00    -0.292 N 
ATOM      6  C   UNL     1       3.032  -0.873  -1.596  0.00  0.00    +0.243 C 
ATOM      7  O   UNL     1       4.065  -1.481  -1.410  0.00  0.00    -0.273 OA
ATOM      8  C   UNL     1       2.212  -0.135  -0.573  0.00  0.00    +0.220 C 
ATOM      9  N   UNL     1       2.042  -0.664   0.772  0.00  0.00    -0.179 NA
ATOM     10  N   UNL     1       0.835  -0.547   1.124  0.00  0.00    -0.188 NA
ENDROOT
BRANCH   4  11
ATOM     11  C   UNL     1       0.002  -0.692  -3.483  0.00  0.00    -0.024 A 
ATOM     12  C   UNL     1       0.119  -2.002  -3.909  0.00  0.00    +0.005 A 
ATOM     13  C   UNL     1      -0.823  -2.538  -4.767  0.00  0.00    +0.003 A 
ATOM     14  C   UNL     1      -1.883  -1.764  -5.201  0.00  0.00    +0.038 A 
ATOM     15  C   UNL     1      -2.001  -0.452  -4.775  0.00  0.00    +0.124 A 
ATOM     16  C   UNL     1      -1.060   0.082  -3.911  0.00  0.00    +0.043 A 
ATOM     17  F   UNL     1      -3.037   0.305  -5.198  0.00  0.00    -0.205 F 
ENDBRANCH   4  11
BRANCH   5  18
ATOM     18  C   UNL     1       2.927  -1.056  -4.107  0.00  0.00    +0.113 C 
BRANCH  18  19
ATOM     19  C   UNL     1       3.679   0.145  -4.685  0.00  0.00    +0.052 C 
BRANCH  19  20
ATOM     20  C   UNL     1       4.239  -0.215  -6.037  0.00  0.00    -0.040 C 
ATOM     21  C   UNL     1       3.673   0.025  -7.241  0.00  0.00    -0.001 A 
ATOM     22  C   UNL     1       2.414   0.667  -7.639  0.00  0.00    +0.010 A 
ATOM     23  C   UNL     1       2.112   0.762  -8.954  0.00  0.00    +0.001 A 
ATOM     24  C   UNL     1       2.969   0.263  -9.944  0.00  0.00    +0.002 A 
ATOM     25  C   UNL     1       4.143  -0.341  -9.657  0.00  0.00    +0.026 A 
ATOM     26  C   UNL     1       4.560  -0.494  -8.307  0.00  0.00    +0.043 A 
ATOM     27  N   UNL     1       5.633  -1.033  -7.781  0.00  0.00    -0.380 N 
ATOM     28  C   UNL     1       5.550  -0.912  -6.321  0.00  0.00    +0.144 C 
ATOM     29  H   UNL     1       6.362  -1.441  -8.274  0.00  0.00    +0.160 HD
ENDBRANCH  19  20
ENDBRANCH  18  19
ENDBRANCH   5  18
TORSDOF 4
