REMARK  Name = ZINC12482338
REMARK  8 active torsions:
REMARK  status: ('A' for Active; 'I' for Inactive)
REMARK    1  A    between atoms: C_4  and  C_7
REMARK    2  A    between atoms: C_7  and  C_8
REMARK    3  A    between atoms: C_14  and  C_16
REMARK    4  A    between atoms: C_16  and  C_17
REMARK    5  A    between atoms: C_22  and  C_24
REMARK    6  A    between atoms: C_24  and  C_25
REMARK    7  A    between atoms: C_27  and  C_30
REMARK    8  A    between atoms: C_30  and  C_31
REMARK                            x       y       z     vdW  Elec       q    Type
REMARK                         _______ _______ _______ _____ _____    ______ ____
ROOT
ATOM      1  C   UNL     1      -1.389  -4.932  -3.833  0.00  0.00    -0.002 C 
ATOM      2  C   UNL     1      -1.599  -6.180  -2.971  0.00  0.00    -0.015 C 
ATOM      3  C   UNL     1      -2.416  -7.207  -3.759  0.00  0.00    -0.082 C 
ATOM      4  C   UNL     1      -1.531  -6.384  -5.859  0.00  0.00    -0.079 C 
ATOM      5  C   UNL     1      -0.689  -5.332  -5.135  0.00  0.00    -0.019 C 
ATOM      6  N   UNL     1      -1.700  -7.569  -4.996  0.00  0.00    +0.379 N 
ATOM      7  H   UNL     1      -2.237  -8.282  -5.502  0.00  0.00    -0.086 HD
ATOM      8  H   UNL     1      -0.775  -7.945  -4.754  0.00  0.00    -0.086 HD
ENDROOT
BRANCH   1   9
ATOM      9  C   UNL     1      -0.521  -3.926  -3.074  0.00  0.00    +0.099 C 
BRANCH   9  16
ATOM     10  C   UNL     1       0.002  -0.004   0.002  0.00  0.00    -0.004 C 
ATOM     11  C   UNL     1       0.608  -0.498  -1.314  0.00  0.00    +0.023 C 
ATOM     12  C   UNL     1       0.659  -2.030  -1.304  0.00  0.00    +0.108 C 
ATOM     13  N   UNL     1      -0.689  -2.546  -1.028  0.00  0.00    -0.301 N 
ATOM     14  C   UNL     1      -1.399  -2.066   0.165  0.00  0.00    +0.108 C 
ATOM     15  C   UNL     1      -1.427  -0.534   0.139  0.00  0.00    +0.023 C 
ATOM     16  C   UNL     1      -1.262  -3.443  -1.854  0.00  0.00    +0.216 C 
ATOM     17  O   UNL     1      -2.375  -3.862  -1.616  0.00  0.00    -0.276 OA
BRANCH  10  18
ATOM     18  C   UNL     1      -0.019   1.526   0.010  0.00  0.00    +0.038 C 
BRANCH  18  22
ATOM     19  C   UNL     1       3.989   3.005  -0.020  0.00  0.00    +0.000 A 
ATOM     20  C   UNL     1       3.329   2.772  -1.212  0.00  0.00    +0.000 A 
ATOM     21  C   UNL     1       2.032   2.293  -1.202  0.00  0.00    +0.003 A 
ATOM     22  C   UNL     1       1.395   2.047  -0.000  0.00  0.00    -0.047 A 
ATOM     23  C   UNL     1       2.053   2.285   1.192  0.00  0.00    +0.003 A 
ATOM     24  C   UNL     1       3.352   2.759   1.182  0.00  0.00    +0.000 A 
ENDBRANCH  18  22
ENDBRANCH  10  18
ENDBRANCH   9  16
ENDBRANCH   1   9
BRANCH   5  25
ATOM     25  C   UNL     1       0.690  -5.914  -4.816  0.00  0.00    +0.061 C 
BRANCH  25  26
ATOM     26  C   UNL     1       1.427  -6.193  -6.101  0.00  0.00    +0.084 A 
ATOM     27  C   UNL     1       2.704  -5.710  -6.466  0.00  0.00    +0.071 A 
ATOM     28  C   UNL     1       2.915  -6.240  -7.695  0.00  0.00    +0.138 A 
ATOM     29  O   UNL     1       1.824  -6.961  -7.990  0.00  0.00    -0.359 OA
ATOM     30  N   UNL     1       1.011  -6.923  -7.095  0.00  0.00    -0.083 NA
BRANCH  28  31
ATOM     31  C   UNL     1       4.134  -6.052  -8.562  0.00  0.00    +0.080 C 
BRANCH  31  32
ATOM     32  C   UNL     1       5.152  -7.151  -8.255  0.00  0.00    -0.004 C 
ATOM     33  C   UNL     1       5.651  -6.997  -6.816  0.00  0.00    +0.004 C 
ATOM     34  C   UNL     1       6.670  -8.097  -6.510  0.00  0.00    +0.000 C 
ATOM     35  C   UNL     1       7.852  -7.980  -7.474  0.00  0.00    +0.000 C 
ATOM     36  C   UNL     1       7.353  -8.134  -8.913  0.00  0.00    +0.000 C 
ATOM     37  C   UNL     1       6.334  -7.035  -9.219  0.00  0.00    +0.004 C 
ENDBRANCH  31  32
ENDBRANCH  28  31
ENDBRANCH  25  26
ENDBRANCH   5  25
TORSDOF 8
