REMARK  Name = ZINC39575615
REMARK  12 active torsions:
REMARK  status: ('A' for Active; 'I' for Inactive)
REMARK    1  A    between atoms: C_1  and  C_2
REMARK    2  A    between atoms: C_2  and  C_3
REMARK    3  A    between atoms: C_2  and  O_4
REMARK    4  A    between atoms: O_4  and  C_5
REMARK    5  A    between atoms: C_6  and  O_31
REMARK    6  A    between atoms: C_8  and  C_12
REMARK    7  A    between atoms: C_12  and  O_14
REMARK    8  A    between atoms: O_14  and  C_15
REMARK    9  A    between atoms: C_15  and  C_16
REMARK   10  A    between atoms: C_18  and  O_19
REMARK   11  A    between atoms: C_28  and  C_30
REMARK   12  A    between atoms: O_31  and  C_32
REMARK                            x       y       z     vdW  Elec       q    Type
REMARK                         _______ _______ _______ _____ _____    ______ ____
ROOT
ATOM      1  C   UNL     1      -1.885  -7.588  -2.128  0.00  0.00    +0.269 C 
ENDROOT
BRANCH   1   2
ATOM      2  C   UNL     1      -2.010  -8.941  -1.476  0.00  0.00    +0.007 A 
ATOM      3  C   UNL     1      -3.044  -9.209  -0.601  0.00  0.00    +0.095 A 
ATOM      4  C   UNL     1      -3.143 -10.461  -0.010  0.00  0.00    +0.285 A 
ATOM      5  O   UNL     1      -2.253 -11.425  -0.268  0.00  0.00    -0.425 OA
ATOM      6  C   UNL     1      -1.224 -11.216  -1.115  0.00  0.00    +0.141 A 
ATOM      7  C   UNL     1      -1.077  -9.963  -1.750  0.00  0.00    +0.024 A 
ATOM      8  C   UNL     1      -0.009  -9.744  -2.637  0.00  0.00    +0.014 A 
ATOM      9  C   UNL     1       0.880 -10.740  -2.888  0.00  0.00    +0.024 A 
ATOM     10  C   UNL     1       0.739 -11.993  -2.265  0.00  0.00    +0.037 A 
ATOM     11  C   UNL     1      -0.310 -12.223  -1.373  0.00  0.00    +0.070 A 
ATOM     12  N   UNL     1       1.636 -12.983  -2.525  0.00  0.00    -0.286 N 
ATOM     13  C   UNL     1       1.351 -14.231  -2.207  0.00  0.00    +0.214 C 
ATOM     14  O   UNL     1       0.240 -14.516  -1.795  0.00  0.00    -0.276 OA
ATOM     15  C   UNL     1       2.398 -15.304  -2.354  0.00  0.00    +0.109 C 
ATOM     16  H   UNL     1       2.484 -12.771  -2.944  0.00  0.00    +0.155 HD
BRANCH   4  17
ATOM     17  O   UNL     1      -4.156 -10.709   0.842  0.00  0.00    -0.480 OA
ATOM     18  H   UNL     1      -4.151 -11.604   1.209  0.00  0.00    +0.295 HD
ENDBRANCH   4  17
ENDBRANCH   1   2
BRANCH   1  19
ATOM     19  O   UNL     1      -1.853  -6.575  -1.121  0.00  0.00    -0.456 OA
BRANCH  19  20
ATOM     20  C   UNL     1      -1.847  -5.295  -1.542  0.00  0.00    +0.340 C 
ATOM     21  O   UNL     1      -1.960  -5.044  -2.726  0.00  0.00    -0.245 OA
BRANCH  20  25
ATOM     22  C   UNL     1      -1.433  -2.139   1.274  0.00  0.00    +0.180 A 
ATOM     23  C   UNL     1      -1.455  -1.854  -0.091  0.00  0.00    +0.164 A 
ATOM     24  C   UNL     1      -1.590  -2.877  -1.008  0.00  0.00    +0.064 A 
ATOM     25  C   UNL     1      -1.703  -4.199  -0.566  0.00  0.00    +0.064 A 
ATOM     26  C   UNL     1      -1.679  -4.478   0.803  0.00  0.00    +0.039 A 
ATOM     27  C   UNL     1      -1.540  -3.452   1.713  0.00  0.00    +0.087 A 
ATOM     28 CL   UNL     1      -1.504  -3.802   3.413  0.00  0.00    -0.080 Cl
BRANCH  23  29
ATOM     29  O   UNL     1      -1.345  -0.567  -0.518  0.00  0.00    -0.491 OA
ATOM     30  C   UNL     1      -1.376  -0.348  -1.930  0.00  0.00    +0.277 C 
ENDBRANCH  23  29
BRANCH  22  31
ATOM     31  O   UNL     1      -1.300  -1.131   2.174  0.00  0.00    -0.484 OA
BRANCH  31  33
ATOM     32  C   UNL     1       0.072   0.717   2.911  0.00  0.00    +0.051 C 
ATOM     33  C   UNL     1       0.029  -0.770   2.553  0.00  0.00    +0.168 C 
ATOM     34  C   UNL     1       0.457  -1.599   3.766  0.00  0.00    +0.051 C 
ENDBRANCH  31  33
ENDBRANCH  22  31
ENDBRANCH  20  25
ENDBRANCH  19  20
ENDBRANCH   1  19
TORSDOF 8
