REMARK  Name = ZINC13063786
REMARK  14 active torsions:
REMARK  status: ('A' for Active; 'I' for Inactive)
REMARK    1  A    between atoms: C_1  and  C_2
REMARK    2  A    between atoms: C_2  and  C_3
REMARK    3  A    between atoms: C_3  and  C_5
REMARK    4  A    between atoms: C_3  and  N_68
REMARK    5  A    between atoms: N_9  and  C_10
REMARK    6  A    between atoms: C_10  and  C_11
REMARK    7  A    between atoms: C_10  and  C_12
REMARK    8  A    between atoms: C_10  and  C_13
REMARK    9  A    between atoms: C_13  and  C_14
REMARK   10  A    between atoms: C_15  and  C_16
REMARK   11  A    between atoms: C_15  and  N_68
REMARK   12  A    between atoms: C_23  and  C_24
REMARK   13  A    between atoms: C_23  and  N_68
REMARK   14  A    between atoms: C_29  and  C_36
REMARK                            x       y       z     vdW  Elec       q    Type
REMARK                         _______ _______ _______ _____ _____    ______ ____
ROOT
ATOM      1  N   UNL     1       0.439  -3.211  -1.343  0.00  0.00    +0.392 N 
ATOM      2  H   UNL     1       1.056  -2.803  -2.055  0.00  0.00    -0.080 HD
ENDROOT
BRANCH   1   3
ATOM      3  C   UNL     1       0.665  -4.670  -1.291  0.00  0.00    +0.003 C 
BRANCH   3   4
ATOM      4  C   UNL     1       2.135  -4.937  -1.494  0.00  0.00    +0.139 A 
ATOM      5  N   UNL     1       3.131  -4.276  -0.957  0.00  0.00    -0.115 NA
ATOM      6  N   UNL     1       4.230  -4.805  -1.373  0.00  0.00    -0.023 NA
ATOM      7  N   UNL     1       3.960  -5.787  -2.162  0.00  0.00    -0.043 NA
ATOM      8  N   UNL     1       2.678  -5.903  -2.257  0.00  0.00    -0.225 N 
BRANCH   8   9
ATOM      9  C   UNL     1       1.952  -6.897  -3.051  0.00  0.00    +0.061 C 
ATOM     10  C   UNL     1       0.949  -7.629  -2.156  0.00  0.00    +0.036 C 
ATOM     11  C   UNL     1       1.204  -6.196  -4.187  0.00  0.00    +0.036 C 
BRANCH   9  12
ATOM     12  C   UNL     1       2.942  -7.904  -3.637  0.00  0.00    +0.026 C 
ATOM     13  C   UNL     1       2.183  -8.943  -4.466  0.00  0.00    +0.006 C 
ENDBRANCH   9  12
ENDBRANCH   8   9
ENDBRANCH   3   4
BRANCH   3  15
ATOM     14  C   UNL     1      -1.281  -5.044   0.230  0.00  0.00    +0.002 C 
ATOM     15  C   UNL     1       0.228  -5.231   0.064  0.00  0.00    -0.011 C 
ENDBRANCH   3  15
ENDBRANCH   1   3
BRANCH   1  16
ATOM     16  C   UNL     1       0.750  -2.604  -0.032  0.00  0.00    -0.042 C 
BRANCH  16  17
ATOM     17  C   UNL     1       0.884  -1.113  -0.208  0.00  0.00    -0.064 A 
ATOM     18  C   UNL     1      -0.195  -0.288   0.052  0.00  0.00    +0.004 A 
ATOM     19  C   UNL     1      -0.074   1.079  -0.109  0.00  0.00    +0.038 A 
ATOM     20  C   UNL     1       1.128   1.622  -0.532  0.00  0.00    +0.123 A 
ATOM     21  C   UNL     1       2.207   0.795  -0.793  0.00  0.00    +0.038 A 
ATOM     22  C   UNL     1       2.084  -0.572  -0.630  0.00  0.00    +0.004 A 
ATOM     23  F   UNL     1       1.247   2.959  -0.691  0.00  0.00    -0.205 F 
ENDBRANCH  16  17
ENDBRANCH   1  16
BRANCH   1  24
ATOM     24  C   UNL     1      -0.966  -2.931  -1.708  0.00  0.00    -0.036 C 
BRANCH  24  25
ATOM     25  C   UNL     1      -1.149  -3.207  -3.178  0.00  0.00    +0.001 A 
ATOM     26  C   UNL     1      -1.674  -4.390  -3.583  0.00  0.00    +0.017 A 
ATOM     27  C   UNL     1      -1.838  -4.627  -5.018  0.00  0.00    -0.001 A 
ATOM     28  C   UNL     1      -2.375  -5.827  -5.497  0.00  0.00    +0.010 A 
ATOM     29  C   UNL     1      -2.516  -6.017  -6.842  0.00  0.00    +0.004 A 
ATOM     30  C   UNL     1      -2.130  -5.030  -7.739  0.00  0.00    -0.048 A 
ATOM     31  C   UNL     1      -1.599  -3.840  -7.290  0.00  0.00    +0.029 A 
ATOM     32  C   UNL     1      -1.446  -3.624  -5.925  0.00  0.00    +0.049 A 
ATOM     33  N   UNL     1      -0.919  -2.443  -5.448  0.00  0.00    -0.322 N 
ATOM     34  H   UNL     1      -0.649  -1.753  -6.074  0.00  0.00    +0.169 HD
ATOM     35  C   UNL     1      -0.777  -2.232  -4.128  0.00  0.00    +0.251 A 
ATOM     36  O   UNL     1      -0.311  -1.174  -3.742  0.00  0.00    -0.268 OA
ATOM     37  C   UNL     1      -2.295  -5.263  -9.219  0.00  0.00    +0.044 C 
ENDBRANCH  24  25
ENDBRANCH   1  24
TORSDOF 9
