REMARK  Name = ZINC13496631
REMARK  6 active torsions:
REMARK  status: ('A' for Active; 'I' for Inactive)
REMARK    1  A    between atoms: C_1  and  C_2
REMARK    2  A    between atoms: C_2  and  O_3
REMARK    3  A    between atoms: O_3  and  C_4
REMARK    4  A    between atoms: C_7  and  N_10
REMARK    5  A    between atoms: C_15  and  C_28
REMARK    6  A    between atoms: C_29  and  C_30
REMARK                            x       y       z     vdW  Elec       q    Type
REMARK                         _______ _______ _______ _____ _____    ______ ____
ROOT
ATOM      1  N   UNL     1       1.137  -5.959   1.753  0.00  0.00    -0.209 N 
ATOM      2  C   UNL     1       1.758  -6.545   2.810  0.00  0.00    +0.232 C 
ATOM      3  O   UNL     1       2.108  -6.008   3.839  0.00  0.00    -0.274 OA
ATOM      4  C   UNL     1       1.923  -7.987   2.447  0.00  0.00    +0.110 C 
ATOM      5  C   UNL     1       1.873  -9.031   3.534  0.00  0.00    +0.064 C 
ATOM      6  C   UNL     1       1.955 -10.389   2.895  0.00  0.00    +0.032 A 
ATOM      7  C   UNL     1       1.694 -10.756   1.621  0.00  0.00    +0.088 A 
ATOM      8  N   UNL     1       1.886 -12.088   1.349  0.00  0.00    -0.311 N 
ATOM      9  C   UNL     1       2.290 -12.922   2.326  0.00  0.00    +0.289 A 
ATOM     10  S   UNL     1       2.431 -11.914   3.665  0.00  0.00    -0.030 S 
ATOM     11  O   UNL     1       2.501 -14.120   2.257  0.00  0.00    -0.260 OA
ATOM     12  S   UNL     1       1.129  -9.565   0.415  0.00  0.00    -0.093 S 
ATOM     13  C   UNL     1       0.681  -8.193   1.527  0.00  0.00    +0.152 C 
ATOM     14  C   UNL     1       0.630  -6.847   0.860  0.00  0.00    +0.240 C 
ATOM     15  O   UNL     1       0.219  -6.604  -0.255  0.00  0.00    -0.274 OA
ATOM     16  H   UNL     1       1.731 -12.428   0.454  0.00  0.00    +0.170 HD
ENDROOT
BRANCH   1  20
ATOM     17  C   UNL     1       0.802  -1.825   1.306  0.00  0.00    +0.121 A 
ATOM     18  C   UNL     1       0.259  -2.672   0.350  0.00  0.00    +0.047 A 
ATOM     19  C   UNL     1       0.370  -4.040   0.498  0.00  0.00    +0.027 A 
ATOM     20  C   UNL     1       1.024  -4.568   1.603  0.00  0.00    +0.044 A 
ATOM     21  C   UNL     1       1.567  -3.720   2.558  0.00  0.00    +0.027 A 
ATOM     22  C   UNL     1       1.461  -2.352   2.407  0.00  0.00    +0.047 A 
BRANCH  17  23
ATOM     23  O   UNL     1       0.693  -0.477   1.160  0.00  0.00    -0.492 OA
BRANCH  23  25
ATOM     24  C   UNL     1      -0.019   1.526   0.010  0.00  0.00    +0.048 C 
ATOM     25  C   UNL     1       0.002  -0.004   0.002  0.00  0.00    +0.225 C 
ENDBRANCH  23  25
ENDBRANCH  17  23
ENDBRANCH   1  20
BRANCH   5  26
ATOM     26  C   UNL     1       0.580  -8.904   4.298  0.00  0.00    -0.017 C 
ATOM     27  C   UNL     1       0.602  -8.653   5.600  0.00  0.00    +0.004 C 
BRANCH  27  28
ATOM     28  C   UNL     1      -0.665  -8.528   6.350  0.00  0.00    -0.025 A 
ATOM     29  C   UNL     1      -1.887  -8.681   5.692  0.00  0.00    +0.008 A 
ATOM     30  C   UNL     1      -3.066  -8.563   6.398  0.00  0.00    +0.001 A 
ATOM     31  C   UNL     1      -3.040  -8.294   7.755  0.00  0.00    +0.000 A 
ATOM     32  C   UNL     1      -1.833  -8.142   8.413  0.00  0.00    +0.001 A 
ATOM     33  C   UNL     1      -0.646  -8.264   7.720  0.00  0.00    +0.008 A 
ENDBRANCH  27  28
ENDBRANCH   5  26
TORSDOF 5
