REMARK  Name = ZINC59168629
REMARK  5 active torsions:
REMARK  status: ('A' for Active; 'I' for Inactive)
REMARK    1  A    between atoms: C_1  and  C_2
REMARK    2  A    between atoms: C_2  and  C_17
REMARK    3  A    between atoms: N_3  and  N_4
REMARK    4  A    between atoms: C_5  and  C_10
REMARK    5  A    between atoms: C_20  and  O_23
REMARK                            x       y       z     vdW  Elec       q    Type
REMARK                         _______ _______ _______ _____ _____    ______ ____
ROOT
ATOM      1  N   UNL     1       0.024   0.035   2.340  0.00  0.00    -0.186 N 
ATOM      2  C   UNL     1       1.122   0.467   3.050  0.00  0.00    +0.187 A 
ATOM      3  N   UNL     1       0.671   1.071   4.127  0.00  0.00    -0.126 NA
ATOM      4  N   UNL     1      -0.614   1.046   4.139  0.00  0.00    -0.119 NA
ATOM      5  C   UNL     1      -1.065   0.430   3.069  0.00  0.00    +0.223 A 
ATOM      6  S   UNL     1      -2.756   0.161   2.653  0.00  0.00    -0.007 SA
ENDROOT
BRANCH   2   7
ATOM      7  C   UNL     1       2.539   0.286   2.673  0.00  0.00    +0.039 A 
ATOM      8  C   UNL     1       2.871  -0.375   1.489  0.00  0.00    +0.013 A 
ATOM      9  C   UNL     1       4.196  -0.540   1.143  0.00  0.00    +0.001 A 
ATOM     10  C   UNL     1       5.196  -0.052   1.966  0.00  0.00    +0.001 A 
ATOM     11  C   UNL     1       4.876   0.604   3.140  0.00  0.00    +0.021 A 
ATOM     12  C   UNL     1       3.553   0.781   3.497  0.00  0.00    +0.052 A 
ATOM     13 CL   UNL     1       3.152   1.611   4.968  0.00  0.00    -0.083 Cl
ENDBRANCH   2   7
BRANCH   1  16
ATOM     14  C   UNL     1      -0.018   1.503   0.010  0.00  0.00    +0.068 C 
ATOM     15  C   UNL     1       0.002  -0.004   0.002  0.00  0.00    +0.066 C 
ATOM     16  N   UNL     1       0.022  -0.659   1.122  0.00  0.00    -0.167 NA
BRANCH  15  17
ATOM     17  C   UNL     1      -0.000  -0.734  -1.278  0.00  0.00    -0.002 A 
ATOM     18  C   UNL     1      -0.015  -0.031  -2.486  0.00  0.00    +0.013 A 
ATOM     19  C   UNL     1      -0.017  -0.718  -3.681  0.00  0.00    +0.046 A 
ATOM     20  C   UNL     1      -0.004  -2.107  -3.686  0.00  0.00    +0.117 A 
ATOM     21  C   UNL     1       0.011  -2.810  -2.488  0.00  0.00    +0.046 A 
ATOM     22  C   UNL     1       0.019  -2.131  -1.289  0.00  0.00    +0.013 A 
BRANCH  20  23
ATOM     23  O   UNL     1      -0.006  -2.779  -4.866  0.00  0.00    -0.507 OA
ATOM     24  H   UNL     1       0.877  -2.966  -5.214  0.00  0.00    +0.292 HD
ENDBRANCH  20  23
ENDBRANCH  15  17
ENDBRANCH   1  16
TORSDOF 4
