REMARK  Name = ZINC08039523
REMARK  7 active torsions:
REMARK  status: ('A' for Active; 'I' for Inactive)
REMARK    1  A    between atoms: C_1  and  C_2
REMARK    2  A    between atoms: C_4  and  C_7
REMARK    3  A    between atoms: C_7  and  S_8
REMARK    4  A    between atoms: S_8  and  C_9
REMARK    5  A    between atoms: C_12  and  C_15
REMARK    6  A    between atoms: N_13  and  N_14
REMARK    7  A    between atoms: C_15  and  C_16
REMARK                            x       y       z     vdW  Elec       q    Type
REMARK                         _______ _______ _______ _____ _____    ______ ____
ROOT
ATOM      1  C   UNL     1      -2.808   1.915   3.348  0.00  0.00    +0.209 A 
ATOM      2  N   UNL     1      -2.139   3.045   3.388  0.00  0.00    -0.121 NA
ATOM      3  N   UNL     1      -1.560   3.249   2.259  0.00  0.00    -0.132 NA
ATOM      4  C   UNL     1      -1.822   2.271   1.438  0.00  0.00    +0.155 A 
ATOM      5  N   UNL     1      -2.630   1.389   2.101  0.00  0.00    -0.228 N 
ENDROOT
BRANCH   5   6
ATOM      6  N   UNL     1      -3.149   0.222   1.616  0.00  0.00    -0.295 N 
ATOM      7  H   UNL     1      -2.526  -0.552   1.794  0.00  0.00    +0.163 HD
ATOM      8  H   UNL     1      -4.064   0.046   2.001  0.00  0.00    +0.163 HD
ENDBRANCH   5   6
BRANCH   1   9
ATOM      9  S   UNL     1      -3.759   1.214   4.655  0.00  0.00    -0.078 S 
BRANCH   9  10
ATOM     10  C   UNL     1      -3.512   2.471   5.933  0.00  0.00    +0.133 C 
BRANCH  10  14
ATOM     11  C   UNL     1      -3.818   0.158  10.358  0.00  0.00    +0.073 C 
ATOM     12  C   UNL     1      -4.313   0.985   9.200  0.00  0.00    +0.076 A 
ATOM     13  N   UNL     1      -3.676   1.340   8.108  0.00  0.00    -0.248 NA
ATOM     14  C   UNL     1      -4.257   2.072   7.181  0.00  0.00    +0.059 A 
ATOM     15  C   UNL     1      -5.541   2.464   7.379  0.00  0.00    +0.071 A 
ATOM     16  S   UNL     1      -5.872   1.712   8.967  0.00  0.00    -0.081 S 
ENDBRANCH  10  14
ENDBRANCH   9  10
ENDBRANCH   1   9
BRANCH   4  17
ATOM     17  C   UNL     1      -1.330   2.140   0.020  0.00  0.00    +0.113 C 
BRANCH  17  18
ATOM     18  C   UNL     1      -0.017   1.401   0.010  0.00  0.00    -0.032 A 
ATOM     19  C   UNL     1       1.157   2.090   0.002  0.00  0.00    +0.004 A 
ATOM     20  C   UNL     1       2.380   1.424  -0.012  0.00  0.00    +0.001 A 
ATOM     21  C   UNL     1       2.437   0.064  -0.020  0.00  0.00    +0.008 A 
ATOM     22  C   UNL     1       1.247  -0.682  -0.013  0.00  0.00    -0.018 A 
ATOM     23  C   UNL     1       0.002  -0.004   0.002  0.00  0.00    -0.014 A 
ATOM     24  C   UNL     1      -1.189  -0.750   0.008  0.00  0.00    +0.009 A 
ATOM     25  C   UNL     1      -1.131  -2.110  -0.001  0.00  0.00    +0.001 A 
ATOM     26  C   UNL     1       0.092  -2.777  -0.016  0.00  0.00    +0.001 A 
ATOM     27  C   UNL     1       1.266  -2.087  -0.022  0.00  0.00    +0.008 A 
ENDBRANCH  17  18
ENDBRANCH   4  17
TORSDOF 6
