REMARK  Name = ZINC43630451
REMARK  7 active torsions:
REMARK  status: ('A' for Active; 'I' for Inactive)
REMARK    1  A    between atoms: C_1  and  C_2
REMARK    2  A    between atoms: C_5  and  C_7
REMARK    3  A    between atoms: C_7  and  N_8
REMARK    4  A    between atoms: C_13  and  C_22
REMARK    5  A    between atoms: C_23  and  C_34
REMARK    6  A    between atoms: C_25  and  C_33
REMARK    7  A    between atoms: C_27  and  N_28
REMARK                            x       y       z     vdW  Elec       q    Type
REMARK                         _______ _______ _______ _____ _____    ______ ____
ROOT
ATOM      1  N   UNL     1       2.265  -3.475  -1.373  0.00  0.00    -0.295 N 
ATOM      2  C   UNL     1       1.511  -4.489  -2.118  0.00  0.00    +0.110 C 
ATOM      3  C   UNL     1       1.876  -4.295  -3.601  0.00  0.00    +0.003 C 
ATOM      4  C   UNL     1       0.903  -3.276  -4.245  0.00  0.00    -0.007 C 
ATOM      5  C   UNL     1       1.836  -2.537  -5.238  0.00  0.00    -0.034 C 
ATOM      6  N   UNL     1       3.134  -2.431  -4.536  0.00  0.00    +0.394 N 
ATOM      7  C   UNL     1       3.209  -3.512  -3.513  0.00  0.00    +0.018 C 
ATOM      8  C   UNL     1       3.244  -2.941  -2.125  0.00  0.00    +0.206 C 
ATOM      9  O   UNL     1       4.043  -2.117  -1.736  0.00  0.00    -0.277 OA
ATOM     10  C   UNL     1       4.405  -4.416  -3.820  0.00  0.00    -0.004 C 
ATOM     11  C   UNL     1       5.305  -3.514  -4.708  0.00  0.00    -0.019 C 
ATOM     12  C   UNL     1       4.230  -2.669  -5.501  0.00  0.00    -0.077 C 
ATOM     13  H   UNL     1       3.230  -1.520  -4.112  0.00  0.00    -0.079 HD
ENDROOT
BRANCH   5  14
ATOM     14  C   UNL     1       1.292  -1.167  -5.547  0.00  0.00    -0.033 A 
ATOM     15  C   UNL     1       1.314  -0.179  -4.582  0.00  0.00    -0.047 A 
ATOM     16  C   UNL     1       0.815   1.079  -4.865  0.00  0.00    +0.007 A 
ATOM     17  C   UNL     1       0.291   1.352  -6.115  0.00  0.00    -0.048 A 
ATOM     18  C   UNL     1       0.265   0.369  -7.085  0.00  0.00    +0.031 A 
ATOM     19  C   UNL     1       0.771  -0.893  -6.805  0.00  0.00    +0.067 A 
ATOM     20  C   UNL     1      -0.253   2.724  -6.420  0.00  0.00    +0.044 C 
ATOM     21  C   UNL     1       1.884  -0.473  -3.218  0.00  0.00    +0.044 C 
BRANCH  19  22
ATOM     22  N   UNL     1       0.752  -1.891  -7.789  0.00  0.00    -0.240 N 
ATOM     23  C   UNL     1       0.422  -1.721  -9.089  0.00  0.00    +0.114 A 
ATOM     24  C   UNL     1       0.529  -2.922  -9.702  0.00  0.00    +0.041 A 
ATOM     25  C   UNL     1       0.938  -3.859  -8.746  0.00  0.00    +0.135 A 
ATOM     26  N   UNL     1       1.077  -3.241  -7.601  0.00  0.00    -0.175 NA
ENDBRANCH  19  22
ENDBRANCH   5  14
BRANCH   1  27
ATOM     27  C   UNL     1       1.984  -3.089   0.011  0.00  0.00    +0.181 C 
BRANCH  27  32
ATOM     28  C   UNL     1       0.062   1.575   0.003  0.00  0.00    +0.086 C 
ATOM     29  C   UNL     1       0.153   0.071   0.021  0.00  0.00    +0.102 A 
ATOM     30  C   UNL     1      -0.889  -0.780   0.064  0.00  0.00    +0.045 A 
ATOM     31  C   UNL     1      -0.350  -2.087   0.066  0.00  0.00    +0.046 A 
ATOM     32  C   UNL     1       0.988  -1.957   0.024  0.00  0.00    +0.122 A 
ATOM     33  O   UNL     1       1.287  -0.648  -0.009  0.00  0.00    -0.463 OA
ENDBRANCH  27  32
ENDBRANCH   1  27
TORSDOF 4
