REMARK  Name = ZINC02730672
REMARK  6 active torsions:
REMARK  status: ('A' for Active; 'I' for Inactive)
REMARK    1  A    between atoms: C_1  and  C_2
REMARK    2  A    between atoms: N_5  and  C_7
REMARK    3  A    between atoms: C_7  and  C_9
REMARK    4  A    between atoms: C_7  and  C_10
REMARK    5  A    between atoms: N_19  and  C_21
REMARK    6  A    between atoms: C_21  and  C_22
REMARK                            x       y       z     vdW  Elec       q    Type
REMARK                         _______ _______ _______ _____ _____    ______ ____
ROOT
ATOM      1  C   UNL     1       5.890  -2.483  -0.071  0.00  0.00    +0.128 A 
ATOM      2  N   UNL     1       4.582  -2.646  -0.058  0.00  0.00    -0.142 NA
ATOM      3  N   UNL     1       3.784  -1.669  -0.044  0.00  0.00    -0.126 NA
ATOM      4  C   UNL     1       4.214  -0.414  -0.041  0.00  0.00    +0.187 A 
ATOM      5  S   UNL     1       5.982  -0.695  -0.068  0.00  0.00    -0.033 S 
ATOM      6  N   UNL     1       3.499   0.775  -0.028  0.00  0.00    -0.276 N 
ATOM      7  C   UNL     1       2.099   0.750  -0.014  0.00  0.00    +0.146 A 
ATOM      8  C   UNL     1       1.295  -0.401  -0.013  0.00  0.00    +0.065 A 
ATOM      9  C   UNL     1       0.002  -0.004   0.002  0.00  0.00    +0.110 A 
ATOM     10  N   UNL     1      -0.016   1.345   0.009  0.00  0.00    -0.265 N 
ATOM     11  N   UNL     1       1.310   1.798  -0.001  0.00  0.00    -0.156 NA
ATOM     12  H   UNL     1       3.969   1.623  -0.028  0.00  0.00    +0.156 HD
ENDROOT
BRANCH   1  13
ATOM     13  C   UNL     1       6.993  -3.510  -0.088  0.00  0.00    +0.161 C 
ATOM     14  C   UNL     1       6.888  -4.393   1.158  0.00  0.00    +0.040 C 
BRANCH  13  19
ATOM     15  C   UNL     1       7.647  -5.250  -4.751  0.00  0.00    +0.069 C 
ATOM     16  C   UNL     1       7.168  -5.085  -3.331  0.00  0.00    +0.078 A 
ATOM     17  C   UNL     1       6.253  -5.914  -2.673  0.00  0.00    +0.081 A 
ATOM     18  C   UNL     1       6.090  -5.439  -1.416  0.00  0.00    +0.129 A 
ATOM     19  N   UNL     1       6.867  -4.342  -1.288  0.00  0.00    -0.261 N 
ATOM     20  N   UNL     1       7.537  -4.143  -2.502  0.00  0.00    -0.174 NA
ATOM     21 CL   UNL     1       5.472  -7.310  -3.346  0.00  0.00    -0.080 Cl
ENDBRANCH  13  19
ENDBRANCH   1  13
BRANCH  10  22
ATOM     22  C   UNL     1      -1.213   2.190   0.020  0.00  0.00    +0.180 C 
BRANCH  22  23
ATOM     23  C   UNL     1      -1.149   3.139   1.189  0.00  0.00    -0.008 A 
ATOM     24  C   UNL     1      -0.749   4.448   0.995  0.00  0.00    +0.007 A 
ATOM     25  C   UNL     1      -0.689   5.319   2.067  0.00  0.00    +0.000 A 
ATOM     26  C   UNL     1      -1.029   4.881   3.333  0.00  0.00    +0.001 A 
ATOM     27  C   UNL     1      -1.429   3.573   3.528  0.00  0.00    +0.020 A 
ATOM     28  C   UNL     1      -1.494   2.702   2.455  0.00  0.00    +0.046 A 
ATOM     29 CL   UNL     1      -2.004   1.060   2.698  0.00  0.00    -0.083 Cl
ENDBRANCH  22  23
ENDBRANCH  10  22
TORSDOF 4
