REMARK  Name = ZINC39727125
REMARK  4 active torsions:
REMARK  status: ('A' for Active; 'I' for Inactive)
REMARK    1  A    between atoms: C_4  and  C_7
REMARK    2  A    between atoms: C_13  and  C_17
REMARK    3  A    between atoms: C_17  and  N_18
REMARK    4  A    between atoms: C_27  and  C_29
REMARK                            x       y       z     vdW  Elec       q    Type
REMARK                         _______ _______ _______ _____ _____    ______ ____
ROOT
ATOM      1  C   UNL     1       2.186  -1.544   2.206  0.00  0.00    +0.106 C 
ATOM      2  C   UNL     1       2.389  -2.096   0.814  0.00  0.00    +0.008 C 
ATOM      3  C   UNL     1       2.757  -3.381   0.700  0.00  0.00    +0.068 C 
ATOM      4  C   UNL     1       2.936  -4.157   1.945  0.00  0.00    +0.112 C 
ATOM      5  N   UNL     1       3.294  -5.418   1.899  0.00  0.00    -0.226 NA
ATOM      6  C   UNL     1       3.506  -6.032   0.746  0.00  0.00    +0.138 C 
ATOM      7  N   UNL     1       3.379  -5.446  -0.420  0.00  0.00    -0.160 NA
ATOM      8  C   UNL     1       3.021  -4.164  -0.550  0.00  0.00    +0.271 C 
ATOM      9  O   UNL     1       2.912  -3.649  -1.650  0.00  0.00    -0.268 OA
ATOM     10  S   UNL     1       2.567  -3.009   3.249  0.00  0.00    -0.093 S 
ENDROOT
BRANCH   1  14
ATOM     11  C   UNL     1      -1.853  -0.272   2.770  0.00  0.00    +0.000 A 
ATOM     12  C   UNL     1      -0.815   0.619   2.964  0.00  0.00    +0.000 A 
ATOM     13  C   UNL     1       0.492   0.208   2.782  0.00  0.00    +0.005 A 
ATOM     14  C   UNL     1       0.761  -1.095   2.406  0.00  0.00    -0.030 A 
ATOM     15  C   UNL     1      -0.278  -1.987   2.213  0.00  0.00    +0.005 A 
ATOM     16  C   UNL     1      -1.585  -1.575   2.394  0.00  0.00    +0.000 A 
ENDBRANCH   1  14
BRANCH   6  17
ATOM     17  C   UNL     1       3.916  -7.482   0.774  0.00  0.00    +0.159 C 
BRANCH  17  18
ATOM     18  N   UNL     1       4.099  -7.966  -0.601  0.00  0.00    -0.280 NA
ATOM     19  C   UNL     1       2.807  -8.141  -1.272  0.00  0.00    +0.121 C 
ATOM     20  C   UNL     1       3.001  -8.729  -2.645  0.00  0.00    -0.030 A 
ATOM     21  C   UNL     1       1.965  -8.625  -3.561  0.00  0.00    +0.005 A 
ATOM     22  C   UNL     1       2.098  -9.153  -4.829  0.00  0.00    +0.000 A 
ATOM     23  C   UNL     1       3.271  -9.791  -5.189  0.00  0.00    +0.000 A 
ATOM     24  C   UNL     1       4.304  -9.894  -4.279  0.00  0.00    +0.004 A 
ATOM     25  C   UNL     1       4.172  -9.362  -3.006  0.00  0.00    -0.041 A 
ATOM     26  C   UNL     1       5.330  -9.489  -2.050  0.00  0.00    +0.063 C 
ATOM     27  C   UNL     1       4.857  -9.228  -0.620  0.00  0.00    +0.148 C 
BRANCH  27  28
ATOM     28  C   UNL     1       6.049  -9.115   0.295  0.00  0.00    +0.228 C 
ATOM     29  O   UNL     1       6.627  -8.055   0.411  0.00  0.00    -0.274 OA
ATOM     30  N   UNL     1       6.473 -10.193   0.985  0.00  0.00    -0.328 N 
ATOM     31  H   UNL     1       6.011 -11.041   0.892  0.00  0.00    +0.145 HD
ATOM     32  H   UNL     1       7.240 -10.121   1.574  0.00  0.00    +0.145 HD
ENDBRANCH  27  28
ENDBRANCH  17  18
ENDBRANCH   6  17
TORSDOF 4
