REMARK  Name = ZINC36263921
REMARK  7 active torsions:
REMARK  status: ('A' for Active; 'I' for Inactive)
REMARK    1  A    between atoms: C_1  and  C_2
REMARK    2  A    between atoms: C_4  and  N_19
REMARK    3  A    between atoms: C_6  and  S_9
REMARK    4  A    between atoms: C_7  and  C_8
REMARK    5  A    between atoms: S_9  and  N_12
REMARK    6  A    between atoms: N_12  and  C_13
REMARK    7  A    between atoms: C_16  and  N_18
REMARK                            x       y       z     vdW  Elec       q    Type
REMARK                         _______ _______ _______ _____ _____    ______ ____
ROOT
ATOM      1  S   UNL     1       0.090  -2.867   2.472  0.00  0.00    +0.059 S 
ATOM      2  O   UNL     1       0.038  -4.228   2.065  0.00  0.00    -0.153 OA
ATOM      3  O   UNL     1       1.169  -2.340   3.232  0.00  0.00    -0.153 OA
ENDROOT
BRANCH   1   9
ATOM      4  C   UNL     1      -0.176   1.745   0.027  0.00  0.00    +0.044 C 
ATOM      5  C   UNL     1      -0.133   0.242  -0.064  0.00  0.00    -0.044 A 
ATOM      6  C   UNL     1      -0.174  -0.378  -1.300  0.00  0.00    +0.036 A 
ATOM      7  C   UNL     1      -0.135  -1.757  -1.383  0.00  0.00    +0.128 A 
ATOM      8  C   UNL     1      -0.054  -2.517  -0.232  0.00  0.00    +0.061 A 
ATOM      9  C   UNL     1      -0.012  -1.898   1.004  0.00  0.00    +0.111 A 
ATOM     10  C   UNL     1      -0.047  -0.518   1.087  0.00  0.00    -0.021 A 
ATOM     11  C   UNL     1       0.004   0.157   2.433  0.00  0.00    +0.046 C 
BRANCH   7  12
ATOM     12  N   UNL     1      -0.180  -2.419  -2.706  0.00  0.00    +0.056 N 
ATOM     13  O   UNL     1      -0.252  -1.754  -3.713  0.00  0.00    -0.126 OA
ATOM     14  O   UNL     1      -0.146  -3.626  -2.779  0.00  0.00    -0.126 OA
ENDBRANCH   7  12
ENDBRANCH   1   9
BRANCH   1  15
ATOM     15  N   UNL     1      -1.288  -2.581   3.345  0.00  0.00    -0.189 NA
ATOM     16  H   UNL     1      -1.233  -2.139   4.206  0.00  0.00    +0.148 HD
BRANCH  15  17
ATOM     17  C   UNL     1      -2.589  -2.995   2.815  0.00  0.00    +0.061 C 
ATOM     18  C   UNL     1      -3.644  -3.462   3.820  0.00  0.00    +0.004 C 
ATOM     19  C   UNL     1      -3.794  -2.105   3.127  0.00  0.00    -0.055 C 
BRANCH  19  20
ATOM     20  N   UNL     1      -4.832  -1.982   2.095  0.00  0.00    +0.381 N 
ATOM     21  H   UNL     1      -5.218  -2.893   1.895  0.00  0.00    -0.090 HD
ATOM     22  H   UNL     1      -5.564  -1.372   2.425  0.00  0.00    -0.090 HD
ATOM     23  H   UNL     1      -4.426  -1.597   1.255  0.00  0.00    -0.090 HD
ENDBRANCH  19  20
ENDBRANCH  15  17
ENDBRANCH   1  15
TORSDOF 5
