REMARK  Name = ZINC11440893
REMARK  10 active torsions:
REMARK  status: ('A' for Active; 'I' for Inactive)
REMARK    1  A    between atoms: C_1  and  C_2
REMARK    2  A    between atoms: C_3  and  C_35
REMARK    3  A    between atoms: C_11  and  C_13
REMARK    4  A    between atoms: C_13  and  C_15
REMARK    5  A    between atoms: C_13  and  O_16
REMARK    6  A    between atoms: O_16  and  C_17
REMARK    7  A    between atoms: C_17  and  C_19
REMARK    8  A    between atoms: C_19  and  C_20
REMARK    9  A    between atoms: C_20  and  N_21
REMARK   10  A    between atoms: N_24  and  C_25
REMARK                            x       y       z     vdW  Elec       q    Type
REMARK                         _______ _______ _______ _____ _____    ______ ____
ROOT
ATOM      1  C   UNL     1      -2.330   3.699  -1.356  0.00  0.00    +0.309 C 
ATOM      2  O   UNL     1      -2.737   4.207  -0.338  0.00  0.00    -0.251 OA
ENDROOT
BRANCH   1   3
ATOM      3  O   UNL     1      -1.599   2.574  -1.299  0.00  0.00    -0.454 OA
BRANCH   3   4
ATOM      4  C   UNL     1      -1.338   2.024   0.019  0.00  0.00    +0.239 C 
ATOM      5  C   UNL     1      -2.452   1.044   0.393  0.00  0.00    +0.060 C 
BRANCH   4  16
ATOM      6  C   UNL     1       4.944  -0.316  -0.046  0.00  0.00    +0.045 C 
ATOM      7  C   UNL     1       3.551  -0.892  -0.037  0.00  0.00    -0.026 A 
ATOM      8  C   UNL     1       3.366  -2.222  -0.042  0.00  0.00    -0.008 A 
ATOM      9  S   UNL     1       1.591  -2.392  -0.026  0.00  0.00    -0.073 S 
ATOM     10  C   UNL     1       1.151  -0.673  -0.013  0.00  0.00    +0.116 A 
ATOM     11  C   UNL     1       2.395  -0.017  -0.021  0.00  0.00    +0.075 A 
ATOM     12  C   UNL     1       2.339   1.415  -0.012  0.00  0.00    +0.260 A 
ATOM     13  O   UNL     1       3.364   2.075  -0.018  0.00  0.00    -0.267 OA
ATOM     14  N   UNL     1       1.137   2.020   0.002  0.00  0.00    -0.307 N 
ATOM     15  H   UNL     1       1.092   2.989   0.008  0.00  0.00    +0.170 HD
ATOM     16  C   UNL     1      -0.016   1.302   0.009  0.00  0.00    +0.152 A 
ATOM     17  N   UNL     1       0.002  -0.004   0.002  0.00  0.00    -0.223 NA
ATOM     18  C   UNL     1       4.409  -3.310  -0.058  0.00  0.00    +0.052 C 
ENDBRANCH   4  16
ENDBRANCH   3   4
ENDBRANCH   1   3
BRANCH   1  19
ATOM     19  C   UNL     1      -2.642   4.328  -2.689  0.00  0.00    +0.139 C 
BRANCH  19  20
ATOM     20  C   UNL     1      -3.481   5.589  -2.475  0.00  0.00    +0.117 C 
BRANCH  20  21
ATOM     21  N   UNL     1      -3.784   6.201  -3.771  0.00  0.00    -0.299 N 
ATOM     22  C   UNL     1      -4.517   7.330  -3.828  0.00  0.00    +0.300 C 
ATOM     23  O   UNL     1      -4.928   7.841  -2.804  0.00  0.00    -0.253 OA
ATOM     24  N   UNL     1      -4.796   7.893  -5.021  0.00  0.00    -0.294 N 
ATOM     25  H   UNL     1      -3.457   5.793  -4.588  0.00  0.00    +0.150 HD
ATOM     26  H   UNL     1      -4.469   7.485  -5.838  0.00  0.00    +0.151 HD
BRANCH  24  27
ATOM     27  C   UNL     1      -5.593   9.120  -5.083  0.00  0.00    +0.037 C 
ATOM     28  C   UNL     1      -6.969   8.867  -4.463  0.00  0.00    +0.029 C 
ATOM     29  C   UNL     1      -7.801  10.149  -4.529  0.00  0.00    -0.008 C 
ATOM     30  C   UNL     1      -7.970  10.574  -5.989  0.00  0.00    +0.007 C 
ATOM     31  C   UNL     1      -6.595  10.827  -6.609  0.00  0.00    -0.008 C 
ATOM     32  C   UNL     1      -5.762   9.545  -6.543  0.00  0.00    +0.029 C 
ATOM     33  C   UNL     1      -5.883  11.937  -5.833  0.00  0.00    +0.007 C 
ATOM     34  C   UNL     1      -5.714  11.513  -4.373  0.00  0.00    -0.008 C 
ATOM     35  C   UNL     1      -7.089  11.259  -3.753  0.00  0.00    +0.007 C 
ATOM     36  C   UNL     1      -4.881  10.230  -4.308  0.00  0.00    +0.029 C 
ENDBRANCH  24  27
ENDBRANCH  20  21
ENDBRANCH  19  20
ENDBRANCH   1  19
TORSDOF 7
