REMARK  Name = ZINC20755807
REMARK  7 active torsions:
REMARK  status: ('A' for Active; 'I' for Inactive)
REMARK    1  A    between atoms: C_1  and  O_2
REMARK    2  A    between atoms: O_2  and  C_3
REMARK    3  A    between atoms: C_7  and  C_9
REMARK    4  A    between atoms: C_20  and  O_25
REMARK    5  A    between atoms: O_25  and  C_26
REMARK    6  A    between atoms: C_26  and  C_27
REMARK    7  A    between atoms: C_27  and  C_28
REMARK                            x       y       z     vdW  Elec       q    Type
REMARK                         _______ _______ _______ _____ _____    ______ ____
ROOT
ATOM      1  C   UNL     1       1.325  -4.106  -2.289  0.00  0.00    +0.105 C 
ATOM      2  C   UNL     1       2.733  -4.596  -2.002  0.00  0.00    +0.029 C 
ATOM      3  C   UNL     1       3.378  -4.142  -0.685  0.00  0.00    +0.033 C 
ATOM      4  C   UNL     1       4.862  -4.137  -1.054  0.00  0.00    -0.030 C 
ATOM      5  C   UNL     1       5.004  -3.957  -2.362  0.00  0.00    -0.023 C 
ATOM      6  C   UNL     1       3.654  -3.816  -2.988  0.00  0.00    +0.049 C 
ATOM      7  C   UNL     1       3.349  -4.284  -4.358  0.00  0.00    -0.016 A 
ATOM      8  C   UNL     1       4.317  -4.395  -5.333  0.00  0.00    +0.051 A 
ATOM      9  C   UNL     1       3.979  -4.825  -6.607  0.00  0.00    +0.121 A 
ATOM     10  C   UNL     1       2.661  -5.145  -6.902  0.00  0.00    +0.047 A 
ATOM     11  C   UNL     1       1.690  -5.040  -5.927  0.00  0.00    +0.027 A 
ATOM     12  C   UNL     1       2.022  -4.617  -4.646  0.00  0.00    +0.032 A 
ATOM     13  N   UNL     1       1.017  -4.554  -3.664  0.00  0.00    -0.336 N 
ATOM     14  H   UNL     1       0.109  -4.810  -3.890  0.00  0.00    +0.147 HD
ENDROOT
BRANCH   1  19
ATOM     15  C   UNL     1       1.449  -0.456  -3.260  0.00  0.00    +0.120 A 
ATOM     16  C   UNL     1       1.169   0.160  -2.049  0.00  0.00    +0.045 A 
ATOM     17  C   UNL     1       0.941  -0.606  -0.922  0.00  0.00    +0.004 A 
ATOM     18  C   UNL     1       0.992  -1.986  -1.001  0.00  0.00    +0.006 A 
ATOM     19  C   UNL     1       1.271  -2.602  -2.207  0.00  0.00    -0.024 A 
ATOM     20  C   UNL     1       1.494  -1.840  -3.338  0.00  0.00    +0.051 A 
BRANCH  15  22
ATOM     21  C   UNL     1       1.611   1.714  -4.217  0.00  0.00    +0.277 C 
ATOM     22  O   UNL     1       1.673   0.295  -4.370  0.00  0.00    -0.495 OA
ENDBRANCH  15  22
ENDBRANCH   1  19
BRANCH   9  23
ATOM     23  O   UNL     1       4.937  -4.934  -7.567  0.00  0.00    -0.492 OA
BRANCH  23  24
ATOM     24  C   UNL     1       4.516  -5.384  -8.856  0.00  0.00    +0.229 C 
BRANCH  24  25
ATOM     25  C   UNL     1       5.722  -5.442  -9.795  0.00  0.00    +0.044 C 
BRANCH  25  26
ATOM     26  C   UNL     1       5.271  -5.923 -11.175  0.00  0.00    -0.008 C 
ATOM     27  C   UNL     1       4.768  -7.365 -11.074  0.00  0.00    +0.003 C 
ATOM     28  C   UNL     1       4.317  -7.846 -12.454  0.00  0.00    +0.000 C 
ATOM     29  C   UNL     1       5.497  -7.786 -13.426  0.00  0.00    +0.000 C 
ATOM     30  C   UNL     1       6.001  -6.345 -13.528  0.00  0.00    +0.000 C 
ATOM     31  C   UNL     1       6.452  -5.863 -12.147  0.00  0.00    +0.003 C 
ENDBRANCH  25  26
ENDBRANCH  24  25
ENDBRANCH  23  24
ENDBRANCH   9  23
TORSDOF 6
