REMARK  Name = ZINC39845378
REMARK  6 active torsions:
REMARK  status: ('A' for Active; 'I' for Inactive)
REMARK    1  A    between atoms: C_3  and  C_6
REMARK    2  A    between atoms: C_8  and  S_20
REMARK    3  A    between atoms: C_9  and  N_11
REMARK    4  A    between atoms: N_11  and  C_12
REMARK    5  A    between atoms: C_12  and  C_13
REMARK    6  A    between atoms: S_20  and  C_23
REMARK                            x       y       z     vdW  Elec       q    Type
REMARK                         _______ _______ _______ _____ _____    ______ ____
ROOT
ATOM      1  C   UNL     1       3.566   0.618  -0.029  0.00  0.00    +0.267 A 
ATOM      2  N   UNL     1       4.307  -0.468  -0.047  0.00  0.00    -0.186 NA
ATOM      3  C   UNL     1       5.599  -0.107  -0.057  0.00  0.00    +0.243 A 
ATOM      4  C   UNL     1       5.651   1.246  -0.044  0.00  0.00    +0.233 A 
ATOM      5  O   UNL     1       4.379   1.694  -0.032  0.00  0.00    -0.417 OA
ENDROOT
BRANCH   1   8
ATOM      6  C   UNL     1      -0.016   1.344   0.009  0.00  0.00    +0.042 A 
ATOM      7  C   UNL     1       1.324   1.776  -0.001  0.00  0.00    +0.055 A 
ATOM      8  C   UNL     1       2.098   0.653  -0.015  0.00  0.00    +0.189 A 
ATOM      9  O   UNL     1       1.280  -0.418  -0.012  0.00  0.00    -0.458 OA
ATOM     10  C   UNL     1       0.002  -0.004   0.002  0.00  0.00    +0.196 A 
ENDBRANCH   1   8
BRANCH   3  11
ATOM     11  S   UNL     1       6.981  -1.200  -0.081  0.00  0.00    +0.047 S 
ATOM     12  O   UNL     1       8.078  -0.480   0.467  0.00  0.00    -0.163 OA
ATOM     13  O   UNL     1       6.533  -2.434   0.462  0.00  0.00    -0.163 OA
BRANCH  11  14
ATOM     14  C   UNL     1       7.374  -1.506  -1.771  0.00  0.00    +0.096 A 
ATOM     15  C   UNL     1       6.781  -2.562  -2.437  0.00  0.00    +0.030 A 
ATOM     16  C   UNL     1       7.088  -2.803  -3.763  0.00  0.00    +0.040 A 
ATOM     17  C   UNL     1       7.989  -1.986  -4.424  0.00  0.00    +0.124 A 
ATOM     18  C   UNL     1       8.582  -0.928  -3.756  0.00  0.00    +0.040 A 
ATOM     19  C   UNL     1       8.270  -0.686  -2.432  0.00  0.00    +0.030 A 
ATOM     20  F   UNL     1       8.290  -2.221  -5.720  0.00  0.00    -0.205 F 
ENDBRANCH  11  14
ENDBRANCH   3  11
BRANCH   4  21
ATOM     21  N   UNL     1       6.802   2.029  -0.048  0.00  0.00    -0.308 N 
ATOM     22  H   UNL     1       7.675   1.607  -0.061  0.00  0.00    +0.149 HD
BRANCH  21  23
ATOM     23  C   UNL     1       6.694   3.490  -0.032  0.00  0.00    +0.139 C 
BRANCH  23  24
ATOM     24  C   UNL     1       8.074   4.095  -0.040  0.00  0.00    -0.030 A 
ATOM     25  C   UNL     1       8.721   4.356   1.154  0.00  0.00    +0.006 A 
ATOM     26  C   UNL     1       9.987   4.911   1.147  0.00  0.00    +0.020 A 
ATOM     27  C   UNL     1      10.606   5.206  -0.054  0.00  0.00    +0.041 A 
ATOM     28  C   UNL     1       9.958   4.945  -1.248  0.00  0.00    +0.020 A 
ATOM     29  C   UNL     1       8.695   4.384  -1.241  0.00  0.00    +0.006 A 
ATOM     30 CL   UNL     1      12.196   5.904  -0.063  0.00  0.00    -0.084 Cl
ENDBRANCH  23  24
ENDBRANCH  21  23
ENDBRANCH   4  21
TORSDOF 6
