REMARK  Name = ZINC38736770
REMARK  6 active torsions:
REMARK  status: ('A' for Active; 'I' for Inactive)
REMARK    1  A    between atoms: C_6  and  C_7
REMARK    2  A    between atoms: C_9  and  N_28
REMARK    3  A    between atoms: N_10  and  C_12
REMARK    4  A    between atoms: C_15  and  C_18
REMARK    5  A    between atoms: N_20  and  C_21
REMARK    6  A    between atoms: C_21  and  C_22
REMARK                            x       y       z     vdW  Elec       q    Type
REMARK                         _______ _______ _______ _____ _____    ______ ____
ROOT
ATOM      1  C   UNL     1      -4.800  -1.160   0.037  0.00  0.00    +0.067 A 
ATOM      2  C   UNL     1      -5.592  -2.078  -0.645  0.00  0.00    +0.028 A 
ATOM      3  C   UNL     1      -6.963  -1.948  -0.636  0.00  0.00    +0.015 A 
ATOM      4  C   UNL     1      -7.558  -0.892   0.059  0.00  0.00    +0.037 A 
ATOM      5  C   UNL     1      -6.760   0.028   0.743  0.00  0.00    +0.015 A 
ATOM      6  C   UNL     1      -5.390  -0.111   0.734  0.00  0.00    +0.028 A 
ENDROOT
BRANCH   1  10
ATOM      7  C   UNL     1      -1.271  -0.766   0.011  0.00  0.00    +0.095 A 
ATOM      8  C   UNL     1      -1.394  -2.169   0.010  0.00  0.00    +0.073 A 
ATOM      9  C   UNL     1      -2.719  -2.470   0.020  0.00  0.00    +0.120 A 
ATOM     10  N   UNL     1      -3.410  -1.295   0.027  0.00  0.00    -0.218 N 
ATOM     11  N   UNL     1      -2.481  -0.247   0.026  0.00  0.00    -0.165 NA
BRANCH   7  17
ATOM     12  C   UNL     1      -0.017   1.389   0.010  0.00  0.00    +0.011 A 
ATOM     13  C   UNL     1       1.170   2.093   0.002  0.00  0.00    +0.020 A 
ATOM     14  C   UNL     1       2.378   1.417  -0.013  0.00  0.00    +0.041 A 
ATOM     15  C   UNL     1       2.402   0.033  -0.021  0.00  0.00    +0.020 A 
ATOM     16  C   UNL     1       1.221  -0.680  -0.014  0.00  0.00    +0.011 A 
ATOM     17  C   UNL     1       0.002  -0.004   0.002  0.00  0.00    +0.002 A 
ATOM     18 CL   UNL     1       3.868   2.308  -0.024  0.00  0.00    -0.084 Cl
ENDBRANCH   7  17
BRANCH   9  19
ATOM     19  N   UNL     1      -3.272  -3.747   0.022  0.00  0.00    -0.343 N 
ATOM     20  H   UNL     1      -2.693  -4.525   0.017  0.00  0.00    +0.144 HD
ATOM     21  H   UNL     1      -4.235  -3.859   0.029  0.00  0.00    +0.144 HD
ENDBRANCH   9  19
ENDBRANCH   1  10
BRANCH   4  22
ATOM     22  C   UNL     1      -9.028  -0.749   0.070  0.00  0.00    +0.244 C 
ATOM     23  O   UNL     1      -9.721  -1.551  -0.526  0.00  0.00    -0.270 OA
ATOM     24  N   UNL     1      -9.601   0.270   0.741  0.00  0.00    -0.309 N 
ATOM     25  H   UNL     1      -9.048   0.909   1.216  0.00  0.00    +0.149 HD
BRANCH  24  26
ATOM     26  C   UNL     1     -11.059   0.411   0.751  0.00  0.00    +0.136 C 
BRANCH  26  27
ATOM     27  C   UNL     1     -11.446   1.639   1.578  0.00  0.00    +0.135 C 
ATOM     28  C   UNL     1     -12.982   1.728   1.696  0.00  0.00    +0.035 C 
ATOM     29  C   UNL     1     -13.235   3.255   1.567  0.00  0.00    +0.031 C 
ATOM     30  C   UNL     1     -12.115   3.655   0.574  0.00  0.00    +0.160 C 
ATOM     31  O   UNL     1     -10.991   2.829   0.923  0.00  0.00    -0.375 OA
ENDBRANCH  26  27
ENDBRANCH  24  26
ENDBRANCH   4  22
TORSDOF 6
