REMARK  Name = ZINC36316498
REMARK  19 active torsions:
REMARK  status: ('A' for Active; 'I' for Inactive)
REMARK    1  A    between atoms: C_1  and  C_2
REMARK    2  A    between atoms: C_2  and  C_3
REMARK    3  A    between atoms: C_4  and  C_22
REMARK    4  A    between atoms: C_5  and  O_14
REMARK    5  A    between atoms: N_6  and  C_8
REMARK    6  A    between atoms: O_14  and  C_15
REMARK    7  A    between atoms: C_22  and  N_23
REMARK    8  A    between atoms: N_23  and  C_24
REMARK    9  A    between atoms: N_23  and  C_33
REMARK   10  A    between atoms: C_24  and  C_25
REMARK   11  A    between atoms: C_25  and  C_27
REMARK   12  A    between atoms: C_25  and  O_32
REMARK   13  A    between atoms: C_27  and  O_28
REMARK   14  A    between atoms: O_28  and  C_29
REMARK   15  A    between atoms: C_29  and  C_30
REMARK   16  A    between atoms: C_29  and  C_31
REMARK   17  A    between atoms: C_33  and  C_34
REMARK   18  A    between atoms: C_34  and  C_35
REMARK   19  A    between atoms: C_34  and  C_36
REMARK                            x       y       z     vdW  Elec       q    Type
REMARK                         _______ _______ _______ _____ _____    ______ ____
ROOT
ATOM      1  C   UNL     1       0.725  -0.372   2.422  0.00  0.00    +0.068 A 
ATOM      2  C   UNL     1       1.881  -0.562   1.659  0.00  0.00    +0.021 A 
ATOM      3  C   UNL     1       2.810  -1.162   2.451  0.00  0.00    +0.225 A 
ATOM      4  N   UNL     1       2.248  -1.343   3.676  0.00  0.00    -0.200 N 
ATOM      5  N   UNL     1       0.944  -0.833   3.627  0.00  0.00    -0.168 NA
ENDROOT
BRANCH   4   6
ATOM      6  C   UNL     1       2.864  -1.930   4.789  0.00  0.00    +0.069 A 
ATOM      7  C   UNL     1       3.603  -3.096   4.641  0.00  0.00    +0.028 A 
ATOM      8  C   UNL     1       4.210  -3.672   5.740  0.00  0.00    +0.002 A 
ATOM      9  C   UNL     1       4.081  -3.090   6.987  0.00  0.00    +0.000 A 
ATOM     10  C   UNL     1       3.345  -1.928   7.138  0.00  0.00    +0.002 A 
ATOM     11  C   UNL     1       2.742  -1.344   6.042  0.00  0.00    +0.028 A 
ENDBRANCH   4   6
BRANCH   1  13
ATOM     12  C   UNL     1      -0.547   1.752   2.284  0.00  0.00    +0.010 C 
ATOM     13  C   UNL     1      -0.555   0.261   1.940  0.00  0.00    +0.054 C 
ENDBRANCH   1  13
BRANCH   3  14
ATOM     14  O   UNL     1       4.068  -1.517   2.084  0.00  0.00    -0.438 OA
BRANCH  14  15
ATOM     15  C   UNL     1       4.237  -2.712   1.459  0.00  0.00    +0.131 A 
ATOM     16  C   UNL     1       3.133  -3.475   1.108  0.00  0.00    +0.049 A 
ATOM     17  C   UNL     1       3.307  -4.688   0.471  0.00  0.00    +0.042 A 
ATOM     18  C   UNL     1       4.583  -5.144   0.184  0.00  0.00    +0.124 A 
ATOM     19  C   UNL     1       5.686  -4.383   0.534  0.00  0.00    +0.042 A 
ATOM     20  C   UNL     1       5.515  -3.167   1.165  0.00  0.00    +0.049 A 
ATOM     21  F   UNL     1       4.751  -6.331  -0.438  0.00  0.00    -0.205 F 
ENDBRANCH  14  15
ENDBRANCH   3  14
BRANCH   2  22
ATOM     22  C   UNL     1       2.065  -0.171   0.216  0.00  0.00    -0.036 C 
BRANCH  22  23
ATOM     23  N   UNL     1       2.474   1.238   0.139  0.00  0.00    +0.384 N 
ATOM     24  H   UNL     1       1.790   1.813   0.607  0.00  0.00    -0.081 HD
BRANCH  23  25
ATOM     25  C   UNL     1       3.781   1.405   0.789  0.00  0.00    -0.044 C 
BRANCH  25  26
ATOM     26  C   UNL     1       4.115   2.895   0.888  0.00  0.00    +0.124 C 
BRANCH  26  27
ATOM     27  O   UNL     1       4.347   3.419  -0.421  0.00  0.00    -0.391 OA
ATOM     28  H   UNL     1       5.077   2.993  -0.891  0.00  0.00    +0.210 HD
ENDBRANCH  26  27
BRANCH  26  29
ATOM     29  C   UNL     1       5.371   3.081   1.742  0.00  0.00    +0.189 C 
BRANCH  29  30
ATOM     30  O   UNL     1       5.616   4.476   1.931  0.00  0.00    -0.375 OA
BRANCH  30  31
ATOM     31  C   UNL     1       6.774   4.760   2.719  0.00  0.00    +0.112 C 
ATOM     32  C   UNL     1       7.995   4.882   1.806  0.00  0.00    +0.037 C 
ATOM     33  C   UNL     1       6.567   6.076   3.472  0.00  0.00    +0.037 C 
ENDBRANCH  30  31
ENDBRANCH  29  30
ENDBRANCH  26  29
ENDBRANCH  25  26
ENDBRANCH  23  25
BRANCH  23  34
ATOM     34  C   UNL     1       2.573   1.643  -1.270  0.00  0.00    -0.075 C 
BRANCH  34  35
ATOM     35  C   UNL     1       1.199   1.526  -1.932  0.00  0.00    -0.034 C 
ATOM     36  C   UNL     1       0.224   2.493  -1.257  0.00  0.00    +0.005 C 
ATOM     37  C   UNL     1       1.317   1.874  -3.417  0.00  0.00    +0.005 C 
ENDBRANCH  34  35
ENDBRANCH  23  34
ENDBRANCH  22  23
ENDBRANCH   2  22
TORSDOF 14
