REMARK  Name = ZINC09193111
REMARK  8 active torsions:
REMARK  status: ('A' for Active; 'I' for Inactive)
REMARK    1  A    between atoms: C_1  and  C_2
REMARK    2  A    between atoms: C_2  and  O_3
REMARK    3  A    between atoms: O_3  and  C_4
REMARK    4  A    between atoms: C_9  and  C_10
REMARK    5  A    between atoms: C_12  and  C_31
REMARK    6  A    between atoms: C_25  and  C_26
REMARK    7  A    between atoms: C_25  and  C_28
REMARK    8  A    between atoms: C_31  and  C_33
REMARK                            x       y       z     vdW  Elec       q    Type
REMARK                         _______ _______ _______ _____ _____    ______ ____
ROOT
ATOM      1  C   UNL     1       2.964   4.432   1.235  0.00  0.00    +0.082 C 
ATOM      2  C   UNL     1       2.461   4.637  -0.221  0.00  0.00    +0.155 C 
ATOM      3  N   UNL     1       2.436   6.095  -0.374  0.00  0.00    -0.310 N 
ATOM      4  C   UNL     1       2.341   6.642  -1.626  0.00  0.00    +0.038 A 
ATOM      5  C   UNL     1       1.925   5.931  -2.734  0.00  0.00    +0.024 A 
ATOM      6  C   UNL     1       1.876   6.548  -3.971  0.00  0.00    +0.002 A 
ATOM      7  C   UNL     1       2.241   7.876  -4.109  0.00  0.00    +0.001 A 
ATOM      8  C   UNL     1       2.657   8.604  -3.011  0.00  0.00    +0.010 A 
ATOM      9  C   UNL     1       2.710   7.998  -1.763  0.00  0.00    -0.004 A 
ATOM     10  C   UNL     1       3.146   8.741  -0.556  0.00  0.00    +0.007 C 
ATOM     11  C   UNL     1       3.643   8.025   0.469  0.00  0.00    -0.002 C 
ATOM     12  C   UNL     1       3.700   6.540   0.275  0.00  0.00    +0.127 C 
ATOM     13  C   UNL     1       3.748   5.727   1.571  0.00  0.00    +0.163 C 
ENDROOT
BRANCH   1  19
ATOM     14  C   UNL     1       3.561   2.178   2.156  0.00  0.00    +0.124 A 
ATOM     15  C   UNL     1       4.400   1.075   2.224  0.00  0.00    +0.046 A 
ATOM     16  C   UNL     1       5.544   1.031   1.451  0.00  0.00    +0.004 A 
ATOM     17  C   UNL     1       5.853   2.084   0.610  0.00  0.00    +0.001 A 
ATOM     18  C   UNL     1       5.016   3.182   0.537  0.00  0.00    +0.007 A 
ATOM     19  C   UNL     1       3.873   3.233   1.312  0.00  0.00    +0.002 A 
BRANCH  14  20
ATOM     20  O   UNL     1       2.435   2.224   2.915  0.00  0.00    -0.492 OA
BRANCH  20  22
ATOM     21  C   UNL     1       0.875   1.334   4.533  0.00  0.00    +0.048 C 
ATOM     22  C   UNL     1       2.177   1.102   3.762  0.00  0.00    +0.225 C 
ENDBRANCH  20  22
ENDBRANCH  14  20
ENDBRANCH   1  19
BRANCH  13  23
ATOM     23  C   UNL     1       3.074   6.478   2.691  0.00  0.00    +0.233 C 
ATOM     24  O   UNL     1       3.701   6.777   3.685  0.00  0.00    -0.274 OA
ATOM     25  N   UNL     1       1.773   6.816   2.587  0.00  0.00    -0.328 N 
ATOM     26  H   UNL     1       1.253   6.514   1.826  0.00  0.00    +0.145 HD
ATOM     27  H   UNL     1       1.358   7.363   3.272  0.00  0.00    +0.145 HD
ENDBRANCH  13  23
BRANCH  13  28
ATOM     28  C   UNL     1       5.140   5.408   1.932  0.00  0.00    +0.082 C 
ATOM     29  N   UNL     1       6.213   5.162   2.210  0.00  0.00    -0.195 NA
ENDBRANCH  13  28
BRANCH   2  30
ATOM     30  C   UNL     1       1.079   4.061  -0.391  0.00  0.00    +0.184 C 
ATOM     31  O   UNL     1       0.115   4.797  -0.414  0.00  0.00    -0.290 OA
BRANCH  30  32
ATOM     32  C   UNL     1       0.898   2.607  -0.528  0.00  0.00    +0.019 A 
ATOM     33  C   UNL     1      -0.383   2.070  -0.685  0.00  0.00    +0.011 A 
ATOM     34  C   UNL     1      -0.544   0.706  -0.814  0.00  0.00    +0.001 A 
ATOM     35  C   UNL     1       0.559  -0.130  -0.787  0.00  0.00    +0.000 A 
ATOM     36  C   UNL     1       1.831   0.395  -0.631  0.00  0.00    +0.001 A 
ATOM     37  C   UNL     1       2.007   1.756  -0.501  0.00  0.00    +0.011 A 
ENDBRANCH  30  32
ENDBRANCH   2  30
TORSDOF 7
