REMARK  Name = ZINC63457859
REMARK  3 active torsions:
REMARK  status: ('A' for Active; 'I' for Inactive)
REMARK    1  A    between atoms: C_7  and  C_10
REMARK    2  A    between atoms: C_10  and  C_11
REMARK    3  A    between atoms: C_11  and  N_12
REMARK                            x       y       z     vdW  Elec       q    Type
REMARK                         _______ _______ _______ _____ _____    ______ ____
ROOT
ATOM      1  N   UNL     1      -0.458  -4.798  -1.460  0.00  0.00    -0.327 N 
ATOM      2  C   UNL     1      -0.823  -5.400  -2.662  0.00  0.00    +0.146 C 
ATOM      3  N   UNL     1      -0.343  -4.945  -3.782  0.00  0.00    -0.146 NA
ATOM      4  N   UNL     1      -0.664  -5.499  -5.024  0.00  0.00    -0.117 N 
ATOM      5  C   UNL     1      -1.528  -6.583  -5.120  0.00  0.00    +0.186 C 
ATOM      6  N   UNL     1      -1.664  -6.910  -6.373  0.00  0.00    -0.151 NA
ATOM      7  N   UNL     1      -0.885  -6.040  -7.148  0.00  0.00    -0.182 N 
ATOM      8  N   UNL     1      -0.270  -5.169  -6.293  0.00  0.00    -0.123 NA
ATOM      9  C   UNL     1      -2.103  -7.141  -3.881  0.00  0.00    +0.030 A 
ATOM     10  C   UNL     1      -1.742  -6.549  -2.653  0.00  0.00    +0.027 A 
ATOM     11  C   UNL     1      -2.264  -7.056  -1.466  0.00  0.00    +0.012 A 
ATOM     12  C   UNL     1      -3.124  -8.136  -1.504  0.00  0.00    +0.001 A 
ATOM     13  C   UNL     1      -3.472  -8.720  -2.711  0.00  0.00    +0.001 A 
ATOM     14  C   UNL     1      -2.974  -8.224  -3.901  0.00  0.00    +0.012 A 
ATOM     15  H   UNL     1      -0.810  -5.136  -0.622  0.00  0.00    +0.148 HD
ATOM     16  H   UNL     1      -0.798  -6.054  -8.114  0.00  0.00    +0.191 HD
ATOM     17  H   UNL     1      -0.514  -4.215  -6.511  0.00  0.00    +0.171 HD
ENDROOT
BRANCH   1  18
ATOM     18  C   UNL     1       0.457  -3.653  -1.462  0.00  0.00    +0.107 C 
BRANCH  18  19
ATOM     19  C   UNL     1       0.691  -3.186  -0.024  0.00  0.00    +0.052 C 
BRANCH  19  26
ATOM     20  C   UNL     1      -0.016   1.348   0.009  0.00  0.00    +0.001 A 
ATOM     21  C   UNL     1       1.166   2.101   0.002  0.00  0.00    +0.002 A 
ATOM     22  C   UNL     1       2.391   1.535  -0.013  0.00  0.00    +0.026 A 
ATOM     23  C   UNL     1       2.529   0.120  -0.022  0.00  0.00    +0.043 A 
ATOM     24  N   UNL     1       3.587  -0.654  -0.037  0.00  0.00    -0.380 N 
ATOM     25  C   UNL     1       3.143  -2.053  -0.041  0.00  0.00    +0.144 C 
ATOM     26  C   UNL     1       1.631  -2.008  -0.025  0.00  0.00    -0.040 C 
ATOM     27  C   UNL     1       1.295  -0.698  -0.014  0.00  0.00    -0.001 A 
ATOM     28  C   UNL     1       0.002  -0.004   0.002  0.00  0.00    +0.010 A 
ATOM     29  H   UNL     1       4.509  -0.353  -0.045  0.00  0.00    +0.160 HD
ENDBRANCH  19  26
ENDBRANCH  18  19
ENDBRANCH   1  18
TORSDOF 3
