REMARK  Name = ZINC10108047
REMARK  10 active torsions:
REMARK  status: ('A' for Active; 'I' for Inactive)
REMARK    1  A    between atoms: C_1  and  C_2
REMARK    2  A    between atoms: N_9  and  C_10
REMARK    3  A    between atoms: C_13  and  O_17
REMARK    4  A    between atoms: O_17  and  C_18
REMARK    5  A    between atoms: N_19  and  C_35
REMARK    6  A    between atoms: N_22  and  C_25
REMARK    7  A    between atoms: C_25  and  C_26
REMARK    8  A    between atoms: C_26  and  C_27
REMARK    9  A    between atoms: C_27  and  N_66
REMARK   10  A    between atoms: C_32  and  C_34
REMARK                            x       y       z     vdW  Elec       q    Type
REMARK                         _______ _______ _______ _____ _____    ______ ____
ROOT
ATOM      1  C   UNL     1      -6.740  -6.945   5.622  0.00  0.00    +0.065 C 
ATOM      2  C   UNL     1      -6.654  -6.349   4.240  0.00  0.00    +0.040 A 
ATOM      3  C   UNL     1      -6.505  -5.059   3.955  0.00  0.00    +0.116 A 
ATOM      4  N   UNL     1      -6.472  -4.918   2.578  0.00  0.00    -0.277 N 
ATOM      5  C   UNL     1      -6.356  -4.012   1.534  0.00  0.00    +0.157 A 
ATOM      6  C   UNL     1      -6.425  -4.759   0.359  0.00  0.00    +0.170 A 
ATOM      7  N   UNL     1      -6.573  -6.035   0.704  0.00  0.00    -0.193 NA
ATOM      8  C   UNL     1      -6.603  -6.146   2.024  0.00  0.00    +0.223 A 
ATOM      9  N   UNL     1      -6.718  -7.050   3.049  0.00  0.00    -0.283 N 
ATOM     10  N   UNL     1      -6.334  -4.099  -0.857  0.00  0.00    -0.279 N 
ATOM     11  C   UNL     1      -6.187  -2.761  -0.888  0.00  0.00    +0.333 A 
ATOM     12  O   UNL     1      -6.113  -2.197  -1.963  0.00  0.00    -0.246 OA
ATOM     13  N   UNL     1      -6.114  -2.034   0.240  0.00  0.00    -0.259 N 
ATOM     14  C   UNL     1      -6.197  -2.619   1.452  0.00  0.00    +0.283 A 
ATOM     15  O   UNL     1      -6.134  -1.946   2.467  0.00  0.00    -0.265 OA
ATOM     16  C   UNL     1      -6.403  -4.857  -2.109  0.00  0.00    +0.155 C 
ENDROOT
BRANCH   9  17
ATOM     17  C   UNL     1      -6.873  -8.437   2.914  0.00  0.00    +0.051 A 
ATOM     18  C   UNL     1      -5.879  -9.294   3.366  0.00  0.00    +0.030 A 
ATOM     19  C   UNL     1      -6.032 -10.660   3.233  0.00  0.00    +0.049 A 
ATOM     20  C   UNL     1      -7.179 -11.176   2.647  0.00  0.00    +0.138 A 
ATOM     21  C   UNL     1      -8.173 -10.320   2.194  0.00  0.00    +0.084 A 
ATOM     22  C   UNL     1      -8.024  -8.953   2.333  0.00  0.00    +0.050 A 
ATOM     23 CL   UNL     1      -9.607 -10.966   1.460  0.00  0.00    -0.080 Cl
BRANCH  20  24
ATOM     24  O   UNL     1      -7.329 -12.521   2.516  0.00  0.00    -0.494 OA
ATOM     25  C   UNL     1      -6.266 -13.343   3.003  0.00  0.00    +0.277 C 
ENDBRANCH  20  24
ENDBRANCH   9  17
BRANCH  13  26
ATOM     26  C   UNL     1      -5.948  -0.581   0.152  0.00  0.00    +0.128 C 
BRANCH  26  27
ATOM     27  C   UNL     1      -4.457  -0.237   0.140  0.00  0.00    +0.003 C 
BRANCH  27  28
ATOM     28  C   UNL     1      -4.284   1.280   0.048  0.00  0.00    -0.077 C 
BRANCH  28  35
ATOM     29  C   UNL     1      -2.207   1.109  -1.184  0.00  0.00    -0.078 C 
ATOM     30  C   UNL     1      -0.756   1.594  -1.230  0.00  0.00    -0.019 C 
ATOM     31  C   UNL     1      -0.013   1.086   0.008  0.00  0.00    -0.003 C 
ATOM     32  C   UNL     1      -0.732   1.581   1.266  0.00  0.00    -0.016 C 
ATOM     33  C   UNL     1      -2.185   1.096   1.239  0.00  0.00    -0.072 C 
ATOM     34  C   UNL     1      -2.914   1.605   2.484  0.00  0.00    -0.013 C 
ATOM     35  N   UNL     1      -2.851   1.640   0.036  0.00  0.00    +0.381 N 
ATOM     36  H   UNL     1      -2.764   2.663   0.041  0.00  0.00    -0.081 HD
ENDBRANCH  28  35
ENDBRANCH  27  28
ENDBRANCH  26  27
ENDBRANCH  13  26
TORSDOF 6
