REMARK  Name = ZINC64539549
REMARK  8 active torsions:
REMARK  status: ('A' for Active; 'I' for Inactive)
REMARK    1  A    between atoms: C_1  and  O_2
REMARK    2  A    between atoms: O_2  and  C_3
REMARK    3  A    between atoms: C_9  and  C_12
REMARK    4  A    between atoms: C_12  and  C_13
REMARK    5  A    between atoms: C_13  and  N_14
REMARK    6  A    between atoms: C_15  and  C_17
REMARK    7  A    between atoms: N_25  and  C_28
REMARK    8  A    between atoms: C_28  and  C_29
REMARK                            x       y       z     vdW  Elec       q    Type
REMARK                         _______ _______ _______ _____ _____    ______ ____
ROOT
ATOM      1  C   UNL     1       2.195  -8.495  -1.705  0.00  0.00    +0.148 A 
ATOM      2  C   UNL     1       2.967  -9.198  -2.656  0.00  0.00    +0.067 A 
ATOM      3  C   UNL     1       2.151 -10.177  -3.114  0.00  0.00    +0.124 A 
ATOM      4  N   UNL     1       0.947 -10.059  -2.470  0.00  0.00    -0.258 N 
ATOM      5  N   UNL     1       1.009  -9.075  -1.648  0.00  0.00    -0.166 NA
ATOM      6  C   UNL     1      -0.191 -10.945  -2.722  0.00  0.00    +0.146 C 
ATOM      7  C   UNL     1      -0.787 -10.655  -4.105  0.00  0.00    +0.042 C 
ATOM      8  C   UNL     1       0.337 -10.454  -5.120  0.00  0.00    +0.110 C 
ATOM      9  N   UNL     1       1.402 -11.438  -5.011  0.00  0.00    -0.292 N 
ATOM     10  C   UNL     1       2.401 -11.234  -4.119  0.00  0.00    +0.265 C 
ATOM     11  O   UNL     1       3.434 -11.875  -4.143  0.00  0.00    -0.268 OA
ENDROOT
BRANCH   1  13
ATOM     12  N   UNL     1       1.793  -6.755  -0.031  0.00  0.00    -0.310 N 
ATOM     13  C   UNL     1       2.636  -7.328  -0.912  0.00  0.00    +0.264 C 
ATOM     14  O   UNL     1       3.759  -6.885  -1.056  0.00  0.00    -0.268 OA
ATOM     15  H   UNL     1       0.897  -7.108   0.083  0.00  0.00    +0.149 HD
BRANCH  12  16
ATOM     16  C   UNL     1       2.230  -5.598   0.754  0.00  0.00    +0.109 C 
BRANCH  16  17
ATOM     17  C   UNL     1       1.092  -5.144   1.671  0.00  0.00    +0.052 C 
BRANCH  17  24
ATOM     18  C   UNL     1       0.626  -0.619   1.042  0.00  0.00    +0.121 A 
ATOM     19  C   UNL     1       1.202   0.173   2.051  0.00  0.00    +0.047 A 
ATOM     20  C   UNL     1       1.839  -0.358   3.116  0.00  0.00    +0.029 A 
ATOM     21  C   UNL     1       1.947  -1.815   3.248  0.00  0.00    +0.043 A 
ATOM     22  N   UNL     1       2.500  -2.573   4.161  0.00  0.00    -0.380 N 
ATOM     23  C   UNL     1       2.308  -3.978   3.782  0.00  0.00    +0.144 C 
ATOM     24  C   UNL     1       1.541  -3.954   2.479  0.00  0.00    -0.040 C 
ATOM     25  C   UNL     1       1.340  -2.650   2.185  0.00  0.00    +0.002 A 
ATOM     26  C   UNL     1       0.667  -1.972   1.072  0.00  0.00    +0.055 A 
ATOM     27  H   UNL     1       2.961  -2.259   4.955  0.00  0.00    +0.160 HD
BRANCH  18  29
ATOM     28  C   UNL     1      -0.017   1.425   0.010  0.00  0.00    +0.277 C 
ATOM     29  O   UNL     1       0.002  -0.004   0.002  0.00  0.00    -0.495 OA
ENDBRANCH  18  29
ENDBRANCH  17  24
ENDBRANCH  16  17
ENDBRANCH  12  16
ENDBRANCH   1  13
BRANCH   9  30
ATOM     30  C   UNL     1       1.393 -12.637  -5.854  0.00  0.00    +0.143 C 
BRANCH  30  31
ATOM     31  C   UNL     1       2.134 -12.354  -7.136  0.00  0.00    -0.030 A 
ATOM     32  C   UNL     1       1.454 -11.854  -8.230  0.00  0.00    +0.006 A 
ATOM     33  C   UNL     1       2.133 -11.595  -9.406  0.00  0.00    +0.020 A 
ATOM     34  C   UNL     1       3.493 -11.836  -9.487  0.00  0.00    +0.041 A 
ATOM     35  C   UNL     1       4.172 -12.336  -8.391  0.00  0.00    +0.020 A 
ATOM     36  C   UNL     1       3.494 -12.590  -7.214  0.00  0.00    +0.006 A 
ATOM     37 CL   UNL     1       4.346 -11.511 -10.964  0.00  0.00    -0.084 Cl
ENDBRANCH  30  31
ENDBRANCH   9  30
TORSDOF 7
