REMARK  Name = ZINC63627528
REMARK  9 active torsions:
REMARK  status: ('A' for Active; 'I' for Inactive)
REMARK    1  A    between atoms: C_1  and  C_2
REMARK    2  A    between atoms: C_2  and  O_3
REMARK    3  A    between atoms: O_3  and  C_4
REMARK    4  A    between atoms: C_4  and  C_6
REMARK    5  A    between atoms: C_8  and  C_38
REMARK    6  A    between atoms: C_12  and  S_17
REMARK    7  A    between atoms: S_17  and  N_20
REMARK    8  A    between atoms: N_20  and  C_21
REMARK    9  A    between atoms: C_24  and  C_27
REMARK                            x       y       z     vdW  Elec       q    Type
REMARK                         _______ _______ _______ _____ _____    ______ ____
ROOT
ATOM      1  N   UNL     1       2.059  -4.731  -8.991  0.00  0.00    -0.216 N 
ATOM      2  H   UNL     1       2.194  -5.253  -9.797  0.00  0.00    +0.174 HD
ENDROOT
BRANCH   1   3
ATOM      3  C   UNL     1       2.431  -3.385  -8.960  0.00  0.00    +0.048 A 
ATOM      4  C   UNL     1       1.461  -2.393  -9.022  0.00  0.00    +0.025 A 
ATOM      5  C   UNL     1       1.833  -1.063  -8.991  0.00  0.00    +0.008 A 
ATOM      6  C   UNL     1       3.169  -0.719  -8.898  0.00  0.00    -0.021 A 
ATOM      7  C   UNL     1       4.137  -1.704  -8.836  0.00  0.00    +0.008 A 
ATOM      8  C   UNL     1       3.772  -3.036  -8.861  0.00  0.00    +0.025 A 
BRANCH   6   9
ATOM      9  C   UNL     1       3.571   0.733  -8.865  0.00  0.00    +0.133 C 
ATOM     10  C   UNL     1       4.098   1.159 -10.217  0.00  0.00    +0.012 C 
ATOM     11  C   UNL     1       5.376   1.551 -10.014  0.00  0.00    -0.001 A 
ATOM     12  C   UNL     1       6.413   2.065 -10.917  0.00  0.00    +0.048 A 
ATOM     13  C   UNL     1       7.628   2.380 -10.410  0.00  0.00    +0.124 A 
ATOM     14  C   UNL     1       7.920   2.226  -9.045  0.00  0.00    +0.040 A 
ATOM     15  C   UNL     1       7.018   1.760  -8.156  0.00  0.00    +0.029 A 
ATOM     16  C   UNL     1       5.709   1.399  -8.580  0.00  0.00    +0.043 A 
ATOM     17  N   UNL     1       4.676   0.931  -7.920  0.00  0.00    -0.374 N 
ATOM     18  F   UNL     1       8.585   2.853 -11.238  0.00  0.00    -0.205 F 
ATOM     19  H   UNL     1       4.646   0.747  -6.968  0.00  0.00    +0.161 HD
ENDBRANCH   6   9
ENDBRANCH   1   3
BRANCH   1  20
ATOM     20  S   UNL     1       1.387  -5.435  -7.651  0.00  0.00    +0.072 S 
ATOM     21  O   UNL     1       1.196  -6.807  -7.967  0.00  0.00    -0.150 OA
ATOM     22  O   UNL     1       0.319  -4.592  -7.242  0.00  0.00    -0.150 OA
BRANCH  20  27
ATOM     23  C   UNL     1       5.202  -3.693  -2.873  0.00  0.00    +0.288 C 
ATOM     24  C   UNL     1       3.769  -3.319  -3.319  0.00  0.00    +0.071 C 
ATOM     25  C   UNL     1       3.525  -4.301  -4.448  0.00  0.00    +0.003 A 
ATOM     26  C   UNL     1       2.580  -4.344  -5.448  0.00  0.00    +0.036 A 
ATOM     27  C   UNL     1       2.595  -5.376  -6.370  0.00  0.00    +0.109 A 
ATOM     28  C   UNL     1       3.562  -6.361  -6.282  0.00  0.00    +0.032 A 
ATOM     29  C   UNL     1       4.507  -6.322  -5.279  0.00  0.00    +0.048 A 
ATOM     30  C   UNL     1       4.497  -5.289  -4.345  0.00  0.00    +0.125 A 
ATOM     31  O   UNL     1       5.317  -5.068  -3.278  0.00  0.00    -0.477 OA
ATOM     32  C   UNL     1       2.768  -3.533  -2.181  0.00  0.00    +0.017 C 
BRANCH  23  33
ATOM     33  C   UNL     1       5.347  -3.563  -1.378  0.00  0.00    +0.349 C 
ATOM     34  O   UNL     1       5.513  -4.548  -0.699  0.00  0.00    -0.247 OA
BRANCH  33  35
ATOM     35  O   UNL     1       5.292  -2.352  -0.802  0.00  0.00    -0.462 OA
BRANCH  35  37
ATOM     36  C   UNL     1       5.348  -0.850   1.091  0.00  0.00    +0.048 C 
ATOM     37  C   UNL     1       5.437  -2.303   0.619  0.00  0.00    +0.229 C 
ENDBRANCH  35  37
ENDBRANCH  33  35
ENDBRANCH  23  33
ENDBRANCH  20  27
ENDBRANCH   1  20
TORSDOF 7
