REMARK  Name = ZINC12833033
REMARK  14 active torsions:
REMARK  status: ('A' for Active; 'I' for Inactive)
REMARK    1  A    between atoms: C_1  and  C_2
REMARK    2  A    between atoms: C_4  and  C_39
REMARK    3  A    between atoms: C_9  and  C_14
REMARK    4  A    between atoms: C_14  and  N_77
REMARK    5  A    between atoms: C_15  and  C_16
REMARK    6  A    between atoms: C_15  and  N_77
REMARK    7  A    between atoms: C_16  and  C_17
REMARK    8  A    between atoms: C_20  and  O_25
REMARK    9  A    between atoms: C_21  and  O_23
REMARK   10  A    between atoms: O_23  and  C_24
REMARK   11  A    between atoms: O_25  and  C_26
REMARK   12  A    between atoms: C_27  and  C_28
REMARK   13  A    between atoms: C_27  and  N_77
REMARK   14  A    between atoms: N_32  and  C_33
REMARK                            x       y       z     vdW  Elec       q    Type
REMARK                         _______ _______ _______ _____ _____    ______ ____
ROOT
ATOM      1  N   UNL     1      -1.529   7.794  -1.369  0.00  0.00    +0.387 N 
ATOM      2  H   UNL     1      -2.352   7.296  -1.729  0.00  0.00    -0.081 HD
ENDROOT
BRANCH   1   3
ATOM      3  C   UNL     1      -1.335   7.436   0.051  0.00  0.00    -0.037 C 
BRANCH   3  12
ATOM      4  C   UNL     1      -7.464   3.869   2.358  0.00  0.00    +0.044 C 
ATOM      5  C   UNL     1      -6.646   5.128   2.230  0.00  0.00    -0.050 A 
ATOM      6  C   UNL     1      -7.131   6.319   2.752  0.00  0.00    +0.008 A 
ATOM      7  C   UNL     1      -6.402   7.484   2.642  0.00  0.00    -0.026 A 
ATOM      8  C   UNL     1      -5.162   7.465   2.012  0.00  0.00    +0.052 A 
ATOM      9  C   UNL     1      -4.674   6.255   1.484  0.00  0.00    -0.001 A 
ATOM     10  C   UNL     1      -5.434   5.087   1.602  0.00  0.00    +0.013 A 
ATOM     11  C   UNL     1      -3.370   6.247   0.817  0.00  0.00    +0.017 A 
ATOM     12  C   UNL     1      -2.679   7.410   0.731  0.00  0.00    +0.001 A 
ATOM     13  C   UNL     1      -3.214   8.597   1.277  0.00  0.00    +0.251 A 
ATOM     14  O   UNL     1      -2.576   9.631   1.190  0.00  0.00    -0.268 OA
ATOM     15  N   UNL     1      -4.410   8.614   1.891  0.00  0.00    -0.322 N 
ATOM     16  H   UNL     1      -4.748   9.447   2.256  0.00  0.00    +0.169 HD
ATOM     17  C   UNL     1      -6.944   8.771   3.207  0.00  0.00    +0.046 C 
ENDBRANCH   3  12
ENDBRANCH   1   3
BRANCH   1  18
ATOM     18  C   UNL     1      -1.756   9.249  -1.497  0.00  0.00    -0.073 C 
BRANCH  18  19
ATOM     19  C   UNL     1      -2.174   9.559  -2.936  0.00  0.00    +0.017 C 
BRANCH  19  20
ATOM     20  C   UNL     1      -2.430  11.038  -3.077  0.00  0.00    -0.045 A 
ATOM     21  C   UNL     1      -3.696  11.543  -2.850  0.00  0.00    +0.007 A 
ATOM     22  C   UNL     1      -3.935  12.899  -2.973  0.00  0.00    +0.049 A 
ATOM     23  C   UNL     1      -2.906  13.754  -3.335  0.00  0.00    +0.161 A 
ATOM     24  C   UNL     1      -1.632  13.244  -3.569  0.00  0.00    +0.162 A 
ATOM     25  C   UNL     1      -1.399  11.884  -3.439  0.00  0.00    +0.053 A 
BRANCH  24  26
ATOM     26  O   UNL     1      -0.619  14.078  -3.925  0.00  0.00    -0.491 OA
ATOM     27  C   UNL     1       0.662  13.485  -4.149  0.00  0.00    +0.277 C 
ENDBRANCH  24  26
BRANCH  23  28
ATOM     28  O   UNL     1      -3.140  15.087  -3.462  0.00  0.00    -0.491 OA
ATOM     29  C   UNL     1      -4.471  15.540  -3.206  0.00  0.00    +0.277 C 
ENDBRANCH  23  28
ENDBRANCH  19  20
ENDBRANCH  18  19
ENDBRANCH   1  18
BRANCH   1  30
ATOM     30  C   UNL     1      -0.344   7.396  -2.158  0.00  0.00    +0.001 C 
BRANCH  30  31
ATOM     31  C   UNL     1      -0.389   5.906  -2.379  0.00  0.00    +0.135 A 
ATOM     32  N   UNL     1       0.223   4.990  -1.669  0.00  0.00    -0.115 NA
ATOM     33  N   UNL     1      -0.065   3.839  -2.171  0.00  0.00    -0.023 NA
ATOM     34  N   UNL     1      -0.838   3.998  -3.188  0.00  0.00    -0.044 NA
ATOM     35  N   UNL     1      -1.061   5.258  -3.349  0.00  0.00    -0.228 N 
BRANCH  35  36
ATOM     36  C   UNL     1      -1.890   5.869  -4.391  0.00  0.00    +0.111 C 
ATOM     37  C   UNL     1      -3.323   5.347  -4.274  0.00  0.00    +0.027 C 
ATOM     38  C   UNL     1      -4.189   5.985  -5.363  0.00  0.00    +0.002 C 
ATOM     39  C   UNL     1      -3.625   5.625  -6.739  0.00  0.00    +0.000 C 
ATOM     40  C   UNL     1      -2.192   6.147  -6.856  0.00  0.00    +0.002 C 
ATOM     41  C   UNL     1      -1.326   5.509  -5.767  0.00  0.00    +0.027 C 
ENDBRANCH  35  36
ENDBRANCH  30  31
ENDBRANCH   1  30
TORSDOF 10
