REMARK  Name = ZINC35791877
REMARK  12 active torsions:
REMARK  status: ('A' for Active; 'I' for Inactive)
REMARK    1  A    between atoms: C_1  and  O_2
REMARK    2  A    between atoms: O_2  and  C_3
REMARK    3  A    between atoms: C_6  and  C_10
REMARK    4  A    between atoms: C_8  and  O_9
REMARK    5  A    between atoms: C_10  and  N_11
REMARK    6  A    between atoms: C_20  and  C_22
REMARK    7  A    between atoms: C_25  and  O_32
REMARK    8  A    between atoms: C_26  and  O_30
REMARK    9  A    between atoms: C_27  and  O_28
REMARK   10  A    between atoms: O_28  and  C_29
REMARK   11  A    between atoms: O_30  and  C_31
REMARK   12  A    between atoms: O_32  and  C_33
REMARK                            x       y       z     vdW  Elec       q    Type
REMARK                         _______ _______ _______ _____ _____    ______ ____
ROOT
ATOM      1  N   UNL     1       3.922  -2.694  -4.099  0.00  0.00    +0.391 N 
ATOM      2  C   UNL     1       4.612  -1.402  -4.069  0.00  0.00    -0.075 C 
ATOM      3  C   UNL     1       6.074  -1.571  -3.675  0.00  0.00    +0.003 C 
ATOM      4  C   UNL     1       6.211  -2.725  -2.677  0.00  0.00    +0.119 C 
ATOM      5  N   UNL     1       6.392  -3.978  -3.419  0.00  0.00    -0.352 N 
ATOM      6  C   UNL     1       7.315  -4.945  -3.161  0.00  0.00    +0.086 A 
ATOM      7  C   UNL     1       7.144  -5.941  -4.054  0.00  0.00    +0.019 A 
ATOM      8  C   UNL     1       6.078  -5.572  -4.899  0.00  0.00    +0.021 A 
ATOM      9  C   UNL     1       5.641  -4.364  -4.493  0.00  0.00    +0.010 A 
ATOM     10  C   UNL     1       4.525  -3.564  -5.119  0.00  0.00    +0.014 C 
ATOM     11  H   UNL     1       3.999  -3.135  -3.195  0.00  0.00    -0.080 HD
ENDROOT
BRANCH  10  12
ATOM     12  C   UNL     1       3.478  -4.501  -5.664  0.00  0.00    -0.010 A 
ATOM     13  C   UNL     1       2.769  -5.319  -4.804  0.00  0.00    +0.010 A 
ATOM     14  C   UNL     1       1.808  -6.180  -5.299  0.00  0.00    +0.050 A 
ATOM     15  C   UNL     1       1.552  -6.227  -6.661  0.00  0.00    +0.165 A 
ATOM     16  C   UNL     1       2.262  -5.406  -7.529  0.00  0.00    +0.204 A 
ATOM     17  C   UNL     1       3.224  -4.538  -7.026  0.00  0.00    +0.167 A 
BRANCH  17  18
ATOM     18  O   UNL     1       3.918  -3.729  -7.870  0.00  0.00    -0.491 OA
ATOM     19  C   UNL     1       5.073  -4.287  -8.500  0.00  0.00    +0.277 C 
ENDBRANCH  17  18
BRANCH  16  20
ATOM     20  O   UNL     1       2.014  -5.450  -8.866  0.00  0.00    -0.488 OA
ATOM     21  C   UNL     1       1.012  -4.563  -9.368  0.00  0.00    +0.277 C 
ENDBRANCH  16  20
BRANCH  15  22
ATOM     22  O   UNL     1       0.607  -7.076  -7.147  0.00  0.00    -0.491 OA
ATOM     23  C   UNL     1      -0.084  -7.890  -6.198  0.00  0.00    +0.277 C 
ENDBRANCH  15  22
ENDBRANCH  10  12
BRANCH   1  24
ATOM     24  C   UNL     1       2.503  -2.482  -4.418  0.00  0.00    -0.042 C 
BRANCH  24  28
ATOM     25  C   UNL     1       0.683  -0.151  -1.328  0.00  0.00    +0.161 A 
ATOM     26  C   UNL     1       1.262   0.473  -2.421  0.00  0.00    +0.049 A 
ATOM     27  C   UNL     1       1.850  -0.283  -3.418  0.00  0.00    +0.005 A 
ATOM     28  C   UNL     1       1.861  -1.662  -3.328  0.00  0.00    -0.060 A 
ATOM     29  C   UNL     1       1.285  -2.292  -2.240  0.00  0.00    +0.051 A 
ATOM     30  C   UNL     1       0.699  -1.539  -1.235  0.00  0.00    +0.159 A 
BRANCH  25  32
ATOM     31  C   UNL     1       0.124   2.011  -0.510  0.00  0.00    +0.277 C 
ATOM     32  O   UNL     1       0.104   0.591  -0.347  0.00  0.00    -0.491 OA
ENDBRANCH  25  32
BRANCH  30  33
ATOM     33  O   UNL     1       0.136  -2.157  -0.162  0.00  0.00    -0.503 OA
ATOM     34  H   UNL     1      -0.799  -2.373  -0.278  0.00  0.00    +0.292 HD
ENDBRANCH  30  33
ENDBRANCH  24  28
ENDBRANCH   1  24
TORSDOF 8
