REMARK  Name = ZINC01196677
REMARK  6 active torsions:
REMARK  status: ('A' for Active; 'I' for Inactive)
REMARK    1  A    between atoms: C_4  and  C_7
REMARK    2  A    between atoms: C_10  and  C_13
REMARK    3  A    between atoms: C_14  and  C_24
REMARK    4  A    between atoms: N_16  and  C_18
REMARK    5  A    between atoms: C_25  and  C_26
REMARK    6  A    between atoms: C_25  and  C_28
REMARK                            x       y       z     vdW  Elec       q    Type
REMARK                         _______ _______ _______ _____ _____    ______ ____
ROOT
ATOM      1  C   UNL     1       2.796   3.792  -0.522  0.00  0.00    +0.100 A 
ATOM      2  C   UNL     1       2.820   5.213  -0.895  0.00  0.00    +0.022 A 
ATOM      3  C   UNL     1       4.090   5.675  -0.585  0.00  0.00    +0.123 A 
ATOM      4  N   UNL     1       4.788   4.645  -0.079  0.00  0.00    -0.239 N 
ATOM      5  N   UNL     1       3.986   3.501  -0.046  0.00  0.00    -0.166 NA
ENDROOT
BRANCH   1   9
ATOM      6  C   UNL     1      -0.492   1.125  -0.929  0.00  0.00    -0.018 A 
ATOM      7  C   UNL     1       0.810   0.661  -1.117  0.00  0.00    +0.009 A 
ATOM      8  C   UNL     1       1.875   1.524  -0.987  0.00  0.00    +0.011 A 
ATOM      9  C   UNL     1       1.652   2.863  -0.661  0.00  0.00    +0.003 A 
ATOM     10  C   UNL     1       0.349   3.325  -0.468  0.00  0.00    +0.011 A 
ATOM     11  C   UNL     1      -0.715   2.461  -0.598  0.00  0.00    +0.009 A 
BRANCH   6  15
ATOM     12  C   UNL     1      -3.779  -1.538  -1.348  0.00  0.00    +0.000 A 
ATOM     13  C   UNL     1      -4.003  -0.212  -1.024  0.00  0.00    +0.001 A 
ATOM     14  C   UNL     1      -2.940   0.656  -0.887  0.00  0.00    +0.008 A 
ATOM     15  C   UNL     1      -1.638   0.196  -1.075  0.00  0.00    -0.018 A 
ATOM     16  C   UNL     1      -1.418  -1.140  -1.406  0.00  0.00    +0.008 A 
ATOM     17  C   UNL     1      -2.489  -2.001  -1.536  0.00  0.00    +0.001 A 
ENDBRANCH   6  15
ENDBRANCH   1   9
BRANCH   4  18
ATOM     18  C   UNL     1       6.119   4.708   0.351  0.00  0.00    +0.065 A 
ATOM     19  C   UNL     1       6.822   5.902   0.265  0.00  0.00    +0.028 A 
ATOM     20  C   UNL     1       8.134   5.963   0.695  0.00  0.00    +0.002 A 
ATOM     21  C   UNL     1       8.750   4.832   1.200  0.00  0.00    +0.000 A 
ATOM     22  C   UNL     1       8.054   3.640   1.282  0.00  0.00    +0.002 A 
ATOM     23  C   UNL     1       6.741   3.575   0.860  0.00  0.00    +0.028 A 
ENDBRANCH   4  18
BRANCH   2  24
ATOM     24  C   UNL     1       1.723   5.986  -1.475  0.00  0.00    +0.035 C 
ATOM     25  C   UNL     1       1.762   7.365  -1.450  0.00  0.00    +0.114 C 
BRANCH  25  26
ATOM     26  C   UNL     1       0.737   8.142  -2.162  0.00  0.00    +0.252 C 
ATOM     27  O   UNL     1      -0.145   7.569  -2.773  0.00  0.00    -0.270 OA
ATOM     28  N   UNL     1       0.775   9.489  -2.138  0.00  0.00    -0.325 N 
ATOM     29  H   UNL     1       1.479   9.946  -1.651  0.00  0.00    +0.145 HD
ATOM     30  H   UNL     1       0.099  10.002  -2.608  0.00  0.00    +0.145 HD
ENDBRANCH  25  26
BRANCH  25  31
ATOM     31  C   UNL     1       2.801   8.039  -0.731  0.00  0.00    +0.104 C 
ATOM     32  N   UNL     1       3.625   8.574  -0.160  0.00  0.00    -0.191 NA
ENDBRANCH  25  31
ENDBRANCH   2  24
TORSDOF 6
