REMARK  Name = ZINC13010116
REMARK  11 active torsions:
REMARK  status: ('A' for Active; 'I' for Inactive)
REMARK    1  A    between atoms: C_1  and  C_2
REMARK    2  A    between atoms: C_3  and  C_35
REMARK    3  A    between atoms: C_4  and  S_10
REMARK    4  A    between atoms: C_7  and  O_8
REMARK    5  A    between atoms: O_8  and  C_9
REMARK    6  A    between atoms: S_10  and  N_13
REMARK    7  A    between atoms: N_13  and  C_14
REMARK    8  A    between atoms: C_17  and  N_20
REMARK    9  A    between atoms: C_28  and  C_34
REMARK   10  A    between atoms: C_29  and  C_33
REMARK   11  A    between atoms: C_30  and  C_32
REMARK                            x       y       z     vdW  Elec       q    Type
REMARK                         _______ _______ _______ _____ _____    ______ ____
ROOT
ATOM      1  C   UNL     1       1.787   0.442   4.882  0.00  0.00    +0.048 A 
ATOM      2  C   UNL     1       1.528  -0.306   3.741  0.00  0.00    +0.026 A 
ATOM      3  C   UNL     1       2.563  -0.935   3.078  0.00  0.00    +0.025 A 
ATOM      4  C   UNL     1       3.861  -0.829   3.558  0.00  0.00    +0.033 A 
ATOM      5  C   UNL     1       4.120  -0.085   4.703  0.00  0.00    +0.025 A 
ATOM      6  C   UNL     1       3.086   0.548   5.363  0.00  0.00    +0.026 A 
ENDROOT
BRANCH   4   7
ATOM      7  N   UNL     1       4.910  -1.471   2.889  0.00  0.00    -0.298 N 
ATOM      8  C   UNL     1       4.883  -1.588   1.502  0.00  0.00    +0.146 A 
ATOM      9  C   UNL     1       5.859  -2.337   0.844  0.00  0.00    +0.049 A 
ATOM     10  C   UNL     1       5.790  -2.424  -0.536  0.00  0.00    +0.053 A 
ATOM     11  C   UNL     1       4.748  -1.758  -1.182  0.00  0.00    +0.176 A 
ATOM     12  N   UNL     1       3.867  -1.071  -0.475  0.00  0.00    -0.128 NA
ATOM     13  N   UNL     1       3.928  -0.993   0.805  0.00  0.00    -0.132 NA
ATOM     14  N   UNL     1       4.636  -1.818  -2.576  0.00  0.00    -0.217 N 
ATOM     15  C   UNL     1       3.494  -1.663  -3.294  0.00  0.00    +0.047 A 
ATOM     16  C   UNL     1       3.814  -1.788  -4.603  0.00  0.00    -0.007 A 
ATOM     17  C   UNL     1       5.188  -2.036  -4.690  0.00  0.00    +0.064 A 
ATOM     18  N   UNL     1       5.681  -2.054  -3.478  0.00  0.00    -0.170 NA
ATOM     19  C   UNL     1       5.967  -2.246  -5.963  0.00  0.00    +0.068 C 
ATOM     20  C   UNL     1       2.856  -1.684  -5.762  0.00  0.00    +0.047 C 
ATOM     21  C   UNL     1       2.121  -1.396  -2.735  0.00  0.00    +0.066 C 
ATOM     22  H   UNL     1       5.656  -1.834   3.392  0.00  0.00    +0.154 HD
ENDBRANCH   4   7
BRANCH   1  23
ATOM     23  N   UNL     1       0.738   1.083   5.552  0.00  0.00    -0.216 N 
ATOM     24  H   UNL     1       0.674   1.029   6.518  0.00  0.00    +0.174 HD
BRANCH  23  25
ATOM     25  S   UNL     1      -0.393   1.936   4.694  0.00  0.00    +0.073 S 
ATOM     26  O   UNL     1      -1.259   2.535   5.647  0.00  0.00    -0.150 OA
ATOM     27  O   UNL     1      -0.866   1.069   3.672  0.00  0.00    -0.150 OA
BRANCH  25  31
ATOM     28  C   UNL     1       2.306   6.410   4.810  0.00  0.00    +0.048 C 
ATOM     29  C   UNL     1       1.686   5.303   3.997  0.00  0.00    -0.004 A 
ATOM     30  C   UNL     1       1.022   4.269   4.629  0.00  0.00    -0.017 A 
ATOM     31  C   UNL     1       0.452   3.254   3.884  0.00  0.00    +0.112 A 
ATOM     32  C   UNL     1       0.545   3.270   2.505  0.00  0.00    +0.032 A 
ATOM     33  C   UNL     1       1.207   4.301   1.867  0.00  0.00    +0.048 A 
ATOM     34  C   UNL     1       1.776   5.324   2.613  0.00  0.00    +0.123 A 
ATOM     35  C   UNL     1       0.919   4.249   6.133  0.00  0.00    +0.046 C 
BRANCH  34  36
ATOM     36  O   UNL     1       2.423   6.343   1.988  0.00  0.00    -0.495 OA
ATOM     37  C   UNL     1       2.476   6.299   0.561  0.00  0.00    +0.277 C 
ENDBRANCH  34  36
ENDBRANCH  25  31
ENDBRANCH  23  25
ENDBRANCH   1  23
TORSDOF 5
