REMARK  Name = ZINC39363174
REMARK  7 active torsions:
REMARK  status: ('A' for Active; 'I' for Inactive)
REMARK    1  A    between atoms: C_1  and  C_2
REMARK    2  A    between atoms: C_5  and  C_8
REMARK    3  A    between atoms: C_8  and  S_9
REMARK    4  A    between atoms: S_9  and  C_10
REMARK    5  A    between atoms: C_13  and  C_23
REMARK    6  A    between atoms: N_15  and  C_16
REMARK    7  A    between atoms: C_23  and  C_24
REMARK                            x       y       z     vdW  Elec       q    Type
REMARK                         _______ _______ _______ _____ _____    ______ ____
ROOT
ATOM      1  C   UNL     1       1.632  -6.614  -0.010  0.00  0.00    +0.180 C 
ATOM      2  N   UNL     1       0.507  -7.246  -0.023  0.00  0.00    -0.162 NA
ATOM      3  N   UNL     1       0.698  -8.633  -0.071  0.00  0.00    -0.246 N 
ATOM      4  C   UNL     1       2.156  -8.846  -0.090  0.00  0.00    +0.187 C 
ATOM      5  N   UNL     1       2.713  -7.483  -0.054  0.00  0.00    -0.258 N 
ATOM      6  H   UNL     1       0.009  -9.315  -0.088  0.00  0.00    +0.170 HD
ENDROOT
BRANCH   5   7
ATOM      7  C   UNL     1       4.067  -7.134  -0.059  0.00  0.00    +0.038 A 
ATOM      8  C   UNL     1       4.875  -7.463   1.022  0.00  0.00    +0.025 A 
ATOM      9  C   UNL     1       6.212  -7.116   1.013  0.00  0.00    +0.022 A 
ATOM     10  C   UNL     1       6.746  -6.442  -0.070  0.00  0.00    +0.041 A 
ATOM     11  C   UNL     1       5.944  -6.113  -1.149  0.00  0.00    +0.022 A 
ATOM     12  C   UNL     1       4.607  -6.462  -1.148  0.00  0.00    +0.025 A 
ATOM     13 CL   UNL     1       8.427  -6.007  -0.077  0.00  0.00    -0.084 Cl
ENDBRANCH   5   7
BRANCH   1  14
ATOM     14  S   UNL     1       1.778  -4.859   0.047  0.00  0.00    -0.084 S 
BRANCH  14  15
ATOM     15  C   UNL     1       0.060  -4.277   0.089  0.00  0.00    +0.112 C 
BRANCH  15  20
ATOM     16  C   UNL     1      -0.016   1.497   0.285  0.00  0.00    +0.044 C 
ATOM     17  C   UNL     1       0.004  -0.009   0.234  0.00  0.00    -0.050 A 
ATOM     18  C   UNL     1      -0.001  -0.659  -0.986  0.00  0.00    +0.003 A 
ATOM     19  C   UNL     1       0.017  -2.040  -1.033  0.00  0.00    +0.005 A 
ATOM     20  C   UNL     1       0.041  -2.772   0.140  0.00  0.00    -0.037 A 
ATOM     21  C   UNL     1       0.048  -2.121   1.360  0.00  0.00    +0.005 A 
ATOM     22  C   UNL     1       0.034  -0.740   1.407  0.00  0.00    +0.003 A 
ENDBRANCH  15  20
ENDBRANCH  14  15
ENDBRANCH   1  14
BRANCH   4  23
ATOM     23  C   UNL     1       2.577  -9.563  -1.374  0.00  0.00    +0.097 C 
BRANCH  23  24
ATOM     24  C   UNL     1       1.914 -10.915  -1.435  0.00  0.00    +0.029 A 
ATOM     25  N   UNL     1       2.480 -11.987  -0.802  0.00  0.00    -0.311 N 
ATOM     26  C   UNL     1       1.896 -13.198  -0.850  0.00  0.00    +0.327 A 
ATOM     27  O   UNL     1       2.416 -14.138  -0.280  0.00  0.00    -0.247 OA
ATOM     28  N   UNL     1       0.743 -13.384  -1.520  0.00  0.00    -0.275 N 
ATOM     29  C   UNL     1       0.154 -12.352  -2.158  0.00  0.00    +0.254 A 
ATOM     30  O   UNL     1      -0.889 -12.520  -2.765  0.00  0.00    -0.268 OA
ATOM     31  C   UNL     1       0.755 -11.072  -2.111  0.00  0.00    +0.091 A 
ATOM     32  H   UNL     1       0.335 -14.264  -1.545  0.00  0.00    +0.173 HD
ATOM     33  H   UNL     1       3.310 -11.874  -0.314  0.00  0.00    +0.170 HD
ENDBRANCH  23  24
ENDBRANCH   4  23
TORSDOF 6
