REMARK  Name = ZINC35088041
REMARK  10 active torsions:
REMARK  status: ('A' for Active; 'I' for Inactive)
REMARK    1  A    between atoms: C_1  and  C_2
REMARK    2  A    between atoms: C_9  and  C_33
REMARK    3  A    between atoms: C_10  and  C_11
REMARK    4  A    between atoms: C_11  and  C_12
REMARK    5  A    between atoms: C_13  and  C_25
REMARK    6  A    between atoms: N_15  and  C_20
REMARK    7  A    between atoms: C_20  and  C_21
REMARK    8  A    between atoms: C_21  and  N_22
REMARK    9  A    between atoms: N_22  and  C_23
REMARK   10  A    between atoms: N_22  and  C_24
REMARK                            x       y       z     vdW  Elec       q    Type
REMARK                         _______ _______ _______ _____ _____    ______ ____
ROOT
ATOM      1  C   UNL     1      -0.871  -5.335   3.805  0.00  0.00    +0.078 C 
ATOM      2  C   UNL     1      -0.730  -4.139   4.718  0.00  0.00    +0.147 C 
ATOM      3  N   UNL     1      -0.623  -4.676   6.080  0.00  0.00    -0.285 N 
ATOM      4  C   UNL     1      -0.691  -6.018   6.001  0.00  0.00    +0.288 C 
ATOM      5  O   UNL     1      -0.635  -6.776   6.949  0.00  0.00    -0.266 OA
ATOM      6  C   UNL     1      -0.849  -6.433   4.594  0.00  0.00    +0.249 C 
ATOM      7  O   UNL     1      -0.954  -7.712   4.161  0.00  0.00    -0.282 OA
ENDROOT
BRANCH   2   8
ATOM      8  C   UNL     1       0.514  -3.363   4.369  0.00  0.00    +0.013 A 
ATOM      9  C   UNL     1       1.703  -3.633   5.020  0.00  0.00    +0.008 A 
ATOM     10  C   UNL     1       2.844  -2.921   4.699  0.00  0.00    +0.001 A 
ATOM     11  C   UNL     1       2.797  -1.939   3.727  0.00  0.00    +0.003 A 
ATOM     12  C   UNL     1       1.610  -1.668   3.075  0.00  0.00    +0.039 A 
ATOM     13  C   UNL     1       0.467  -2.384   3.391  0.00  0.00    +0.129 A 
ATOM     14  F   UNL     1      -0.693  -2.123   2.751  0.00  0.00    -0.205 F 
ENDBRANCH   2   8
BRANCH   1  15
ATOM     15  C   UNL     1      -1.010  -5.309   2.344  0.00  0.00    +0.213 C 
ATOM     16  O   UNL     1      -0.042  -5.067   1.643  0.00  0.00    -0.285 OA
BRANCH  15  26
ATOM     17  C   UNL     1      -5.914  -6.370  -1.151  0.00  0.00    +0.047 C 
ATOM     18  C   UNL     1      -4.439  -6.100  -1.000  0.00  0.00    -0.008 A 
ATOM     19  C   UNL     1      -3.638  -6.020  -2.101  0.00  0.00    +0.008 A 
ATOM     20  C   UNL     1      -2.268  -5.769  -1.944  0.00  0.00    +0.018 A 
ATOM     21  C   UNL     1      -1.745  -5.608  -0.706  0.00  0.00    +0.093 A 
ATOM     22  N   UNL     1      -2.538  -5.686   0.396  0.00  0.00    -0.296 N 
ATOM     23  C   UNL     1      -3.877  -5.924   0.276  0.00  0.00    +0.141 A 
ATOM     24  N   UNL     1      -4.418  -5.945   1.495  0.00  0.00    -0.232 NA
ATOM     25  C   UNL     1      -3.484  -5.725   2.404  0.00  0.00    +0.068 A 
ATOM     26  C   UNL     1      -2.270  -5.564   1.748  0.00  0.00    +0.116 A 
ATOM     27  C   UNL     1      -3.696  -5.672   3.895  0.00  0.00    +0.068 C 
ENDBRANCH  15  26
ENDBRANCH   1  15
BRANCH   3  28
ATOM     28  C   UNL     1      -0.470  -3.891   7.308  0.00  0.00    +0.090 C 
BRANCH  28  29
ATOM     29  C   UNL     1      -1.852  -3.554   7.873  0.00  0.00    -0.060 C 
BRANCH  29  30
ATOM     30  N   UNL     1      -1.698  -2.767   9.103  0.00  0.00    +0.377 N 
ATOM     31  C   UNL     1      -1.082  -1.472   8.783  0.00  0.00    -0.097 C 
ATOM     32  C   UNL     1      -3.017  -2.544   9.710  0.00  0.00    -0.097 C 
ATOM     33  H   UNL     1      -1.110  -3.268   9.752  0.00  0.00    -0.083 HD
ENDBRANCH  29  30
ENDBRANCH  28  29
ENDBRANCH   3  28
TORSDOF 6
