REMARK  Name = ZINC16492694
REMARK  6 active torsions:
REMARK  status: ('A' for Active; 'I' for Inactive)
REMARK    1  A    between atoms: C_4  and  C_7
REMARK    2  A    between atoms: C_9  and  C_28
REMARK    3  A    between atoms: N_13  and  N_14
REMARK    4  A    between atoms: C_15  and  C_16
REMARK    5  A    between atoms: C_17  and  O_27
REMARK    6  A    between atoms: C_19  and  C_21
REMARK                            x       y       z     vdW  Elec       q    Type
REMARK                         _______ _______ _______ _____ _____    ______ ____
ROOT
ATOM      1  C   UNL     1      -6.116   1.167   0.069  0.00  0.00    +0.077 A 
ATOM      2  C   UNL     1      -7.239   0.339   0.075  0.00  0.00    +0.057 A 
ATOM      3  C   UNL     1      -7.044  -1.043   0.065  0.00  0.00    +0.077 A 
ATOM      4  N   UNL     1      -5.801  -1.521   0.050  0.00  0.00    -0.213 NA
ATOM      5  C   UNL     1      -4.759  -0.703   0.045  0.00  0.00    +0.236 A 
ATOM      6  N   UNL     1      -4.904   0.614   0.059  0.00  0.00    -0.213 NA
ATOM      7  N   UNL     1      -3.484  -1.239   0.029  0.00  0.00    -0.205 N 
ATOM      8  H   UNL     1      -3.362  -2.201   0.022  0.00  0.00    +0.177 HD
ENDROOT
BRANCH   1  12
ATOM      9  C   UNL     1      -6.554   5.396   0.097  0.00  0.00    +0.000 A 
ATOM     10  C   UNL     1      -5.290   4.834   0.082  0.00  0.00    +0.001 A 
ATOM     11  C   UNL     1      -5.142   3.462   0.072  0.00  0.00    +0.010 A 
ATOM     12  C   UNL     1      -6.269   2.642   0.079  0.00  0.00    +0.001 A 
ATOM     13  C   UNL     1      -7.540   3.213   0.089  0.00  0.00    +0.010 A 
ATOM     14  C   UNL     1      -7.676   4.586   0.104  0.00  0.00    +0.001 A 
ENDBRANCH   1  12
BRANCH   3  15
ATOM     15  C   UNL     1      -8.205  -1.966   0.072  0.00  0.00    +0.001 A 
ATOM     16  C   UNL     1      -9.502  -1.458   0.093  0.00  0.00    +0.010 A 
ATOM     17  C   UNL     1     -10.579  -2.322   0.093  0.00  0.00    +0.001 A 
ATOM     18  C   UNL     1     -10.371  -3.690   0.084  0.00  0.00    +0.000 A 
ATOM     19  C   UNL     1      -9.085  -4.199   0.069  0.00  0.00    +0.001 A 
ATOM     20  C   UNL     1      -8.002  -3.345   0.062  0.00  0.00    +0.010 A 
ENDBRANCH   3  15
BRANCH   7  21
ATOM     21  N   UNL     1      -2.368  -0.392   0.023  0.00  0.00    -0.186 NA
ATOM     22  C   UNL     1      -1.171  -0.894   0.008  0.00  0.00    +0.165 C 
BRANCH  22  23
ATOM     23  C   UNL     1       0.002  -0.004   0.002  0.00  0.00    +0.167 A 
ATOM     24  C   UNL     1       1.326  -0.393  -0.013  0.00  0.00    +0.314 A 
ATOM     25  O   UNL     1       2.062   0.735  -0.014  0.00  0.00    -0.405 OA
ATOM     26  C   UNL     1       1.218   1.784   0.000  0.00  0.00    +0.232 A 
ATOM     27  N   UNL     1      -0.016   1.347   0.009  0.00  0.00    -0.204 NA
BRANCH  26  28
ATOM     28  C   UNL     1       1.622   3.205   0.004  0.00  0.00    +0.037 A 
ATOM     29  C   UNL     1       0.652   4.210   0.013  0.00  0.00    +0.013 A 
ATOM     30  C   UNL     1       1.036   5.535   0.022  0.00  0.00    +0.001 A 
ATOM     31  C   UNL     1       2.379   5.869   0.011  0.00  0.00    +0.000 A 
ATOM     32  C   UNL     1       3.345   4.879  -0.004  0.00  0.00    +0.001 A 
ATOM     33  C   UNL     1       2.975   3.550  -0.007  0.00  0.00    +0.013 A 
ENDBRANCH  26  28
BRANCH  24  34
ATOM     34  O   UNL     1       1.795  -1.664  -0.024  0.00  0.00    -0.478 OA
ATOM     35  H   UNL     1       1.923  -2.028  -0.911  0.00  0.00    +0.295 HD
ENDBRANCH  24  34
ENDBRANCH  22  23
ENDBRANCH   7  21
TORSDOF 6
