REMARK  Name = ZINC34791136
REMARK  3 active torsions:
REMARK  status: ('A' for Active; 'I' for Inactive)
REMARK    1  A    between atoms: C_5  and  O_8
REMARK    2  A    between atoms: C_6  and  O_7
REMARK    3  A    between atoms: CA_16  and  C_18
REMARK                            x       y       z     vdW  Elec       q    Type
REMARK                         _______ _______ _______ _____ _____    ______ ____
ROOT
ATOM      1  C   UNL     1      -0.017   1.379   0.010  0.00  0.00    +0.052 A 
ATOM      2  C   UNL     1       1.171   2.097   0.002  0.00  0.00    -0.043 A 
ATOM      3  C   UNL     1       2.377   1.427  -0.009  0.00  0.00    -0.037 A 
ATOM      4  C   UNL     1       2.401   0.041  -0.020  0.00  0.00    +0.053 A 
ATOM      5  C   UNL     1       1.220  -0.678  -0.014  0.00  0.00    +0.159 A 
ATOM      6  C   UNL     1       0.002  -0.004   0.002  0.00  0.00    +0.158 A 
ATOM      7  C   UNL     1       3.683   2.175  -0.005  0.00  0.00    -0.019 C 
ATOM      8  C   UNL     1       4.662   1.519  -0.996  0.00  0.00    +0.010 C 
ATOM      9  C   UNL     1       6.040   1.626  -0.295  0.00  0.00    +0.001 C 
ATOM     10  C   UNL     1       5.687   1.376   1.192  0.00  0.00    +0.001 C 
ATOM     11  C   UNL     1       4.332   2.088   1.385  0.00  0.00    +0.010 C 
ATOM     12  C   UNL     1       3.462   3.637  -0.387  0.00  0.00    -0.069 C 
ATOM     13  N   UNL     1       2.375   4.179   0.444  0.00  0.00    +0.391 N 
ATOM     14  CA  UNL     1       1.103   3.601   0.004  0.00  0.00    +0.075 C 
ATOM     15  H1  UNL     1       2.538   3.940   1.411  0.00  0.00    -0.084 HD
ATOM     16  H2  UNL     1       2.343   5.183   0.344  0.00  0.00    -0.084 HD
ENDROOT
BRANCH  14  17
ATOM     17  C   UNL     1       0.006   4.047   0.937  0.00  0.00    +0.347 C 
ATOM     18  O   UNL     1       0.254   4.258   2.112  0.00  0.00    -0.248 OA
ATOM     19  OXT UNL     1      -1.128   4.197   0.516  0.00  0.00    -0.248 OA
ENDBRANCH  14  17
BRANCH   6  20
ATOM     20  O   UNL     1      -1.165  -0.703   0.010  0.00  0.00    -0.503 OA
ATOM     21  H   UNL     1      -1.511  -0.900  -0.871  0.00  0.00    +0.292 HD
ENDBRANCH   6  20
BRANCH   5  22
ATOM     22  O   UNL     1       1.248  -2.038  -0.023  0.00  0.00    -0.503 OA
ATOM     23  H   UNL     1       1.264  -2.437   0.858  0.00  0.00    +0.292 HD
ENDBRANCH   5  22
TORSDOF 3
