REMARK  Name = ZINC63375847
REMARK  4 active torsions:
REMARK  status: ('A' for Active; 'I' for Inactive)
REMARK    1  A    between atoms: C_20  and  C_25
REMARK    2  A    between atoms: N_27  and  C_28
REMARK    3  A    between atoms: C_28  and  C_29
REMARK    4  A    between atoms: C_29  and  C_30
REMARK                            x       y       z     vdW  Elec       q    Type
REMARK                         _______ _______ _______ _____ _____    ______ ____
ROOT
ATOM      1  C   UNL     1      -0.017   1.387   0.010  0.00  0.00    +0.000 A 
ATOM      2  C   UNL     1       1.147   2.131   0.003  0.00  0.00    +0.001 A 
ATOM      3  C   UNL     1       2.398   1.533  -0.009  0.00  0.00    +0.013 A 
ATOM      4  C   UNL     1       2.430   0.136  -0.012  0.00  0.00    +0.042 A 
ATOM      5  C   UNL     1       1.237  -0.613  -0.012  0.00  0.00    -0.013 A 
ATOM      6  C   UNL     1       0.002  -0.004   0.002  0.00  0.00    +0.006 A 
ATOM      7  C   UNL     1       1.641  -2.050  -0.038  0.00  0.00    +0.134 C 
ATOM      8  C   UNL     1       1.065  -2.816   1.153  0.00  0.00    +0.131 C 
ATOM      9  C   UNL     1       2.235  -3.246   2.025  0.00  0.00    -0.034 C 
ATOM     10  C   UNL     1       1.992  -2.758   3.240  0.00  0.00    -0.001 A 
ATOM     11  C   UNL     1       2.723  -2.892   4.510  0.00  0.00    +0.010 A 
ATOM     12  C   UNL     1       2.190  -2.243   5.579  0.00  0.00    +0.001 A 
ATOM     13  C   UNL     1       1.018  -1.484   5.511  0.00  0.00    +0.002 A 
ATOM     14  C   UNL     1       0.280  -1.309   4.386  0.00  0.00    +0.026 A 
ATOM     15  C   UNL     1       0.738  -1.947   3.196  0.00  0.00    +0.043 A 
ATOM     16  N   UNL     1       0.216  -1.964   1.989  0.00  0.00    -0.375 N 
ATOM     17  C   UNL     1       3.425  -4.013   1.505  0.00  0.00    +0.065 C 
ATOM     18  C   UNL     1       3.933  -3.269   0.256  0.00  0.00    +0.167 C 
ATOM     19  N   UNL     1       3.114  -2.064   0.050  0.00  0.00    -0.276 N 
ATOM     20  C   UNL     1       3.560  -0.795  -0.017  0.00  0.00    +0.248 C 
ATOM     21  O   UNL     1       4.730  -0.469  -0.072  0.00  0.00    -0.270 OA
ATOM     22  H   UNL     1      -0.582  -1.497   1.698  0.00  0.00    +0.160 HD
ENDROOT
BRANCH  18  23
ATOM     23  C   UNL     1       3.805  -4.159  -0.954  0.00  0.00    +0.234 C 
ATOM     24  O   UNL     1       3.117  -3.813  -1.890  0.00  0.00    -0.274 OA
ATOM     25  N   UNL     1       4.457  -5.338  -0.995  0.00  0.00    -0.313 N 
ATOM     26  H   UNL     1       5.007  -5.614  -0.245  0.00  0.00    +0.149 HD
BRANCH  25  27
ATOM     27  C   UNL     1       4.332  -6.203  -2.171  0.00  0.00    +0.109 C 
BRANCH  27  28
ATOM     28  C   UNL     1       5.164  -7.470  -1.962  0.00  0.00    +0.054 C 
BRANCH  28  29
ATOM     29  C   UNL     1       5.037  -8.360  -3.172  0.00  0.00    -0.046 A 
ATOM     30  C   UNL     1       4.028  -9.303  -3.232  0.00  0.00    +0.005 A 
ATOM     31  C   UNL     1       3.911 -10.119  -4.341  0.00  0.00    +0.020 A 
ATOM     32  C   UNL     1       4.802  -9.992  -5.391  0.00  0.00    +0.041 A 
ATOM     33  C   UNL     1       5.811  -9.047  -5.330  0.00  0.00    +0.020 A 
ATOM     34  C   UNL     1       5.924  -8.228  -4.223  0.00  0.00    +0.005 A 
ATOM     35 CL   UNL     1       4.655 -11.017  -6.784  0.00  0.00    -0.084 Cl
ENDBRANCH  28  29
ENDBRANCH  27  28
ENDBRANCH  25  27
ENDBRANCH  18  23
TORSDOF 4
