REMARK  Name = ZINC22017508
REMARK  3 active torsions:
REMARK  status: ('A' for Active; 'I' for Inactive)
REMARK    1  A    between atoms: C_4  and  C_10
REMARK    2  A    between atoms: C_6  and  N_7
REMARK    3  A    between atoms: C_18  and  O_22
REMARK                            x       y       z     vdW  Elec       q    Type
REMARK                         _______ _______ _______ _____ _____    ______ ____
ROOT
ATOM      1  C   UNL     1       1.372   3.593  -0.028  0.00  0.00    -0.031 C 
ATOM      2  C   UNL     1       1.415   2.062  -0.000  0.00  0.00    +0.011 C 
ATOM      3  C   UNL     1       2.139   1.558  -1.250  0.00  0.00    +0.005 C 
ATOM      4  C   UNL     1       2.163   0.029  -1.249  0.00  0.00    +0.000 C 
ATOM      5  C   UNL     1       0.727  -0.501  -1.250  0.00  0.00    +0.003 C 
ATOM      6  C   UNL     1       0.002  -0.004   0.002  0.00  0.00    +0.035 C 
ATOM      7  C   UNL     1      -0.019   1.524   0.010  0.00  0.00    +0.066 C 
ATOM      8  C   UNL     1      -0.758   2.038  -1.227  0.00  0.00    +0.016 C 
ATOM      9  C   UNL     1      -0.734   3.568  -1.229  0.00  0.00    -0.079 C 
ATOM     10  N   UNL     1       0.657   4.039  -1.230  0.00  0.00    +0.384 N 
ATOM     11  H   UNL     1       0.654   5.138  -1.269  0.00  0.00    -0.085 HD
ATOM     12  H   UNL     1       1.160   3.642  -2.124  0.00  0.00    -0.085 HD
ENDROOT
BRANCH   1  16
ATOM     13  C   UNL     1       5.361   5.130  -0.089  0.00  0.00    +0.036 A 
ATOM     14  C   UNL     1       4.805   4.710   1.104  0.00  0.00    +0.053 A 
ATOM     15  C   UNL     1       3.511   4.211   1.127  0.00  0.00    +0.181 A 
ATOM     16  C   UNL     1       2.778   4.135  -0.049  0.00  0.00    -0.012 A 
ATOM     17  C   UNL     1       3.341   4.550  -1.240  0.00  0.00    +0.038 A 
ATOM     18  C   UNL     1       4.629   5.053  -1.259  0.00  0.00    +0.127 A 
ATOM     19  O   UNL     1       2.962   3.797   2.299  0.00  0.00    -0.288 OA
BRANCH  18  20
ATOM     20  N   UNL     1       5.227   5.504  -2.536  0.00  0.00    +0.056 N 
ATOM     21  O   UNL     1       6.364   5.941  -2.555  0.00  0.00    -0.126 OA
ATOM     22  O   UNL     1       4.583   5.437  -3.567  0.00  0.00    -0.126 OA
ENDBRANCH  18  20
ENDBRANCH   1  16
BRANCH   7  23
ATOM     23  O   UNL     1      -0.690   1.984   1.185  0.00  0.00    -0.388 OA
ATOM     24  H   UNL     1      -1.736   1.698   1.368  0.00  0.00    +0.210 HD
ENDBRANCH   7  23
TORSDOF 3
