REMARK  Name = ZINC40988485
REMARK  10 active torsions:
REMARK  status: ('A' for Active; 'I' for Inactive)
REMARK    1  A    between atoms: C_1  and  C_2
REMARK    2  A    between atoms: C_2  and  N_3
REMARK    3  A    between atoms: N_3  and  C_4
REMARK    4  A    between atoms: N_3  and  C_6
REMARK    5  A    between atoms: C_4  and  C_5
REMARK    6  A    between atoms: C_6  and  C_8
REMARK    7  A    between atoms: C_6  and  C_29
REMARK    8  A    between atoms: C_8  and  N_9
REMARK    9  A    between atoms: C_10  and  C_12
REMARK   10  A    between atoms: N_15  and  C_17
REMARK                            x       y       z     vdW  Elec       q    Type
REMARK                         _______ _______ _______ _____ _____    ______ ____
ROOT
ATOM      1  N   UNL     1       2.906   1.238   0.736  0.00  0.00    -0.311 N 
ATOM      2  C   UNL     1       3.657   2.356   0.753  0.00  0.00    +0.264 C 
ATOM      3  O   UNL     1       4.446   2.545   1.659  0.00  0.00    -0.268 OA
ATOM      4  H   UNL     1       2.330   1.052  -0.022  0.00  0.00    +0.149 HD
ENDROOT
BRANCH   2   5
ATOM      5  C   UNL     1       3.523   3.353  -0.329  0.00  0.00    +0.150 A 
ATOM      6  C   UNL     1       4.300   4.510  -0.505  0.00  0.00    +0.006 A 
ATOM      7  C   UNL     1       3.821   5.115  -1.620  0.00  0.00    +0.044 A 
ATOM      8  N   UNL     1       2.814   4.355  -2.082  0.00  0.00    -0.263 N 
ATOM      9  N   UNL     1       2.652   3.326  -1.323  0.00  0.00    -0.166 NA
ATOM     10  C   UNL     1       4.367   6.404  -2.177  0.00  0.00    +0.055 C 
ATOM     11  C   UNL     1       5.206   7.083  -1.088  0.00  0.00    +0.006 C 
ATOM     12  C   UNL     1       6.200   6.077  -0.501  0.00  0.00    +0.005 C 
ATOM     13  C   UNL     1       5.441   5.030   0.325  0.00  0.00    +0.039 C 
BRANCH   8  14
ATOM     14  C   UNL     1       2.020   4.650  -3.277  0.00  0.00    +0.130 C 
ATOM     15  C   UNL     1       0.534   4.770  -2.897  0.00  0.00    +0.051 C 
ATOM     16  C   UNL     1      -0.339   4.760  -4.175  0.00  0.00    +0.168 C 
ATOM     17  S   UNL     1       0.678   3.781  -5.353  0.00  0.00    -0.029 S 
ATOM     18  O   UNL     1       0.035   2.538  -5.598  0.00  0.00    -0.174 OA
ATOM     19  O   UNL     1       1.040   4.609  -6.450  0.00  0.00    -0.174 OA
ATOM     20  C   UNL     1       2.165   3.491  -4.304  0.00  0.00    +0.192 C 
ENDBRANCH   8  14
ENDBRANCH   2   5
BRANCH   1  21
ATOM     21  C   UNL     1       2.958   0.302   1.862  0.00  0.00    +0.094 C 
BRANCH  21  22
ATOM     22  C   UNL     1       2.115  -0.933   1.540  0.00  0.00    -0.019 C 
BRANCH  22  23
ATOM     23  C   UNL     1       2.157  -1.888   2.704  0.00  0.00    -0.041 A 
ATOM     24  C   UNL     1       1.120  -1.911   3.617  0.00  0.00    +0.003 A 
ATOM     25  C   UNL     1       1.159  -2.788   4.686  0.00  0.00    +0.000 A 
ATOM     26  C   UNL     1       2.235  -3.642   4.841  0.00  0.00    +0.001 A 
ATOM     27  C   UNL     1       3.272  -3.619   3.929  0.00  0.00    +0.020 A 
ATOM     28  C   UNL     1       3.232  -2.746   2.856  0.00  0.00    +0.043 A 
ATOM     29 CL   UNL     1       4.532  -2.723   1.706  0.00  0.00    -0.083 Cl
ENDBRANCH  22  23
BRANCH  22  30
ATOM     30  N   UNL     1       0.726  -0.526   1.290  0.00  0.00    +0.385 N 
ATOM     31  H   UNL     1       0.681   0.018   0.441  0.00  0.00    -0.081 HD
BRANCH  30  33
ATOM     32  C   UNL     1       0.285  -2.485  -0.111  0.00  0.00    -0.017 C 
ATOM     33  C   UNL     1      -0.117  -1.721   1.151  0.00  0.00    -0.081 C 
ENDBRANCH  30  33
BRANCH  30  34
ATOM     34  C   UNL     1       0.243   0.285   2.416  0.00  0.00    -0.081 C 
ATOM     35  C   UNL     1       0.190   1.756   1.999  0.00  0.00    -0.017 C 
ENDBRANCH  30  34
ENDBRANCH  22  30
ENDBRANCH  21  22
ENDBRANCH   1  21
TORSDOF 8
