REMARK  Name = ZINC52909443
REMARK  14 active torsions:
REMARK  status: ('A' for Active; 'I' for Inactive)
REMARK    1  A    between atoms: C_1  and  C_2
REMARK    2  A    between atoms: C_2  and  C_3
REMARK    3  A    between atoms: C_2  and  C_4
REMARK    4  A    between atoms: C_2  and  O_5
REMARK    5  A    between atoms: O_5  and  C_6
REMARK    6  A    between atoms: N_8  and  C_9
REMARK    7  A    between atoms: N_12  and  C_15
REMARK    8  A    between atoms: C_15  and  C_16
REMARK    9  A    between atoms: N_18  and  C_19
REMARK   10  A    between atoms: N_18  and  C_20
REMARK   11  A    between atoms: C_20  and  C_21
REMARK   12  A    between atoms: C_24  and  N_27
REMARK   13  A    between atoms: N_27  and  C_28
REMARK   14  A    between atoms: N_27  and  C_29
REMARK                            x       y       z     vdW  Elec       q    Type
REMARK                         _______ _______ _______ _____ _____    ______ ____
ROOT
ATOM      1  C   UNL     1       4.035  -0.071  -2.601  0.00  0.00    +0.073 C 
ATOM      2  C   UNL     1       4.080   1.304  -3.272  0.00  0.00    +0.004 C 
ATOM      3  C   UNL     1       5.537   1.695  -3.527  0.00  0.00    -0.076 C 
ATOM      4  N   UNL     1       6.168   0.701  -4.403  0.00  0.00    +0.386 N 
ATOM      5  C   UNL     1       6.193  -0.607  -3.736  0.00  0.00    -0.076 C 
ATOM      6  C   UNL     1       4.761  -1.086  -3.490  0.00  0.00    +0.004 C 
ATOM      7  H   UNL     1       5.643   0.629  -5.262  0.00  0.00    -0.081 HD
ENDROOT
BRANCH   1  10
ATOM      8  C   UNL     1       1.952  -0.085  -1.337  0.00  0.00    +0.401 C 
ATOM      9  O   UNL     1       2.488   0.619  -0.503  0.00  0.00    -0.226 OA
ATOM     10  N   UNL     1       2.641  -0.485  -2.424  0.00  0.00    -0.278 N 
ATOM     11  H   UNL     1       2.213  -1.047  -3.089  0.00  0.00    +0.152 HD
BRANCH   8  12
ATOM     12  O   UNL     1       0.671  -0.465  -1.174  0.00  0.00    -0.445 OA
BRANCH  12  14
ATOM     13  C   UNL     1      -0.019   1.526   0.010  0.00  0.00    +0.055 C 
ATOM     14  C   UNL     1       0.002  -0.004   0.002  0.00  0.00    +0.107 C 
ATOM     15  C   UNL     1       0.742  -0.511   1.242  0.00  0.00    +0.055 C 
ATOM     16  C   UNL     1      -1.433  -0.534   0.013  0.00  0.00    +0.055 C 
ENDBRANCH  12  14
ENDBRANCH   8  12
ENDBRANCH   1  10
BRANCH   4  17
ATOM     17  C   UNL     1       7.543   1.120  -4.707  0.00  0.00    +0.019 C 
BRANCH  17  18
ATOM     18  C   UNL     1       8.150   0.166  -5.703  0.00  0.00    +0.199 C 
ATOM     19  O   UNL     1       7.502  -0.770  -6.119  0.00  0.00    -0.278 OA
ATOM     20  N   UNL     1       9.414   0.355  -6.132  0.00  0.00    -0.302 N 
ATOM     21  C   UNL     1      10.197   1.486  -5.630  0.00  0.00    +0.132 C 
BRANCH  20  22
ATOM     22  C   UNL     1      10.005  -0.573  -7.101  0.00  0.00    +0.142 C 
BRANCH  22  23
ATOM     23  C   UNL     1       9.725  -0.084  -8.499  0.00  0.00    -0.030 A 
ATOM     24  C   UNL     1       8.576  -0.487  -9.153  0.00  0.00    +0.007 A 
ATOM     25  C   UNL     1       8.317  -0.042 -10.435  0.00  0.00    +0.023 A 
ATOM     26  C   UNL     1       9.212   0.813 -11.066  0.00  0.00    +0.029 A 
ATOM     27  C   UNL     1      10.366   1.216 -10.405  0.00  0.00    +0.023 A 
ATOM     28  C   UNL     1      10.616   0.771  -9.122  0.00  0.00    +0.007 A 
BRANCH  26  29
ATOM     29  N   UNL     1       8.953   1.265 -12.361  0.00  0.00    -0.336 N 
ATOM     30  C   UNL     1       7.737   0.839 -13.057  0.00  0.00    +0.129 C 
ATOM     31  C   UNL     1       9.899   2.166 -13.025  0.00  0.00    +0.129 C 
ENDBRANCH  26  29
ENDBRANCH  22  23
ENDBRANCH  20  22
ENDBRANCH  17  18
ENDBRANCH   4  17
TORSDOF 8
