REMARK  Name = ZINC49623818
REMARK  7 active torsions:
REMARK  status: ('A' for Active; 'I' for Inactive)
REMARK    1  A    between atoms: C_4  and  C_18
REMARK    2  A    between atoms: C_6  and  C_7
REMARK    3  A    between atoms: C_7  and  S_8
REMARK    4  A    between atoms: S_8  and  C_9
REMARK    5  A    between atoms: C_15  and  N_17
REMARK    6  A    between atoms: C_19  and  C_20
REMARK    7  A    between atoms: C_20  and  O_21
REMARK                            x       y       z     vdW  Elec       q    Type
REMARK                         _______ _______ _______ _____ _____    ______ ____
ROOT
ATOM      1  C   UNL     1      -1.294  -0.773   0.010  0.00  0.00    +0.112 C 
ENDROOT
BRANCH   1   7
ATOM      2  C   UNL     1      -0.017   1.379   0.010  0.00  0.00    +0.007 A 
ATOM      3  C   UNL     1       1.168   2.094   0.002  0.00  0.00    +0.040 A 
ATOM      4  C   UNL     1       2.379   1.428  -0.013  0.00  0.00    +0.139 A 
ATOM      5  C   UNL     1       2.403   0.030  -0.021  0.00  0.00    +0.060 A 
ATOM      6  C   UNL     1       1.204  -0.682  -0.013  0.00  0.00    +0.024 A 
ATOM      7  C   UNL     1       0.002  -0.004   0.002  0.00  0.00    -0.036 A 
ATOM      8  F   UNL     1       3.535   2.126  -0.021  0.00  0.00    -0.204 F 
BRANCH   5   9
ATOM      9  C   UNL     1       3.654  -0.667  -0.037  0.00  0.00    -0.061 C 
ATOM     10  C   UNL     1       4.679  -1.239  -0.050  0.00  0.00    -0.069 C 
BRANCH  10  11
ATOM     11  C   UNL     1       5.965  -1.955  -0.067  0.00  0.00    +0.244 C 
BRANCH  11  12
ATOM     12  O   UNL     1       5.725  -3.364  -0.072  0.00  0.00    -0.383 OA
ATOM     13  H   UNL     1       6.529  -3.900  -0.083  0.00  0.00    +0.211 HD
ENDBRANCH  11  12
ENDBRANCH  10  11
ENDBRANCH   5   9
ENDBRANCH   1   7
BRANCH   1  14
ATOM     14  S   UNL     1      -1.830  -1.072  -1.696  0.00  0.00    -0.083 S 
BRANCH  14  15
ATOM     15  C   UNL     1      -3.337  -1.968  -1.519  0.00  0.00    +0.171 A 
ATOM     16  N   UNL     1      -4.014  -2.364  -2.633  0.00  0.00    -0.302 N 
ATOM     17  H   UNL     1      -3.664  -2.151  -3.513  0.00  0.00    +0.171 HD
ATOM     18  C   UNL     1      -5.169  -3.051  -2.516  0.00  0.00    +0.254 A 
ATOM     19  O   UNL     1      -5.782  -3.409  -3.509  0.00  0.00    -0.268 OA
ATOM     20  C   UNL     1      -5.653  -3.345  -1.238  0.00  0.00    +0.113 A 
ATOM     21  C   UNL     1      -4.926  -2.920  -0.134  0.00  0.00    +0.124 A 
ATOM     22  N   UNL     1      -3.784  -2.247  -0.311  0.00  0.00    -0.209 NA
BRANCH  21  23
ATOM     23  N   UNL     1      -5.378  -3.195   1.141  0.00  0.00    -0.343 N 
ATOM     24  H   UNL     1      -6.204  -3.687   1.267  0.00  0.00    +0.144 HD
ATOM     25  H   UNL     1      -4.868  -2.897   1.911  0.00  0.00    +0.144 HD
ENDBRANCH  21  23
ENDBRANCH  14  15
ENDBRANCH   1  14
TORSDOF 7
