REMARK  Name = ZINC50368283
REMARK  6 active torsions:
REMARK  status: ('A' for Active; 'I' for Inactive)
REMARK    1  A    between atoms: C_1  and  O_2
REMARK    2  A    between atoms: O_2  and  C_3
REMARK    3  A    between atoms: C_8  and  N_10
REMARK    4  A    between atoms: N_10  and  S_11
REMARK    5  A    between atoms: S_11  and  C_14
REMARK    6  A    between atoms: C_17  and  N_21
REMARK                            x       y       z     vdW  Elec       q    Type
REMARK                         _______ _______ _______ _____ _____    ______ ____
ROOT
ATOM      1  S   UNL     1       0.336  -3.051  -2.605  0.00  0.00    +0.061 S 
ATOM      2  O   UNL     1       1.740  -3.135  -2.803  0.00  0.00    -0.153 OA
ATOM      3  O   UNL     1      -0.497  -4.201  -2.556  0.00  0.00    -0.153 OA
ENDROOT
BRANCH   1   4
ATOM      4  C   UNL     1      -0.294  -2.028  -3.895  0.00  0.00    +0.133 A 
ATOM      5  C   UNL     1      -1.619  -2.136  -4.278  0.00  0.00    +0.047 A 
ATOM      6  C   UNL     1      -2.115  -1.336  -5.289  0.00  0.00    +0.040 A 
ATOM      7  C   UNL     1      -1.282  -0.421  -5.921  0.00  0.00    +0.027 A 
ATOM      8  C   UNL     1       0.048  -0.315  -5.534  0.00  0.00    +0.040 A 
ATOM      9  C   UNL     1       0.537  -1.114  -4.519  0.00  0.00    +0.047 A 
ATOM     10 BR   UNL     1       2.345  -0.964  -3.987  0.00  0.00    -0.048 Br
ATOM     11 BR   UNL     1      -2.752  -3.381  -3.417  0.00  0.00    -0.048 Br
BRANCH   7  12
ATOM     12  N   UNL     1      -1.781   0.389  -6.944  0.00  0.00    -0.358 N 
ATOM     13  H   UNL     1      -2.709   0.313  -7.214  0.00  0.00    +0.142 HD
ATOM     14  H   UNL     1      -1.198   1.027  -7.385  0.00  0.00    +0.142 HD
ENDBRANCH   7  12
ENDBRANCH   1   4
BRANCH   1  15
ATOM     15  N   UNL     1       0.106  -2.239  -1.180  0.00  0.00    -0.184 NA
ATOM     16  H   UNL     1       0.870  -1.945  -0.661  0.00  0.00    +0.148 HD
BRANCH  15  21
ATOM     17  C   UNL     1      -1.295  -0.603   0.011  0.00  0.00    +0.136 C 
ATOM     18  C   UNL     1      -1.739  -0.880   1.462  0.00  0.00    +0.033 C 
ATOM     19  C   UNL     1      -2.501  -2.226   1.376  0.00  0.00    +0.004 C 
ATOM     20  C   UNL     1      -1.671  -3.023   0.339  0.00  0.00    +0.023 C 
ATOM     21  C   UNL     1      -1.252  -1.965  -0.704  0.00  0.00    +0.105 C 
BRANCH  17  23
ATOM     22  C   UNL     1      -0.017   1.425   0.010  0.00  0.00    +0.194 C 
ATOM     23  O   UNL     1       0.002  -0.004   0.002  0.00  0.00    -0.378 OA
ENDBRANCH  17  23
ENDBRANCH  15  21
ENDBRANCH   1  15
TORSDOF 5
