REMARK  Name = ZINC44918200
REMARK  6 active torsions:
REMARK  status: ('A' for Active; 'I' for Inactive)
REMARK    1  A    between atoms: C_1  and  C_2
REMARK    2  A    between atoms: C_2  and  C_32
REMARK    3  A    between atoms: C_4  and  N_13
REMARK    4  A    between atoms: C_14  and  C_16
REMARK    5  A    between atoms: N_21  and  C_23
REMARK    6  A    between atoms: C_23  and  C_24
REMARK                            x       y       z     vdW  Elec       q    Type
REMARK                         _______ _______ _______ _____ _____    ______ ____
ROOT
ATOM      1  N   UNL     1       1.573  -2.553  -2.290  0.00  0.00    -0.308 N 
ATOM      2  C   UNL     1       1.338  -3.750  -2.863  0.00  0.00    +0.215 C 
ATOM      3  O   UNL     1       0.362  -4.395  -2.543  0.00  0.00    -0.276 OA
ATOM      4  H   UNL     1       2.353  -2.038  -2.547  0.00  0.00    +0.149 HD
ENDROOT
BRANCH   1   8
ATOM      5  C   UNL     1      -0.019   1.526   0.010  0.00  0.00    +0.055 C 
ATOM      6  C   UNL     1       0.002  -0.004   0.002  0.00  0.00    +0.107 C 
ATOM      7  C   UNL     1       0.743  -0.504  -1.245  0.00  0.00    +0.074 C 
ATOM      8  C   UNL     1       0.649  -2.031  -1.280  0.00  0.00    +0.110 C 
ATOM      9  C   UNL     1       1.014  -2.593   0.071  0.00  0.00    +0.015 A 
ATOM     10  C   UNL     1       1.359  -3.931   0.165  0.00  0.00    +0.009 A 
ATOM     11  C   UNL     1       1.695  -4.480   1.387  0.00  0.00    +0.001 A 
ATOM     12  C   UNL     1       1.689  -3.693   2.523  0.00  0.00    +0.004 A 
ATOM     13  C   UNL     1       1.349  -2.359   2.435  0.00  0.00    +0.046 A 
ATOM     14  C   UNL     1       1.011  -1.802   1.206  0.00  0.00    +0.126 A 
ATOM     15  O   UNL     1       0.692  -0.482   1.158  0.00  0.00    -0.486 OA
ATOM     16  C   UNL     1      -1.431  -0.539  -0.000  0.00  0.00    +0.055 C 
ENDBRANCH   1   8
BRANCH   2  17
ATOM     17  C   UNL     1       2.288  -4.287  -3.903  0.00  0.00    +0.058 C 
ATOM     18  C   UNL     1       3.683  -4.441  -3.290  0.00  0.00    +0.009 C 
ATOM     19  C   UNL     1       4.621  -5.060  -4.330  0.00  0.00    -0.018 C 
ATOM     20  C   UNL     1       4.043  -6.397  -4.798  0.00  0.00    -0.078 C 
ATOM     21  N   UNL     1       2.721  -6.180  -5.397  0.00  0.00    +0.383 N 
ATOM     22  C   UNL     1       1.796  -5.653  -4.387  0.00  0.00    -0.066 C 
ATOM     23  H   UNL     1       2.801  -5.519  -6.156  0.00  0.00    -0.081 HD
BRANCH  21  24
ATOM     24  C   UNL     1       2.205  -7.454  -5.915  0.00  0.00    -0.043 C 
BRANCH  24  25
ATOM     25  C   UNL     1       3.082  -7.930  -7.044  0.00  0.00    -0.062 A 
ATOM     26  C   UNL     1       2.803  -7.549  -8.344  0.00  0.00    +0.003 A 
ATOM     27  C   UNL     1       3.607  -7.985  -9.380  0.00  0.00    +0.021 A 
ATOM     28  C   UNL     1       4.691  -8.803  -9.118  0.00  0.00    +0.059 A 
ATOM     29  C   UNL     1       4.970  -9.185  -7.816  0.00  0.00    +0.059 A 
ATOM     30  C   UNL     1       4.168  -8.743  -6.780  0.00  0.00    +0.023 A 
ATOM     31 CL   UNL     1       6.330 -10.213  -7.486  0.00  0.00    -0.082 Cl
ATOM     32 CL   UNL     1       5.700  -9.352 -10.419  0.00  0.00    -0.082 Cl
ENDBRANCH  24  25
ENDBRANCH  21  24
ENDBRANCH   2  17
TORSDOF 4
