REMARK  Name = ZINC09415985
REMARK  12 active torsions:
REMARK  status: ('A' for Active; 'I' for Inactive)
REMARK    1  A    between atoms: C_1  and  C_2
REMARK    2  A    between atoms: C_2  and  N_3
REMARK    3  A    between atoms: N_3  and  C_4
REMARK    4  A    between atoms: C_4  and  C_5
REMARK    5  A    between atoms: C_6  and  C_8
REMARK    6  A    between atoms: C_8  and  C_10
REMARK    7  A    between atoms: C_8  and  S_16
REMARK    8  A    between atoms: S_16  and  C_17
REMARK    9  A    between atoms: C_20  and  C_29
REMARK   10  A    between atoms: N_21  and  C_22
REMARK   11  A    between atoms: C_29  and  C_31
REMARK   12  A    between atoms: C_29  and  N_69
REMARK                            x       y       z     vdW  Elec       q    Type
REMARK                         _______ _______ _______ _____ _____    ______ ____
ROOT
ATOM      1  C   UNL     1       4.020   5.548  -2.458  0.00  0.00    +0.197 A 
ATOM      2  N   UNL     1       5.098   5.014  -1.933  0.00  0.00    -0.122 NA
ATOM      3  N   UNL     1       6.096   5.811  -2.077  0.00  0.00    -0.135 NA
ATOM      4  C   UNL     1       5.718   6.897  -2.690  0.00  0.00    +0.125 A 
ATOM      5  N   UNL     1       4.380   6.770  -2.956  0.00  0.00    -0.275 N 
ENDROOT
BRANCH   5   6
ATOM      6  C   UNL     1       3.552   7.699  -3.603  0.00  0.00    +0.050 A 
ATOM      7  C   UNL     1       3.775   8.019  -4.936  0.00  0.00    +0.029 A 
ATOM      8  C   UNL     1       2.955   8.930  -5.573  0.00  0.00    +0.040 A 
ATOM      9  C   UNL     1       1.919   9.533  -4.880  0.00  0.00    +0.124 A 
ATOM     10  C   UNL     1       1.698   9.219  -3.550  0.00  0.00    +0.040 A 
ATOM     11  C   UNL     1       2.512   8.304  -2.911  0.00  0.00    +0.029 A 
ATOM     12  F   UNL     1       1.121  10.427  -5.504  0.00  0.00    -0.205 F 
ENDBRANCH   5   6
BRANCH   4  13
ATOM     13  C   UNL     1       6.590   8.075  -3.041  0.00  0.00    -0.002 C 
ATOM     14  C   UNL     1       6.819   8.930  -1.793  0.00  0.00    -0.005 C 
BRANCH  13  20
ATOM     15  C   UNL     1       8.736   8.715  -3.959  0.00  0.00    -0.078 C 
ATOM     16  C   UNL     1      10.121   8.188  -4.344  0.00  0.00    -0.019 C 
ATOM     17  C   UNL     1       9.978   7.184  -5.492  0.00  0.00    -0.004 C 
ATOM     18  C   UNL     1       9.044   6.052  -5.057  0.00  0.00    -0.019 C 
ATOM     19  C   UNL     1       7.691   6.641  -4.651  0.00  0.00    -0.078 C 
ATOM     20  N   UNL     1       7.894   7.579  -3.526  0.00  0.00    +0.386 N 
ATOM     21  H   UNL     1       8.369   7.085  -2.762  0.00  0.00    -0.081 HD
ENDBRANCH  13  20
ENDBRANCH   4  13
BRANCH   1  22
ATOM     22  S   UNL     1       2.412   4.829  -2.506  0.00  0.00    -0.068 S 
BRANCH  22  23
ATOM     23  C   UNL     1       2.743   3.262  -1.663  0.00  0.00    +0.170 C 
BRANCH  23  24
ATOM     24  C   UNL     1       1.507   2.400  -1.703  0.00  0.00    -0.025 A 
ATOM     25  C   UNL     1       0.334   2.846  -1.125  0.00  0.00    +0.005 A 
ATOM     26  C   UNL     1      -0.800   2.056  -1.162  0.00  0.00    +0.000 A 
ATOM     27  C   UNL     1      -0.759   0.818  -1.775  0.00  0.00    +0.000 A 
ATOM     28  C   UNL     1       0.415   0.370  -2.351  0.00  0.00    +0.000 A 
ATOM     29  C   UNL     1       1.548   1.161  -2.315  0.00  0.00    +0.005 A 
ENDBRANCH  23  24
BRANCH  23  31
ATOM     30  N   UNL     1       4.029   2.750   0.387  0.00  0.00    -0.301 N 
ATOM     31  C   UNL     1       3.121   3.532  -0.230  0.00  0.00    +0.233 C 
ATOM     32  O   UNL     1       2.608   4.454   0.369  0.00  0.00    -0.274 OA
BRANCH  30  34
ATOM     33  C   UNL     1       3.378   2.073   2.645  0.00  0.00    +0.024 C 
ATOM     34  C   UNL     1       4.318   2.945   1.810  0.00  0.00    +0.104 C 
ENDBRANCH  30  34
BRANCH  30  35
ATOM     35  C   UNL     1       4.727   1.705  -0.366  0.00  0.00    +0.104 C 
ATOM     36  C   UNL     1       5.971   2.300  -1.031  0.00  0.00    +0.024 C 
ENDBRANCH  30  35
ENDBRANCH  23  31
ENDBRANCH  22  23
ENDBRANCH   1  22
TORSDOF 9
