REMARK  Name = ZINC40323033
REMARK  7 active torsions:
REMARK  status: ('A' for Active; 'I' for Inactive)
REMARK    1  A    between atoms: C_4  and  C_7
REMARK    2  A    between atoms: C_7  and  C_9
REMARK    3  A    between atoms: C_7  and  N_28
REMARK    4  A    between atoms: C_9  and  N_10
REMARK    5  A    between atoms: C_11  and  C_13
REMARK    6  A    between atoms: C_16  and  S_18
REMARK    7  A    between atoms: S_18  and  C_21
REMARK                            x       y       z     vdW  Elec       q    Type
REMARK                         _______ _______ _______ _____ _____    ______ ____
ROOT
ATOM      1  N   UNL     1       5.320  -1.941   1.316  0.00  0.00    -0.310 N 
ATOM      2  C   UNL     1       5.837  -2.443   2.455  0.00  0.00    +0.279 C 
ATOM      3  O   UNL     1       5.352  -2.139   3.529  0.00  0.00    -0.267 OA
ATOM      4  H   UNL     1       5.707  -2.183   0.460  0.00  0.00    +0.149 HD
ENDROOT
BRANCH   2   5
ATOM      5  C   UNL     1       6.984  -3.355   2.400  0.00  0.00    +0.192 A 
ATOM      6  C   UNL     1       7.598  -3.937   3.472  0.00  0.00    +0.056 A 
ATOM      7  C   UNL     1       8.640  -4.727   2.960  0.00  0.00    +0.070 A 
ATOM      8  C   UNL     1       8.616  -4.594   1.615  0.00  0.00    +0.246 A 
ATOM      9  O   UNL     1       7.613  -3.771   1.282  0.00  0.00    -0.433 OA
BRANCH   8  10
ATOM     10  S   UNL     1       9.718  -5.380   0.487  0.00  0.00    +0.058 S 
ATOM     11  O   UNL     1       9.729  -4.583  -0.690  0.00  0.00    -0.161 OA
ATOM     12  O   UNL     1      10.900  -5.679   1.216  0.00  0.00    -0.161 OA
BRANCH  10  13
ATOM     13  C   UNL     1       8.995  -6.924   0.043  0.00  0.00    +0.097 A 
ATOM     14  C   UNL     1       9.270  -8.055   0.789  0.00  0.00    +0.028 A 
ATOM     15  C   UNL     1       8.703  -9.267   0.441  0.00  0.00    +0.017 A 
ATOM     16  C   UNL     1       7.861  -9.348  -0.653  0.00  0.00    +0.018 A 
ATOM     17  C   UNL     1       7.586  -8.216  -1.399  0.00  0.00    +0.017 A 
ATOM     18  C   UNL     1       8.149  -7.003  -1.047  0.00  0.00    +0.028 A 
ATOM     19 BR   UNL     1       7.085 -11.005  -1.130  0.00  0.00    -0.050 Br
ENDBRANCH  10  13
ENDBRANCH   8  10
ENDBRANCH   2   5
BRANCH   1  20
ATOM     20  C   UNL     1       4.174  -1.030   1.370  0.00  0.00    +0.094 C 
BRANCH  20  21
ATOM     21  C   UNL     1       3.870  -0.508  -0.035  0.00  0.00    -0.020 C 
BRANCH  21  25
ATOM     22  C   UNL     1       7.127   1.896  -1.399  0.00  0.00    +0.000 A 
ATOM     23  C   UNL     1       7.011   0.585  -1.822  0.00  0.00    +0.000 A 
ATOM     24  C   UNL     1       5.957  -0.193  -1.381  0.00  0.00    +0.002 A 
ATOM     25  C   UNL     1       5.019   0.340  -0.516  0.00  0.00    -0.059 A 
ATOM     26  C   UNL     1       5.136   1.651  -0.092  0.00  0.00    +0.002 A 
ATOM     27  C   UNL     1       6.189   2.429  -0.535  0.00  0.00    +0.000 A 
ENDBRANCH  21  25
BRANCH  21  28
ATOM     28  N   UNL     1       2.645   0.302  -0.003  0.00  0.00    +0.385 N 
ATOM     29  C   UNL     1       2.327   0.805  -1.363  0.00  0.00    -0.078 C 
ATOM     30  C   UNL     1       0.811   1.116  -1.282  0.00  0.00    -0.020 C 
ATOM     31  C   UNL     1       0.271  -0.028  -0.394  0.00  0.00    -0.020 C 
ATOM     32  C   UNL     1       1.492  -0.534   0.397  0.00  0.00    -0.078 C 
ATOM     33  H   UNL     1       2.754   1.073   0.638  0.00  0.00    -0.081 HD
ENDBRANCH  21  28
ENDBRANCH  20  21
ENDBRANCH   1  20
TORSDOF 7
