REMARK  Name = ZINC12757155
REMARK  6 active torsions:
REMARK  status: ('A' for Active; 'I' for Inactive)
REMARK    1  A    between atoms: C_1  and  N_2
REMARK    2  A    between atoms: N_2  and  C_3
REMARK    3  A    between atoms: C_3  and  C_4
REMARK    4  A    between atoms: C_16  and  C_18
REMARK    5  A    between atoms: C_24  and  C_26
REMARK    6  A    between atoms: C_27  and  C_28
REMARK                            x       y       z     vdW  Elec       q    Type
REMARK                         _______ _______ _______ _____ _____    ______ ____
ROOT
ATOM      1  C   UNL     1       2.238  -1.899  -3.211  0.00  0.00    +0.132 C 
ATOM      2  N   UNL     1       1.508  -2.653  -2.190  0.00  0.00    -0.297 N 
ATOM      3  C   UNL     1       0.837  -2.000  -1.220  0.00  0.00    +0.219 C 
ATOM      4  O   UNL     1       0.233  -2.624  -0.374  0.00  0.00    -0.275 OA
ENDROOT
BRANCH   3   5
ATOM      5  C   UNL     1       0.838  -0.493  -1.187  0.00  0.00    +0.078 C 
ATOM      6  C   UNL     1       0.009  -0.009   0.004  0.00  0.00    +0.032 C 
ATOM      7  C   UNL     1      -0.017   1.523   0.014  0.00  0.00    +0.109 C 
ATOM      8  N   UNL     1       1.366   2.019   0.000  0.00  0.00    -0.298 N 
ATOM      9  C   UNL     1       2.276   1.545  -1.051  0.00  0.00    +0.109 C 
ATOM     10  C   UNL     1       2.276   0.013  -1.050  0.00  0.00    +0.032 C 
ATOM     11  C   UNL     1       1.792   2.892   0.934  0.00  0.00    +0.239 C 
ATOM     12  O   UNL     1       2.962   3.223   0.970  0.00  0.00    -0.271 OA
BRANCH  11  13
ATOM     13  C   UNL     1       0.846   3.444   1.906  0.00  0.00    +0.068 C 
ATOM     14  C   UNL     1       1.248   4.392   2.776  0.00  0.00    +0.013 C 
BRANCH  14  15
ATOM     15  C   UNL     1       0.297   4.946   3.753  0.00  0.00    -0.025 A 
ATOM     16  C   UNL     1      -1.027   4.496   3.779  0.00  0.00    +0.008 A 
ATOM     17  C   UNL     1      -1.910   5.016   4.701  0.00  0.00    +0.001 A 
ATOM     18  C   UNL     1      -1.493   5.990   5.592  0.00  0.00    +0.000 A 
ATOM     19  C   UNL     1      -0.186   6.444   5.569  0.00  0.00    +0.001 A 
ATOM     20  C   UNL     1       0.711   5.929   4.657  0.00  0.00    +0.008 A 
ENDBRANCH  14  15
ENDBRANCH  11  13
ENDBRANCH   3   5
BRANCH   2  21
ATOM     21  C   UNL     1       1.507  -4.118  -2.221  0.00  0.00    +0.181 C 
BRANCH  21  22
ATOM     22  C   UNL     1       0.345  -4.601  -3.049  0.00  0.00    +0.128 A 
ATOM     23  N   UNL     1       0.176  -5.941  -3.203  0.00  0.00    -0.309 N 
ATOM     24  H   UNL     1       0.799  -6.555  -2.783  0.00  0.00    +0.170 HD
ATOM     25  C   UNL     1      -0.855  -6.426  -3.933  0.00  0.00    +0.259 A 
ATOM     26  O   UNL     1      -1.020  -7.624  -4.076  0.00  0.00    -0.267 OA
ATOM     27  C   UNL     1      -1.765  -5.450  -4.552  0.00  0.00    +0.065 A 
ATOM     28  C   UNL     1      -2.853  -5.846  -5.326  0.00  0.00    +0.015 A 
ATOM     29  C   UNL     1      -3.673  -4.889  -5.883  0.00  0.00    +0.001 A 
ATOM     30  C   UNL     1      -3.423  -3.538  -5.678  0.00  0.00    +0.002 A 
ATOM     31  C   UNL     1      -2.353  -3.127  -4.916  0.00  0.00    +0.028 A 
ATOM     32  C   UNL     1      -1.507  -4.078  -4.341  0.00  0.00    +0.078 A 
ATOM     33  N   UNL     1      -0.442  -3.717  -3.583  0.00  0.00    -0.232 NA
ENDBRANCH  21  22
ENDBRANCH   2  21
TORSDOF 5
