REMARK  Name = ZINC36039387
REMARK  11 active torsions:
REMARK  status: ('A' for Active; 'I' for Inactive)
REMARK    1  A    between atoms: C_1  and  C_2
REMARK    2  A    between atoms: C_2  and  C_3
REMARK    3  A    between atoms: C_2  and  C_4
REMARK    4  A    between atoms: C_4  and  N_5
REMARK    5  A    between atoms: N_5  and  C_6
REMARK    6  A    between atoms: C_6  and  C_7
REMARK    7  A    between atoms: C_7  and  N_9
REMARK    8  A    between atoms: C_12  and  C_23
REMARK    9  A    between atoms: N_14  and  C_15
REMARK   10  A    between atoms: C_18  and  O_21
REMARK   11  A    between atoms: O_21  and  C_22
REMARK                            x       y       z     vdW  Elec       q    Type
REMARK                         _______ _______ _______ _____ _____    ______ ____
ROOT
ATOM      1  N   UNL     1      -3.918  -4.685  -0.251  0.00  0.00    -0.148 NA
ATOM      2  C   UNL     1      -3.903  -6.013  -0.368  0.00  0.00    +0.205 A 
ATOM      3  N   UNL     1      -2.795  -6.792  -0.475  0.00  0.00    -0.326 N 
ATOM      4  C   UNL     1      -3.212  -8.114  -0.575  0.00  0.00    +0.066 A 
ATOM      5  C   UNL     1      -4.556  -8.127  -0.530  0.00  0.00    +0.120 A 
ATOM      6  N   UNL     1      -4.993  -6.825  -0.396  0.00  0.00    -0.287 N 
ATOM      7  H   UNL     1      -1.877  -6.481  -0.480  0.00  0.00    +0.169 HD
ENDROOT
BRANCH   4   8
ATOM      8  C   UNL     1      -2.333  -9.296  -0.709  0.00  0.00    -0.000 A 
ATOM      9  C   UNL     1      -2.887 -10.573  -0.807  0.00  0.00    +0.011 A 
ATOM     10  C   UNL     1      -2.063 -11.672  -0.932  0.00  0.00    +0.020 A 
ATOM     11  C   UNL     1      -0.688 -11.510  -0.959  0.00  0.00    +0.041 A 
ATOM     12  C   UNL     1      -0.133 -10.245  -0.862  0.00  0.00    +0.020 A 
ATOM     13  C   UNL     1      -0.947  -9.138  -0.743  0.00  0.00    +0.011 A 
ATOM     14 CL   UNL     1       0.343 -12.898  -1.115  0.00  0.00    -0.084 Cl
ENDBRANCH   4   8
BRANCH   6  15
ATOM     15  C   UNL     1      -6.330  -6.411  -0.307  0.00  0.00    +0.049 A 
ATOM     16  C   UNL     1      -6.632  -5.061  -0.184  0.00  0.00    +0.030 A 
ATOM     17  C   UNL     1      -7.948  -4.654  -0.097  0.00  0.00    +0.047 A 
ATOM     18  C   UNL     1      -8.969  -5.593  -0.132  0.00  0.00    +0.120 A 
ATOM     19  C   UNL     1      -8.668  -6.942  -0.255  0.00  0.00    +0.047 A 
ATOM     20  C   UNL     1      -7.352  -7.350  -0.348  0.00  0.00    +0.030 A 
BRANCH  18  21
ATOM     21  O   UNL     1     -10.265  -5.192  -0.046  0.00  0.00    -0.495 OA
ATOM     22  C   UNL     1     -11.265  -6.212  -0.089  0.00  0.00    +0.277 C 
ENDBRANCH  18  21
ENDBRANCH   6  15
BRANCH   1  23
ATOM     23  C   UNL     1      -2.777  -4.006  -0.237  0.00  0.00    +0.222 C 
ATOM     24  O   UNL     1      -1.718  -4.596  -0.331  0.00  0.00    -0.276 OA
BRANCH  23  25
ATOM     25  C   UNL     1      -2.795  -2.505  -0.105  0.00  0.00    +0.017 C 
BRANCH  25  26
ATOM     26  N   UNL     1      -1.416  -1.997  -0.116  0.00  0.00    +0.385 N 
ATOM     27  H   UNL     1      -0.970  -2.253  -0.984  0.00  0.00    -0.085 HD
ATOM     28  H   UNL     1      -0.905  -2.397   0.656  0.00  0.00    -0.085 HD
BRANCH  26  29
ATOM     29  C   UNL     1      -1.433  -0.534   0.013  0.00  0.00    -0.079 C 
BRANCH  29  31
ATOM     30  C   UNL     1      -0.019   1.526   0.010  0.00  0.00    +0.005 C 
ATOM     31  C   UNL     1       0.002  -0.004   0.002  0.00  0.00    -0.034 C 
ATOM     32  C   UNL     1       0.742  -0.511   1.242  0.00  0.00    +0.005 C 
ENDBRANCH  29  31
ENDBRANCH  26  29
ENDBRANCH  25  26
ENDBRANCH  23  25
ENDBRANCH   1  23
TORSDOF 8
