REMARK  Name = ZINC20586378
REMARK  11 active torsions:
REMARK  status: ('A' for Active; 'I' for Inactive)
REMARK    1  A    between atoms: C_1  and  C_2
REMARK    2  A    between atoms: C_2  and  C_3
REMARK    3  A    between atoms: C_3  and  C_4
REMARK    4  A    between atoms: C_11  and  N_34
REMARK    5  A    between atoms: C_12  and  C_32
REMARK    6  A    between atoms: C_13  and  C_15
REMARK    7  A    between atoms: C_17  and  O_30
REMARK    8  A    between atoms: C_18  and  O_22
REMARK    9  A    between atoms: O_22  and  C_23
REMARK   10  A    between atoms: C_23  and  C_24
REMARK   11  A    between atoms: O_30  and  C_31
REMARK                            x       y       z     vdW  Elec       q    Type
REMARK                         _______ _______ _______ _____ _____    ______ ____
ROOT
ATOM      1  C   UNL     1       0.000   1.080   2.488  0.00  0.00    +0.071 A 
ATOM      2  C   UNL     1      -0.246  -0.114   3.152  0.00  0.00    +0.049 A 
ATOM      3  C   UNL     1       0.624  -0.200   4.204  0.00  0.00    +0.222 A 
ATOM      4  N   UNL     1       1.381   0.909   4.196  0.00  0.00    -0.246 N 
ATOM      5  H   UNL     1       2.155   1.052   4.965  0.00  0.00    +0.192 HD
ATOM      6  N   UNL     1       0.974   1.700   3.111  0.00  0.00    -0.176 NA
ATOM      7  O   UNL     1       0.641  -1.255   5.055  0.00  0.00    -0.423 OA
ATOM      8  C   UNL     1      -0.401  -2.111   5.011  0.00  0.00    +0.200 C 
ATOM      9  C   UNL     1      -1.314  -2.133   4.015  0.00  0.00    +0.098 C 
ATOM     10  C   UNL     1      -1.251  -1.191   2.838  0.00  0.00    +0.101 C 
ENDROOT
BRANCH  10  11
ATOM     11  C   UNL     1      -0.827  -1.946   1.605  0.00  0.00    -0.030 A 
ATOM     12  C   UNL     1      -1.661  -1.992   0.503  0.00  0.00    +0.054 A 
ATOM     13  C   UNL     1      -1.272  -2.685  -0.632  0.00  0.00    +0.163 A 
ATOM     14  C   UNL     1      -0.042  -3.335  -0.660  0.00  0.00    +0.176 A 
ATOM     15  C   UNL     1       0.789  -3.286   0.448  0.00  0.00    +0.063 A 
ATOM     16  C   UNL     1       0.397  -2.587   1.576  0.00  0.00    +0.023 A 
ATOM     17 BR   UNL     1       2.461  -4.168   0.415  0.00  0.00    -0.046 Br
BRANCH  13  18
ATOM     18  O   UNL     1      -2.092  -2.730  -1.717  0.00  0.00    -0.491 OA
ATOM     19  C   UNL     1      -3.339  -2.040  -1.617  0.00  0.00    +0.277 C 
ENDBRANCH  13  18
BRANCH  14  20
ATOM     20  O   UNL     1       0.344  -4.016  -1.772  0.00  0.00    -0.483 OA
BRANCH  20  21
ATOM     21  C   UNL     1       1.075  -3.286  -2.759  0.00  0.00    +0.264 C 
BRANCH  21  22
ATOM     22  C   UNL     1       1.414  -4.197  -3.910  0.00  0.00    -0.010 A 
ATOM     23  C   UNL     1       2.598  -4.910  -3.901  0.00  0.00    +0.007 A 
ATOM     24  C   UNL     1       2.907  -5.751  -4.955  0.00  0.00    +0.000 A 
ATOM     25  C   UNL     1       2.036  -5.870  -6.022  0.00  0.00    +0.000 A 
ATOM     26  C   UNL     1       0.855  -5.153  -6.033  0.00  0.00    +0.000 A 
ATOM     27  C   UNL     1       0.543  -4.316  -4.977  0.00  0.00    +0.007 A 
ENDBRANCH  21  22
ENDBRANCH  20  21
ENDBRANCH  14  20
ENDBRANCH  10  11
BRANCH   8  28
ATOM     28  N   UNL     1      -0.542  -3.011   6.037  0.00  0.00    -0.328 N 
ATOM     29  H   UNL     1      -1.380  -3.723   6.033  0.00  0.00    +0.145 HD
ATOM     30  H   UNL     1       0.183  -3.020   6.864  0.00  0.00    +0.145 HD
ENDBRANCH   8  28
BRANCH   9  31
ATOM     31  C   UNL     1      -2.382  -3.085   4.080  0.00  0.00    +0.101 C 
ATOM     32  N   UNL     1      -3.228  -3.841   4.131  0.00  0.00    -0.191 NA
ENDBRANCH   9  31
BRANCH   1  33
ATOM     33  C   UNL     1      -0.729   1.579   1.267  0.00  0.00    +0.057 C 
BRANCH  33  35
ATOM     34  C   UNL     1      -0.753   1.593  -1.232  0.00  0.00    +0.004 C 
ATOM     35  C   UNL     1      -0.013   1.086   0.008  0.00  0.00    +0.003 C 
ENDBRANCH  33  35
ENDBRANCH   1  33
TORSDOF 9
