REMARK  Name = ZINC09197955
REMARK  5 active torsions:
REMARK  status: ('A' for Active; 'I' for Inactive)
REMARK    1  A    between atoms: C_5  and  C_7
REMARK    2  A    between atoms: C_9  and  S_13
REMARK    3  A    between atoms: S_13  and  C_14
REMARK    4  A    between atoms: C_14  and  C_15
REMARK    5  A    between atoms: C_18  and  C_20
REMARK                            x       y       z     vdW  Elec       q    Type
REMARK                         _______ _______ _______ _____ _____    ______ ____
ROOT
ATOM      1  S   UNL     1      -6.395   1.633   0.041  0.00  0.00    -0.077 S 
ENDROOT
BRANCH   1   4
ATOM      2  C   UNL     1      -2.517   1.814   0.024  0.00  0.00    +0.183 A 
ATOM      3  N   UNL     1      -3.743   2.356   0.033  0.00  0.00    -0.201 NA
ATOM      4  C   UNL     1      -4.648   1.403   0.032  0.00  0.00    +0.185 A 
ATOM      5  N   UNL     1      -4.004   0.214   0.022  0.00  0.00    -0.253 N 
ATOM      6  H   UNL     1      -4.411  -0.666   0.019  0.00  0.00    +0.191 HD
ATOM      7  N   UNL     1      -2.631   0.505   0.013  0.00  0.00    -0.152 NA
BRANCH   2  12
ATOM      8  C   UNL     1      -0.059   4.659   0.026  0.00  0.00    +0.001 A 
ATOM      9  C   UNL     1       1.145   3.978   0.012  0.00  0.00    +0.001 A 
ATOM     10  C   UNL     1       1.162   2.595   0.005  0.00  0.00    +0.016 A 
ATOM     11  C   UNL     1      -0.024   1.887   0.012  0.00  0.00    +0.029 A 
ATOM     12  C   UNL     1      -1.239   2.569   0.022  0.00  0.00    +0.035 A 
ATOM     13  C   UNL     1      -1.250   3.962   0.034  0.00  0.00    +0.013 A 
ATOM     14 BR   UNL     1       0.002  -0.004   0.002  0.00  0.00    -0.050 Br
ENDBRANCH   2  12
ENDBRANCH   1   4
BRANCH   1  15
ATOM     15  C   UNL     1      -6.473   3.442   0.052  0.00  0.00    +0.175 C 
BRANCH  15  16
ATOM     16  C   UNL     1      -7.914   3.882   0.061  0.00  0.00    +0.228 A 
ATOM     17  N   UNL     1      -8.646   4.101   1.117  0.00  0.00    -0.111 NA
ATOM     18  N   UNL     1      -9.826   4.465   0.756  0.00  0.00    -0.107 NA
ATOM     19  C   UNL     1      -9.889   4.489  -0.555  0.00  0.00    +0.248 A 
ATOM     20  O   UNL     1      -8.677   4.126  -1.020  0.00  0.00    -0.419 OA
BRANCH  19  21
ATOM     21  C   UNL     1     -11.067   4.854  -1.370  0.00  0.00    +0.039 A 
ATOM     22  C   UNL     1     -10.986   4.841  -2.763  0.00  0.00    +0.014 A 
ATOM     23  C   UNL     1     -12.091   5.177  -3.518  0.00  0.00    +0.016 A 
ATOM     24  C   UNL     1     -13.274   5.536  -2.897  0.00  0.00    +0.018 A 
ATOM     25  C   UNL     1     -13.359   5.556  -1.515  0.00  0.00    +0.016 A 
ATOM     26  C   UNL     1     -12.263   5.217  -0.749  0.00  0.00    +0.014 A 
ATOM     27 BR   UNL     1     -14.782   6.002  -3.939  0.00  0.00    -0.050 Br
ENDBRANCH  19  21
ENDBRANCH  15  16
ENDBRANCH   1  15
TORSDOF 5
