REMARK  Name = ZINC48878567
REMARK  9 active torsions:
REMARK  status: ('A' for Active; 'I' for Inactive)
REMARK    1  A    between atoms: C_1  and  C_2
REMARK    2  A    between atoms: C_2  and  C_3
REMARK    3  A    between atoms: C_2  and  O_4
REMARK    4  A    between atoms: O_4  and  C_5
REMARK    5  A    between atoms: C_9  and  C_11
REMARK    6  A    between atoms: C_11  and  C_12
REMARK    7  A    between atoms: C_11  and  N_13
REMARK    8  A    between atoms: N_16  and  C_17
REMARK    9  A    between atoms: C_17  and  C_18
REMARK                            x       y       z     vdW  Elec       q    Type
REMARK                         _______ _______ _______ _____ _____    ______ ____
ROOT
ATOM      1  N   UNL     1      -4.358  -5.567  -0.828  0.00  0.00    -0.293 N 
ATOM      2  C   UNL     1      -5.432  -6.176  -0.287  0.00  0.00    +0.300 C 
ATOM      3  O   UNL     1      -6.452  -5.545  -0.087  0.00  0.00    -0.253 OA
ATOM      4  N   UNL     1      -5.375  -7.484   0.033  0.00  0.00    -0.295 N 
ATOM      5  H   UNL     1      -3.544  -6.071  -0.987  0.00  0.00    +0.151 HD
ATOM      6  H   UNL     1      -4.561  -7.987  -0.126  0.00  0.00    +0.151 HD
ENDROOT
BRANCH   1   7
ATOM      7  C   UNL     1      -4.420  -4.145  -1.176  0.00  0.00    +0.102 C 
ATOM      8  C   UNL     1      -5.028  -3.987  -2.570  0.00  0.00    +0.033 C 
BRANCH   7  13
ATOM      9  C   UNL     1      -1.532  -1.768  -0.641  0.00  0.00    +0.121 A 
ATOM     10  C   UNL     1      -0.472  -2.505  -1.151  0.00  0.00    +0.045 A 
ATOM     11  C   UNL     1      -0.694  -3.767  -1.665  0.00  0.00    +0.004 A 
ATOM     12  C   UNL     1      -1.972  -4.297  -1.673  0.00  0.00    +0.006 A 
ATOM     13  C   UNL     1      -3.029  -3.565  -1.166  0.00  0.00    -0.024 A 
ATOM     14  C   UNL     1      -2.811  -2.304  -0.645  0.00  0.00    +0.051 A 
BRANCH   9  15
ATOM     15  O   UNL     1      -1.315  -0.526  -0.134  0.00  0.00    -0.489 OA
BRANCH  15  17
ATOM     16  C   UNL     1      -1.917   1.150   1.500  0.00  0.00    +0.051 C 
ATOM     17  C   UNL     1      -2.427   0.124   0.485  0.00  0.00    +0.167 C 
ATOM     18  C   UNL     1      -3.262   0.834  -0.582  0.00  0.00    +0.051 C 
ENDBRANCH  15  17
ENDBRANCH   9  15
ENDBRANCH   7  13
ENDBRANCH   1   7
BRANCH   4  19
ATOM     19  C   UNL     1      -6.543  -8.145   0.621  0.00  0.00    +0.142 C 
BRANCH  19  20
ATOM     20  C   UNL     1      -6.220  -9.594   0.883  0.00  0.00    -0.014 A 
ATOM     21  C   UNL     1      -6.455 -10.553  -0.094  0.00  0.00    +0.010 A 
ATOM     22  C   UNL     1      -6.146 -11.871   0.187  0.00  0.00    +0.042 A 
ATOM     23  C   UNL     1      -5.612 -12.190   1.431  0.00  0.00    +0.099 A 
ATOM     24  N   UNL     1      -5.402 -11.247   2.336  0.00  0.00    -0.349 N 
ATOM     25  C   UNL     1      -5.683  -9.981   2.094  0.00  0.00    +0.089 A 
ATOM     26  N   UNL     1      -5.296 -13.511   1.727  0.00  0.00    -0.317 N 
ATOM     27  C   UNL     1      -4.866 -13.894   3.079  0.00  0.00    +0.106 C 
ATOM     28  C   UNL     1      -5.755 -15.039   3.573  0.00  0.00    +0.019 C 
ATOM     29  C   UNL     1      -5.721 -16.182   2.556  0.00  0.00    +0.003 C 
ATOM     30  C   UNL     1      -6.269 -15.690   1.215  0.00  0.00    +0.019 C 
ATOM     31  C   UNL     1      -5.391 -14.553   0.695  0.00  0.00    +0.106 C 
ATOM     32  H   UNL     1      -5.029 -11.493   3.197  0.00  0.00    +0.167 HD
ENDBRANCH  19  20
ENDBRANCH   4  19
TORSDOF 6
