REMARK  Name = ZINC35641886
REMARK  13 active torsions:
REMARK  status: ('A' for Active; 'I' for Inactive)
REMARK    1  A    between atoms: C_1  and  C_2
REMARK    2  A    between atoms: C_2  and  C_3
REMARK    3  A    between atoms: C_3  and  N_4
REMARK    4  A    between atoms: N_4  and  C_5
REMARK    5  A    between atoms: N_4  and  C_6
REMARK    6  A    between atoms: C_6  and  C_7
REMARK    7  A    between atoms: C_8  and  C_26
REMARK    8  A    between atoms: C_9  and  C_16
REMARK    9  A    between atoms: N_14  and  C_15
REMARK   10  A    between atoms: C_21  and  C_22
REMARK   11  A    between atoms: C_26  and  O_28
REMARK   12  A    between atoms: O_28  and  C_29
REMARK   13  A    between atoms: C_29  and  C_30
REMARK                            x       y       z     vdW  Elec       q    Type
REMARK                         _______ _______ _______ _____ _____    ______ ____
ROOT
ATOM      1  C   UNL     1       1.747  -4.095   2.514  0.00  0.00    +0.010 C 
ATOM      2  C   UNL     1       3.022  -4.484   2.297  0.00  0.00    +0.076 C 
ATOM      3  C   UNL     1       3.316  -5.970   2.304  0.00  0.00    +0.144 C 
ATOM      4  N   UNL     1       2.180  -6.875   2.548  0.00  0.00    -0.288 N 
ATOM      5  C   UNL     1       0.962  -6.334   2.748  0.00  0.00    +0.307 C 
ATOM      6  O   UNL     1       0.017  -7.072   2.950  0.00  0.00    -0.252 OA
ATOM      7  N   UNL     1       0.759  -5.011   2.737  0.00  0.00    -0.264 N 
ATOM      8  C   UNL     1      -0.601  -4.518   2.971  0.00  0.00    +0.139 C 
ATOM      9  H   UNL     1       2.305  -7.836   2.563  0.00  0.00    +0.151 HD
ENDROOT
BRANCH   3  10
ATOM     10  C   UNL     1       3.918  -6.330   0.970  0.00  0.00    -0.011 A 
ATOM     11  C   UNL     1       3.223  -6.066  -0.196  0.00  0.00    +0.006 A 
ATOM     12  C   UNL     1       3.775  -6.396  -1.419  0.00  0.00    +0.000 A 
ATOM     13  C   UNL     1       5.021  -6.991  -1.478  0.00  0.00    +0.001 A 
ATOM     14  C   UNL     1       5.716  -7.255  -0.312  0.00  0.00    +0.013 A 
ATOM     15  C   UNL     1       5.166  -6.920   0.911  0.00  0.00    +0.060 A 
BRANCH  15  16
ATOM     16  C   UNL     1       5.926  -7.203   2.181  0.00  0.00    +0.418 C 
ATOM     17  F   UNL     1       7.168  -7.767   1.867  0.00  0.00    -0.166 F 
ATOM     18  F   UNL     1       6.121  -6.009   2.884  0.00  0.00    -0.166 F 
ATOM     19  F   UNL     1       5.196  -8.097   2.973  0.00  0.00    -0.166 F 
ENDBRANCH  15  16
ENDBRANCH   3  10
BRANCH   2  20
ATOM     20  C   UNL     1       4.047  -3.536   2.071  0.00  0.00    +0.339 C 
ATOM     21  O   UNL     1       3.774  -2.354   1.978  0.00  0.00    -0.245 OA
BRANCH  20  22
ATOM     22  O   UNL     1       5.329  -3.943   1.960  0.00  0.00    -0.462 OA
BRANCH  22  23
ATOM     23  C   UNL     1       6.325  -2.925   1.843  0.00  0.00    +0.229 C 
ATOM     24  C   UNL     1       7.691  -3.572   1.604  0.00  0.00    +0.048 C 
ENDBRANCH  22  23
ENDBRANCH  20  22
ENDBRANCH   2  20
BRANCH   1  25
ATOM     25  C   UNL     1       1.411  -2.626   2.516  0.00  0.00    -0.027 C 
BRANCH  25  26
ATOM     26  N   UNL     1       1.248  -2.159   1.133  0.00  0.00    +0.381 N 
ATOM     27  C   UNL     1       0.090  -2.826   0.523  0.00  0.00    -0.096 C 
ATOM     28  H   UNL     1       2.079  -2.378   0.604  0.00  0.00    -0.082 HD
BRANCH  26  29
ATOM     29  C   UNL     1       1.034  -0.706   1.129  0.00  0.00    -0.079 C 
BRANCH  29  31
ATOM     30  C   UNL     1       0.766   1.313  -0.320  0.00  0.00    +0.002 C 
ATOM     31  C   UNL     1       0.989  -0.201  -0.315  0.00  0.00    -0.022 C 
ENDBRANCH  29  31
ENDBRANCH  26  29
ENDBRANCH  25  26
ENDBRANCH   1  25
TORSDOF 9
