REMARK  Name = ZINC13765906
REMARK  8 active torsions:
REMARK  status: ('A' for Active; 'I' for Inactive)
REMARK    1  A    between atoms: C_4  and  O_7
REMARK    2  A    between atoms: O_7  and  C_8
REMARK    3  A    between atoms: C_8  and  C_9
REMARK    4  A    between atoms: N_11  and  C_12
REMARK    5  A    between atoms: C_12  and  C_13
REMARK    6  A    between atoms: N_15  and  N_16
REMARK    7  A    between atoms: N_24  and  C_27
REMARK    8  A    between atoms: C_27  and  C_28
REMARK                            x       y       z     vdW  Elec       q    Type
REMARK                         _______ _______ _______ _____ _____    ______ ____
ROOT
ATOM      1  N   UNL     1       7.521  -8.112  -0.117  0.00  0.00    -0.174 NA
ATOM      2  C   UNL     1       8.630  -8.810  -0.132  0.00  0.00    +0.153 C 
ATOM      3  C   UNL     1       8.768 -10.285  -0.147  0.00  0.00    +0.028 A 
ATOM      4  C   UNL     1       7.848 -11.328  -0.151  0.00  0.00    +0.012 A 
ATOM      5  C   UNL     1       8.294 -12.634  -0.167  0.00  0.00    +0.001 A 
ATOM      6  C   UNL     1       9.652 -12.904  -0.179  0.00  0.00    +0.002 A 
ATOM      7  C   UNL     1      10.573 -11.876  -0.176  0.00  0.00    +0.024 A 
ATOM      8  C   UNL     1      10.143 -10.553  -0.161  0.00  0.00    +0.046 A 
ATOM      9  N   UNL     1      10.846  -9.354  -0.154  0.00  0.00    -0.261 N 
ATOM     10  C   UNL     1      10.015  -8.297  -0.144  0.00  0.00    +0.272 C 
ATOM     11  O   UNL     1      10.346  -7.126  -0.142  0.00  0.00    -0.268 OA
ENDROOT
BRANCH   1  14
ATOM     12  C   UNL     1       6.433  -5.995  -0.095  0.00  0.00    +0.249 C 
ATOM     13  O   UNL     1       5.361  -6.561  -0.087  0.00  0.00    -0.272 OA
ATOM     14  N   UNL     1       7.574  -6.712  -0.110  0.00  0.00    -0.205 N 
ATOM     15  H   UNL     1       8.431  -6.259  -0.117  0.00  0.00    +0.177 HD
BRANCH  12  16
ATOM     16  C   UNL     1       6.490  -4.489  -0.087  0.00  0.00    +0.202 C 
BRANCH  16  19
ATOM     17  C   UNL     1       4.932  -2.615  -0.061  0.00  0.00    +0.251 C 
ATOM     18  O   UNL     1       5.883  -1.863  -0.067  0.00  0.00    -0.272 OA
ATOM     19  N   UNL     1       5.128  -3.949  -0.070  0.00  0.00    -0.304 N 
ATOM     20  H   UNL     1       4.368  -4.551  -0.066  0.00  0.00    +0.149 HD
BRANCH  17  21
ATOM     21  C   UNL     1       3.531  -2.060  -0.044  0.00  0.00    +0.324 C 
BRANCH  21  22
ATOM     22  O   UNL     1       3.586  -0.632  -0.037  0.00  0.00    -0.483 OA
BRANCH  22  26
ATOM     23  C   UNL     1      -0.017   1.378   0.010  0.00  0.00    +0.000 A 
ATOM     24  C   UNL     1       1.170   2.088   0.002  0.00  0.00    +0.004 A 
ATOM     25  C   UNL     1       2.377   1.417  -0.013  0.00  0.00    +0.045 A 
ATOM     26  C   UNL     1       2.399   0.030  -0.021  0.00  0.00    +0.121 A 
ATOM     27  C   UNL     1       1.207  -0.680  -0.013  0.00  0.00    +0.045 A 
ATOM     28  C   UNL     1       0.002  -0.004   0.002  0.00  0.00    +0.004 A 
ENDBRANCH  22  26
ENDBRANCH  21  22
ENDBRANCH  17  21
ENDBRANCH  16  19
ENDBRANCH  12  16
ENDBRANCH   1  14
BRANCH   9  29
ATOM     29  C   UNL     1      12.308  -9.254  -0.164  0.00  0.00    +0.149 C 
BRANCH  29  30
ATOM     30  C   UNL     1      12.798  -9.206  -1.589  0.00  0.00    -0.028 A 
ATOM     31  C   UNL     1      13.099 -10.379  -2.256  0.00  0.00    +0.007 A 
ATOM     32  C   UNL     1      13.549 -10.336  -3.561  0.00  0.00    +0.022 A 
ATOM     33  C   UNL     1      13.699  -9.120  -4.202  0.00  0.00    +0.059 A 
ATOM     34  C   UNL     1      13.397  -7.945  -3.535  0.00  0.00    +0.060 A 
ATOM     35  C   UNL     1      12.941  -7.990  -2.229  0.00  0.00    +0.026 A 
ATOM     36 CL   UNL     1      13.584  -6.417  -4.337  0.00  0.00    -0.082 Cl
ATOM     37 CL   UNL     1      14.265  -9.065  -5.843  0.00  0.00    -0.082 Cl
ENDBRANCH  29  30
ENDBRANCH   9  29
TORSDOF 8
