REMARK  Name = ZINC47007056
REMARK  10 active torsions:
REMARK  status: ('A' for Active; 'I' for Inactive)
REMARK    1  A    between atoms: C_1  and  C_2
REMARK    2  A    between atoms: C_3  and  C_8
REMARK    3  A    between atoms: N_6  and  C_7
REMARK    4  A    between atoms: C_8  and  C_10
REMARK    5  A    between atoms: C_8  and  N_11
REMARK    6  A    between atoms: N_14  and  N_15
REMARK    7  A    between atoms: C_16  and  C_18
REMARK    8  A    between atoms: C_18  and  C_20
REMARK    9  A    between atoms: C_18  and  O_21
REMARK   10  A    between atoms: O_21  and  C_22
REMARK                            x       y       z     vdW  Elec       q    Type
REMARK                         _______ _______ _______ _____ _____    ______ ____
ROOT
ATOM      1  N   UNL     1       1.165  -3.343  -5.351  0.00  0.00    -0.230 N 
ATOM      2  C   UNL     1       1.730  -4.382  -5.998  0.00  0.00    +0.270 C 
ATOM      3  O   UNL     1       2.405  -4.186  -6.986  0.00  0.00    -0.270 OA
ATOM      4  H   UNL     1       0.625  -3.500  -4.560  0.00  0.00    +0.173 HD
ENDROOT
BRANCH   1   8
ATOM      5  N   UNL     1       0.042  -1.217  -4.075  0.00  0.00    -0.292 N 
ATOM      6  C   UNL     1       0.792  -0.999  -5.173  0.00  0.00    +0.316 C 
ATOM      7  O   UNL     1       0.959   0.135  -5.580  0.00  0.00    -0.251 OA
ATOM      8  N   UNL     1       1.357  -2.037  -5.820  0.00  0.00    -0.218 N 
ATOM      9  H   UNL     1      -0.091  -2.121  -3.750  0.00  0.00    +0.151 HD
ATOM     10  H   UNL     1       1.897  -1.881  -6.611  0.00  0.00    +0.174 HD
BRANCH   5  11
ATOM     11  C   UNL     1      -0.572  -0.088  -3.372  0.00  0.00    +0.105 C 
ATOM     12  C   UNL     1      -1.906   0.261  -4.035  0.00  0.00    +0.033 C 
BRANCH  11  15
ATOM     13  C   UNL     1      -1.001   1.904  -0.998  0.00  0.00    +0.065 C 
ATOM     14  C   UNL     1      -0.996   0.400  -0.905  0.00  0.00    +0.041 A 
ATOM     15  C   UNL     1      -0.810  -0.462  -1.931  0.00  0.00    +0.013 A 
ATOM     16  C   UNL     1      -0.877  -1.762  -1.419  0.00  0.00    +0.140 A 
ATOM     17  N   UNL     1      -1.096  -1.683  -0.132  0.00  0.00    -0.179 NA
ATOM     18  N   UNL     1      -1.169  -0.329   0.218  0.00  0.00    -0.271 N 
ATOM     19  C   UNL     1      -1.397   0.203   1.563  0.00  0.00    +0.172 C 
ENDBRANCH  11  15
ENDBRANCH   5  11
ENDBRANCH   1   8
BRANCH   2  20
ATOM     20  C   UNL     1       1.524  -5.787  -5.493  0.00  0.00    +0.257 C 
ATOM     21  C   UNL     1       2.175  -5.935  -4.117  0.00  0.00    +0.062 C 
BRANCH  20  22
ATOM     22  O   UNL     1       2.119  -6.713  -6.404  0.00  0.00    -0.480 OA
BRANCH  22  23
ATOM     23  C   UNL     1       1.618  -7.976  -6.415  0.00  0.00    +0.122 A 
ATOM     24  C   UNL     1       0.642  -8.340  -5.481  0.00  0.00    +0.046 A 
ATOM     25  C   UNL     1       0.122  -9.596  -5.467  0.00  0.00    +0.012 A 
ATOM     26  C   UNL     1       0.568 -10.546  -6.403  0.00  0.00    -0.018 A 
ATOM     27  C   UNL     1       0.052 -11.852  -6.417  0.00  0.00    +0.008 A 
ATOM     28  C   UNL     1       0.506 -12.747  -7.337  0.00  0.00    +0.001 A 
ATOM     29  C   UNL     1       1.478 -12.387  -8.269  0.00  0.00    +0.001 A 
ATOM     30  C   UNL     1       2.001 -11.130  -8.286  0.00  0.00    +0.008 A 
ATOM     31  C   UNL     1       1.556 -10.179  -7.351  0.00  0.00    -0.014 A 
ATOM     32  C   UNL     1       2.070  -8.872  -7.341  0.00  0.00    +0.054 A 
ENDBRANCH  22  23
ENDBRANCH  20  22
ENDBRANCH   2  20
TORSDOF 6
