REMARK  Name = ZINC26046573
REMARK  6 active torsions:
REMARK  status: ('A' for Active; 'I' for Inactive)
REMARK    1  A    between atoms: C_1  and  C_2
REMARK    2  A    between atoms: C_3  and  C_18
REMARK    3  A    between atoms: C_7  and  N_8
REMARK    4  A    between atoms: C_9  and  C_11
REMARK    5  A    between atoms: C_11  and  C_13
REMARK    6  A    between atoms: C_11  and  N_14
REMARK                            x       y       z     vdW  Elec       q    Type
REMARK                         _______ _______ _______ _____ _____    ______ ____
ROOT
ATOM      1  C   UNL     1      -0.753   0.336   5.046  0.00  0.00    +0.046 C 
ATOM      2  C   UNL     1       0.469  -0.522   4.838  0.00  0.00    -0.017 A 
ATOM      3  C   UNL     1       1.111  -1.103   5.931  0.00  0.00    +0.042 A 
ATOM      4  C   UNL     1       2.242  -1.896   5.730  0.00  0.00    +0.013 A 
ATOM      5  C   UNL     1       2.720  -2.103   4.452  0.00  0.00    +0.003 A 
ATOM      6  C   UNL     1       2.081  -1.532   3.368  0.00  0.00    +0.023 A 
ATOM      7  C   UNL     1       0.957  -0.736   3.559  0.00  0.00    +0.037 A 
ENDROOT
BRANCH   3   8
ATOM      8  C   UNL     1       0.595  -0.879   7.299  0.00  0.00    +0.247 C 
ATOM      9  O   UNL     1       0.593   0.240   7.772  0.00  0.00    -0.270 OA
ATOM     10  N   UNL     1       0.128  -1.917   8.021  0.00  0.00    -0.293 N 
ATOM     11  C   UNL     1      -0.477  -1.694   9.342  0.00  0.00    +0.113 C 
ATOM     12  C   UNL     1      -1.963  -2.095   9.260  0.00  0.00    +0.061 C 
ATOM     13  C   UNL     1      -2.071  -3.378   8.502  0.00  0.00    -0.004 A 
ATOM     14  C   UNL     1      -1.136  -3.957   7.702  0.00  0.00    -0.020 A 
ATOM     15  C   UNL     1      -1.490  -5.163   7.098  0.00  0.00    +0.013 A 
ATOM     16  C   UNL     1      -2.710  -5.700   7.324  0.00  0.00    +0.046 A 
ATOM     17  S   UNL     1      -3.442  -4.500   8.427  0.00  0.00    -0.101 S 
ATOM     18  C   UNL     1       0.222  -3.288   7.502  0.00  0.00    +0.144 C 
ENDBRANCH   3   8
BRANCH   7  19
ATOM     19  N   UNL     1       0.316  -0.156   2.458  0.00  0.00    -0.284 N 
ATOM     20  C   UNL     1       1.003   0.071   1.321  0.00  0.00    +0.237 C 
ATOM     21  O   UNL     1       2.199  -0.127   1.285  0.00  0.00    -0.273 OA
ATOM     22  H   UNL     1      -0.748   0.116   2.522  0.00  0.00    +0.155 HD
BRANCH  20  23
ATOM     23  C   UNL     1       0.285   0.571   0.094  0.00  0.00    +0.158 C 
ATOM     24  C   UNL     1      -0.375   1.916   0.402  0.00  0.00    +0.038 C 
BRANCH  23  25
ATOM     25  N   UNL     1       1.244   0.736  -1.000  0.00  0.00    -0.289 N 
ATOM     26  C   UNL     1       0.825   0.677  -2.280  0.00  0.00    +0.298 C 
ATOM     27  O   UNL     1      -0.351   0.486  -2.526  0.00  0.00    -0.253 OA
ATOM     28  N   UNL     1       1.708   0.829  -3.287  0.00  0.00    -0.313 N 
ATOM     29  H   UNL     1       2.308   0.909  -0.778  0.00  0.00    +0.151 HD
ATOM     30  H   UNL     1       1.365   0.780  -4.331  0.00  0.00    +0.146 HD
ATOM     31  H   UNL     1       2.771   1.002  -3.064  0.00  0.00    +0.146 HD
ENDBRANCH  23  25
ENDBRANCH  20  23
ENDBRANCH   7  19
TORSDOF 4
