REMARK  Name = ZINC19939904
REMARK  10 active torsions:
REMARK  status: ('A' for Active; 'I' for Inactive)
REMARK    1  A    between atoms: C_1  and  C_2
REMARK    2  A    between atoms: C_11  and  C_12
REMARK    3  A    between atoms: C_12  and  N_13
REMARK    4  A    between atoms: N_13  and  C_14
REMARK    5  A    between atoms: C_15  and  C_17
REMARK    6  A    between atoms: C_17  and  C_18
REMARK    7  A    between atoms: N_25  and  C_26
REMARK    8  A    between atoms: C_26  and  C_27
REMARK    9  A    between atoms: C_28  and  C_29
REMARK   10  A    between atoms: C_28  and  C_30
REMARK                            x       y       z     vdW  Elec       q    Type
REMARK                         _______ _______ _______ _____ _____    ______ ____
ROOT
ATOM      1  N   UNL     1       4.603   3.176  -1.631  0.00  0.00    -0.299 N 
ATOM      2  C   UNL     1       4.827   2.311  -2.792  0.00  0.00    +0.132 C 
ATOM      3  C   UNL     1       3.531   2.977  -0.840  0.00  0.00    +0.215 C 
ATOM      4  O   UNL     1       3.345   3.694   0.121  0.00  0.00    -0.276 OA
ENDROOT
BRANCH   1   5
ATOM      5  C   UNL     1       5.545   4.257  -1.331  0.00  0.00    +0.160 C 
BRANCH   5  16
ATOM      6  C   UNL     1       7.845   5.949  -0.114  0.00  0.00    +0.046 C 
ATOM      7  C   UNL     1       7.666   4.459   0.031  0.00  0.00    -0.021 A 
ATOM      8  C   UNL     1       8.539   3.545   0.771  0.00  0.00    +0.003 A 
ATOM      9  C   UNL     1       9.708   3.709   1.517  0.00  0.00    +0.010 A 
ATOM     10  C   UNL     1      10.302   2.623   2.095  0.00  0.00    +0.001 A 
ATOM     11  C   UNL     1       9.753   1.356   1.946  0.00  0.00    +0.002 A 
ATOM     12  C   UNL     1       8.600   1.172   1.215  0.00  0.00    +0.026 A 
ATOM     13  C   UNL     1       7.978   2.264   0.618  0.00  0.00    +0.047 A 
ATOM     14  N   UNL     1       6.847   2.405  -0.154  0.00  0.00    -0.356 N 
ATOM     15  H   UNL     1       6.240   1.523  -0.406  0.00  0.00    +0.166 HD
ATOM     16  C   UNL     1       6.676   3.720  -0.492  0.00  0.00    +0.037 A 
ENDBRANCH   5  16
ENDBRANCH   1   5
BRANCH   3  17
ATOM     17  C   UNL     1       2.562   1.865  -1.149  0.00  0.00    +0.090 C 
BRANCH  17  18
ATOM     18  C   UNL     1       1.361   1.959  -0.205  0.00  0.00    +0.028 C 
ATOM     19  C   UNL     1       0.623   3.242  -0.463  0.00  0.00    +0.200 C 
ATOM     20  O   UNL     1       0.443   3.589  -1.611  0.00  0.00    -0.278 OA
ATOM     21  N   UNL     1       0.161   4.021   0.521  0.00  0.00    -0.318 N 
ATOM     22  C   UNL     1       0.350   3.709   1.935  0.00  0.00    +0.085 C 
ATOM     23  C   UNL     1       0.723   2.235   2.104  0.00  0.00    -0.058 C 
ATOM     24  N   UNL     1       1.829   1.920   1.186  0.00  0.00    +0.391 N 
ATOM     25  H   UNL     1      -0.383   4.930   0.227  0.00  0.00    +0.149 HD
ATOM     26  H   UNL     1       2.615   2.680   1.310  0.00  0.00    -0.080 HD
BRANCH  24  27
ATOM     27  C   UNL     1       2.422   0.614   1.506  0.00  0.00    -0.050 C 
BRANCH  27  28
ATOM     28  C   UNL     1       2.799   0.576   2.965  0.00  0.00    -0.047 C 
ATOM     29  C   UNL     1       2.327  -0.369   3.739  0.00  0.00    -0.081 C 
ATOM     30  C   UNL     1       1.309  -1.343   3.204  0.00  0.00    +0.038 C 
ATOM     31  C   UNL     1       2.802  -0.483   5.164  0.00  0.00    +0.038 C 
ENDBRANCH  27  28
ENDBRANCH  24  27
ENDBRANCH  17  18
ENDBRANCH   3  17
TORSDOF 6
