REMARK  Name = ZINC35742080
REMARK  13 active torsions:
REMARK  status: ('A' for Active; 'I' for Inactive)
REMARK    1  A    between atoms: C_1  and  C_2
REMARK    2  A    between atoms: C_2  and  C_3
REMARK    3  A    between atoms: C_2  and  C_4
REMARK    4  A    between atoms: N_6  and  C_7
REMARK    5  A    between atoms: N_6  and  C_14
REMARK    6  A    between atoms: C_7  and  C_8
REMARK    7  A    between atoms: C_8  and  N_9
REMARK    8  A    between atoms: C_14  and  C_15
REMARK    9  A    between atoms: C_25  and  C_27
REMARK   10  A    between atoms: C_27  and  O_28
REMARK   11  A    between atoms: O_28  and  C_29
REMARK   12  A    between atoms: C_34  and  O_35
REMARK   13  A    between atoms: O_35  and  C_36
REMARK                            x       y       z     vdW  Elec       q    Type
REMARK                         _______ _______ _______ _____ _____    ______ ____
ROOT
ATOM      1  C   UNL     1       0.093  -2.990   1.760  0.00  0.00    +0.234 C 
ATOM      2  O   UNL     1      -0.478  -2.394   2.649  0.00  0.00    -0.274 OA
ATOM      3  N   UNL     1       1.164  -3.758   2.044  0.00  0.00    -0.289 N 
ATOM      4  C   UNL     1       1.867  -4.481   0.974  0.00  0.00    +0.114 C 
ATOM      5  C   UNL     1       1.704  -5.988   1.222  0.00  0.00    +0.061 C 
ATOM      6  C   UNL     1       1.905  -6.259   2.677  0.00  0.00    -0.004 A 
ATOM      7  C   UNL     1       1.884  -5.367   3.704  0.00  0.00    -0.014 A 
ATOM      8  C   UNL     1       2.094  -5.880   4.983  0.00  0.00    +0.013 A 
ATOM      9  C   UNL     1       2.311  -7.204   5.154  0.00  0.00    +0.046 A 
ATOM     10  S   UNL     1       2.225  -7.810   3.475  0.00  0.00    -0.101 S 
ATOM     11  C   UNL     1       1.649  -3.879   3.425  0.00  0.00    +0.144 C 
ENDROOT
BRANCH   1  12
ATOM     12  C   UNL     1      -0.395  -2.873   0.339  0.00  0.00    +0.203 C 
BRANCH  12  15
ATOM     13  C   UNL     1      -1.407  -0.682   0.006  0.00  0.00    +0.218 C 
ATOM     14  O   UNL     1      -2.357   0.070   0.066  0.00  0.00    -0.275 OA
ATOM     15  N   UNL     1      -1.562  -1.989   0.295  0.00  0.00    -0.294 N 
BRANCH  13  17
ATOM     16  C   UNL     1      -0.226   1.111  -1.236  0.00  0.00    +0.017 C 
ATOM     17  C   UNL     1      -0.053  -0.154  -0.393  0.00  0.00    +0.069 C 
ATOM     18  C   UNL     1       0.756   0.177   0.863  0.00  0.00    +0.017 C 
ENDBRANCH  13  17
BRANCH  15  19
ATOM     19  C   UNL     1      -2.898  -2.525   0.566  0.00  0.00    +0.090 C 
BRANCH  19  20
ATOM     20  C   UNL     1      -3.531  -3.003  -0.743  0.00  0.00    -0.060 C 
BRANCH  20  21
ATOM     21  N   UNL     1      -4.871  -3.541  -0.471  0.00  0.00    +0.381 N 
ATOM     22  C   UNL     1      -5.790  -2.446  -0.066  0.00  0.00    -0.079 C 
ATOM     23  C   UNL     1      -7.192  -3.031  -0.368  0.00  0.00    -0.020 C 
ATOM     24  C   UNL     1      -6.961  -3.827  -1.673  0.00  0.00    -0.020 C 
ATOM     25  C   UNL     1      -5.449  -4.116  -1.705  0.00  0.00    -0.079 C 
ATOM     26  H   UNL     1      -4.824  -4.243   0.252  0.00  0.00    -0.082 HD
ENDBRANCH  20  21
ENDBRANCH  19  20
ENDBRANCH  15  19
ENDBRANCH  12  15
ENDBRANCH   1  12
BRANCH  11  27
ATOM     27  C   UNL     1       2.958  -3.104   3.585  0.00  0.00    +0.256 C 
BRANCH  27  28
ATOM     28  O   UNL     1       3.971  -3.709   2.778  0.00  0.00    -0.486 OA
BRANCH  28  29
ATOM     29  C   UNL     1       5.205  -3.138   2.805  0.00  0.00    +0.162 A 
ATOM     30  C   UNL     1       5.437  -2.023   3.596  0.00  0.00    +0.049 A 
ATOM     31  C   UNL     1       6.692  -1.444   3.623  0.00  0.00    +0.004 A 
ATOM     32  C   UNL     1       7.718  -1.974   2.862  0.00  0.00    +0.004 A 
ATOM     33  C   UNL     1       7.493  -3.086   2.071  0.00  0.00    +0.049 A 
ATOM     34  C   UNL     1       6.239  -3.675   2.044  0.00  0.00    +0.161 A 
BRANCH  34  35
ATOM     35  O   UNL     1       6.017  -4.771   1.271  0.00  0.00    -0.491 OA
ATOM     36  C   UNL     1       7.125  -5.267   0.517  0.00  0.00    +0.277 C 
ENDBRANCH  34  35
ENDBRANCH  28  29
ENDBRANCH  27  28
ENDBRANCH  11  27
TORSDOF 10
