REMARK  Name = ZINC35070307
REMARK  14 active torsions:
REMARK  status: ('A' for Active; 'I' for Inactive)
REMARK    1  A    between atoms: C_1  and  C_2
REMARK    2  A    between atoms: C_5  and  N_9
REMARK    3  A    between atoms: C_6  and  C_8
REMARK    4  A    between atoms: C_19  and  C_20
REMARK    5  A    between atoms: C_20  and  C_22
REMARK    6  A    between atoms: C_20  and  N_23
REMARK    7  A    between atoms: N_23  and  C_24
REMARK    8  A    between atoms: C_24  and  C_25
REMARK    9  A    between atoms: C_25  and  N_26
REMARK   10  A    between atoms: N_26  and  C_27
REMARK   11  A    between atoms: N_26  and  C_28
REMARK   12  A    between atoms: N_31  and  C_32
REMARK   13  A    between atoms: C_33  and  C_39
REMARK   14  A    between atoms: C_37  and  C_38
REMARK                            x       y       z     vdW  Elec       q    Type
REMARK                         _______ _______ _______ _____ _____    ______ ____
ROOT
ATOM      1  C   UNL     1       2.144  -5.340   0.212  0.00  0.00    +0.141 C 
ATOM      2  C   UNL     1       1.401  -4.043  -0.116  0.00  0.00    +0.036 C 
ENDROOT
BRANCH   1  13
ATOM      3  N   UNL     1       1.065  -7.550   0.343  0.00  0.00    -0.263 N 
ATOM      4  C   UNL     1       0.424  -8.615  -0.194  0.00  0.00    +0.266 A 
ATOM      5  O   UNL     1       0.078  -9.557   0.494  0.00  0.00    -0.267 OA
ATOM      6  C   UNL     1       0.163  -8.589  -1.641  0.00  0.00    +0.065 A 
ATOM      7  C   UNL     1      -0.490  -9.634  -2.290  0.00  0.00    +0.015 A 
ATOM      8  C   UNL     1      -0.710  -9.558  -3.648  0.00  0.00    +0.001 A 
ATOM      9  C   UNL     1      -0.286  -8.450  -4.371  0.00  0.00    +0.002 A 
ATOM     10  C   UNL     1       0.361  -7.407  -3.749  0.00  0.00    +0.028 A 
ATOM     11  C   UNL     1       0.595  -7.460  -2.373  0.00  0.00    +0.078 A 
ATOM     12  N   UNL     1       1.228  -6.454  -1.719  0.00  0.00    -0.231 NA
ATOM     13  C   UNL     1       1.440  -6.502  -0.439  0.00  0.00    +0.138 A 
BRANCH   3  18
ATOM     14  C   UNL     1       2.173  -7.449   5.907  0.00  0.00    +0.044 C 
ATOM     15  C   UNL     1       1.879  -7.476   4.429  0.00  0.00    -0.050 A 
ATOM     16  C   UNL     1       0.737  -6.866   3.942  0.00  0.00    +0.005 A 
ATOM     17  C   UNL     1       0.464  -6.889   2.588  0.00  0.00    +0.027 A 
ATOM     18  C   UNL     1       1.338  -7.525   1.716  0.00  0.00    +0.054 A 
ATOM     19  C   UNL     1       2.484  -8.136   2.208  0.00  0.00    -0.026 A 
ATOM     20  C   UNL     1       2.754  -8.104   3.563  0.00  0.00    +0.008 A 
ATOM     21  C   UNL     1       3.435  -8.827   1.266  0.00  0.00    +0.046 C 
ENDBRANCH   3  18
ENDBRANCH   1  13
BRANCH   1  22
ATOM     22  N   UNL     1       3.518  -5.256  -0.291  0.00  0.00    -0.277 N 
ATOM     23  C   UNL     1       4.556  -5.359   0.562  0.00  0.00    +0.307 C 
ATOM     24  O   UNL     1       4.353  -5.521   1.750  0.00  0.00    -0.252 OA
ATOM     25  N   UNL     1       5.819  -5.282   0.099  0.00  0.00    -0.269 N 
ATOM     26  H   UNL     1       5.983  -5.223  -0.855  0.00  0.00    +0.156 HD
BRANCH  25  27
ATOM     27  C   UNL     1       6.894  -5.287   0.995  0.00  0.00    +0.041 A 
ATOM     28  C   UNL     1       7.948  -6.172   0.812  0.00  0.00    -0.029 A 
ATOM     29  C   UNL     1       9.008  -6.174   1.697  0.00  0.00    +0.005 A 
ATOM     30  C   UNL     1       9.021  -5.295   2.765  0.00  0.00    +0.001 A 
ATOM     31  C   UNL     1       7.973  -4.412   2.950  0.00  0.00    +0.005 A 
ATOM     32  C   UNL     1       6.913  -4.402   2.064  0.00  0.00    -0.029 A 
ATOM     33  C   UNL     1       5.774  -3.434   2.263  0.00  0.00    +0.045 C 
ATOM     34  C   UNL     1       7.935  -7.131  -0.351  0.00  0.00    +0.045 C 
ENDBRANCH  25  27
BRANCH  22  35
ATOM     35  C   UNL     1       3.762  -5.061  -1.722  0.00  0.00    +0.091 C 
BRANCH  35  36
ATOM     36  C   UNL     1       3.831  -3.563  -2.028  0.00  0.00    -0.060 C 
BRANCH  36  37
ATOM     37  N   UNL     1       4.076  -3.367  -3.463  0.00  0.00    +0.377 N 
ATOM     38  C   UNL     1       2.927  -3.868  -4.229  0.00  0.00    -0.097 C 
ATOM     39  C   UNL     1       4.261  -1.936  -3.737  0.00  0.00    -0.097 C 
ATOM     40  H   UNL     1       4.907  -3.871  -3.734  0.00  0.00    -0.083 HD
ENDBRANCH  36  37
ENDBRANCH  35  36
ENDBRANCH  22  35
ENDBRANCH   1  22
TORSDOF 7
