REMARK  Name = ZINC34740327
REMARK  17 active torsions:
REMARK  status: ('A' for Active; 'I' for Inactive)
REMARK    1  A    between atoms: C_1  and  C_2
REMARK    2  A    between atoms: C_2  and  C_3
REMARK    3  A    between atoms: C_2  and  C_4
REMARK    4  A    between atoms: C_4  and  N_5
REMARK    5  A    between atoms: N_5  and  C_6
REMARK    6  A    between atoms: C_6  and  C_7
REMARK    7  A    between atoms: N_10  and  C_22
REMARK    8  A    between atoms: C_12  and  C_14
REMARK    9  A    between atoms: C_18  and  O_20
REMARK   10  A    between atoms: O_20  and  C_21
REMARK   11  A    between atoms: C_22  and  C_23
REMARK   12  A    between atoms: C_26  and  N_29
REMARK   13  A    between atoms: N_29  and  C_30
REMARK   14  A    between atoms: N_29  and  C_31
REMARK   15  A    between atoms: C_32  and  C_34
REMARK   16  A    between atoms: C_34  and  O_35
REMARK   17  A    between atoms: O_35  and  C_36
REMARK                            x       y       z     vdW  Elec       q    Type
REMARK                         _______ _______ _______ _____ _____    ______ ____
ROOT
ATOM      1  C   UNL     1      -2.801  -3.123   1.546  0.00  0.00    -0.005 C 
ATOM      2  C   UNL     1      -3.506  -4.075   0.548  0.00  0.00    -0.073 C 
ATOM      3  N   UNL     1      -4.539  -4.740   1.384  0.00  0.00    +0.383 N 
ATOM      4  C   UNL     1      -3.898  -4.990   2.693  0.00  0.00    -0.070 C 
ATOM      5  C   UNL     1      -2.775  -3.945   2.855  0.00  0.00    +0.005 C 
ATOM      6  H   UNL     1      -5.337  -4.134   1.498  0.00  0.00    -0.081 HD
ENDROOT
BRANCH   5   7
ATOM      7  C   UNL     1      -3.050  -3.053   4.038  0.00  0.00    -0.042 A 
ATOM      8  C   UNL     1      -4.247  -2.365   4.121  0.00  0.00    +0.004 A 
ATOM      9  C   UNL     1      -4.503  -1.546   5.205  0.00  0.00    +0.004 A 
ATOM     10  C   UNL     1      -3.563  -1.414   6.209  0.00  0.00    +0.045 A 
ATOM     11  C   UNL     1      -2.362  -2.103   6.129  0.00  0.00    +0.120 A 
ATOM     12  C   UNL     1      -2.110  -2.929   5.043  0.00  0.00    +0.049 A 
BRANCH  11  13
ATOM     13  O   UNL     1      -1.437  -1.974   7.115  0.00  0.00    -0.495 OA
ATOM     14  C   UNL     1      -1.766  -1.112   8.206  0.00  0.00    +0.277 C 
ENDBRANCH  11  13
ENDBRANCH   5   7
BRANCH   1  15
ATOM     15  C   UNL     1      -1.380  -2.803   1.078  0.00  0.00    +0.110 C 
BRANCH  15  16
ATOM     16  N   UNL     1      -1.438  -1.973  -0.128  0.00  0.00    -0.299 N 
ATOM     17  C   UNL     1      -1.467  -2.554  -1.344  0.00  0.00    +0.241 C 
ATOM     18  O   UNL     1      -1.444  -3.762  -1.440  0.00  0.00    -0.273 OA
BRANCH  16  19
ATOM     19  C   UNL     1      -1.466  -0.513  -0.012  0.00  0.00    +0.110 C 
BRANCH  19  21
ATOM     20  C   UNL     1      -0.065   1.556  -0.025  0.00  0.00    +0.009 C 
ATOM     21  C   UNL     1      -0.034   0.026  -0.020  0.00  0.00    +0.000 C 
ATOM     22  C   UNL     1       0.703  -0.465   1.228  0.00  0.00    +0.009 C 
ENDBRANCH  19  21
ENDBRANCH  16  19
BRANCH  17  23
ATOM     23  C   UNL     1      -1.526  -1.700  -2.585  0.00  0.00    +0.255 C 
BRANCH  23  24
ATOM     24  O   UNL     1      -1.547  -2.541  -3.740  0.00  0.00    -0.374 OA
ATOM     25  C   UNL     1      -1.604  -1.827  -4.977  0.00  0.00    +0.194 C 
ENDBRANCH  23  24
ENDBRANCH  17  23
ENDBRANCH  15  16
ENDBRANCH   1  15
BRANCH   3  26
ATOM     26  C   UNL     1      -4.947  -6.010   0.769  0.00  0.00    -0.043 C 
BRANCH  26  27
ATOM     27  C   UNL     1      -6.080  -6.610   1.562  0.00  0.00    -0.064 A 
ATOM     28  C   UNL     1      -5.807  -7.467   2.614  0.00  0.00    +0.003 A 
ATOM     29  C   UNL     1      -6.842  -8.019   3.342  0.00  0.00    +0.023 A 
ATOM     30  C   UNL     1      -8.158  -7.713   3.018  0.00  0.00    +0.029 A 
ATOM     31  C   UNL     1      -8.428  -6.853   1.962  0.00  0.00    +0.023 A 
ATOM     32  C   UNL     1      -7.388  -6.300   1.241  0.00  0.00    +0.003 A 
BRANCH  30  33
ATOM     33  N   UNL     1      -9.207  -8.270   3.753  0.00  0.00    -0.336 N 
ATOM     34  C   UNL     1      -8.928  -9.273   4.784  0.00  0.00    +0.129 C 
ATOM     35  C   UNL     1     -10.587  -7.851   3.493  0.00  0.00    +0.129 C 
ENDBRANCH  30  33
ENDBRANCH  26  27
ENDBRANCH   3  26
TORSDOF 11
