REMARK  Name = ZINC39911502
REMARK  12 active torsions:
REMARK  status: ('A' for Active; 'I' for Inactive)
REMARK    1  A    between atoms: C_1  and  C_2
REMARK    2  A    between atoms: C_2  and  C_3
REMARK    3  A    between atoms: C_3  and  O_4
REMARK    4  A    between atoms: O_4  and  C_5
REMARK    5  A    between atoms: C_8  and  C_11
REMARK    6  A    between atoms: C_14  and  C_25
REMARK    7  A    between atoms: N_21  and  C_22
REMARK    8  A    between atoms: C_22  and  C_23
REMARK    9  A    between atoms: C_23  and  O_24
REMARK   10  A    between atoms: C_27  and  C_33
REMARK   11  A    between atoms: C_29  and  C_32
REMARK   12  A    between atoms: C_30  and  O_31
REMARK                            x       y       z     vdW  Elec       q    Type
REMARK                         _______ _______ _______ _____ _____    ______ ____
ROOT
ATOM      1  C   UNL     1       3.389  -4.334  -5.588  0.00  0.00    +0.141 C 
ATOM      2  C   UNL     1       2.288  -4.721  -6.537  0.00  0.00    +0.035 A 
ATOM      3  C   UNL     1       1.247  -4.298  -7.371  0.00  0.00    +0.102 A 
ATOM      4  N   UNL     1       0.708  -5.376  -7.906  0.00  0.00    -0.173 NA
ATOM      5  N   UNL     1       1.305  -6.437  -7.493  0.00  0.00    -0.272 N 
ATOM      6  H   UNL     1       1.078  -7.342  -7.755  0.00  0.00    +0.189 HD
ATOM      7  C   UNL     1       2.308  -6.099  -6.629  0.00  0.00    +0.126 A 
ATOM      8  C   UNL     1       3.385  -6.608  -5.772  0.00  0.00    +0.266 C 
ATOM      9  O   UNL     1       3.664  -7.784  -5.633  0.00  0.00    -0.268 OA
ATOM     10  N   UNL     1       4.021  -5.590  -5.162  0.00  0.00    -0.283 N 
ENDROOT
BRANCH   3  11
ATOM     11  C   UNL     1       0.827  -2.895  -7.609  0.00  0.00    +0.044 A 
ATOM     12  C   UNL     1       1.568  -1.843  -7.077  0.00  0.00    +0.017 A 
ATOM     13  C   UNL     1       1.173  -0.539  -7.301  0.00  0.00    -0.049 A 
ATOM     14  C   UNL     1       0.043  -0.274  -8.053  0.00  0.00    +0.010 A 
ATOM     15  C   UNL     1      -0.701  -1.310  -8.585  0.00  0.00    -0.008 A 
ATOM     16  C   UNL     1      -0.312  -2.623  -8.373  0.00  0.00    +0.129 A 
ATOM     17  C   UNL     1      -1.931  -1.012  -9.402  0.00  0.00    +0.047 C 
ATOM     18  C   UNL     1       1.976   0.598  -6.725  0.00  0.00    +0.044 C 
BRANCH  16  19
ATOM     19  O   UNL     1      -1.038  -3.643  -8.901  0.00  0.00    -0.506 OA
ATOM     20  H   UNL     1      -1.744  -3.963  -8.323  0.00  0.00    +0.292 HD
ENDBRANCH  16  19
ENDBRANCH   3  11
BRANCH   1  24
ATOM     21  C   UNL     1       1.766  -2.285  -2.207  0.00  0.00    +0.121 A 
ATOM     22  C   UNL     1       1.489  -3.630  -2.403  0.00  0.00    +0.046 A 
ATOM     23  C   UNL     1       2.015  -4.290  -3.497  0.00  0.00    +0.009 A 
ATOM     24  C   UNL     1       2.816  -3.611  -4.396  0.00  0.00    -0.022 A 
ATOM     25  C   UNL     1       3.094  -2.271  -4.202  0.00  0.00    +0.009 A 
ATOM     26  C   UNL     1       2.566  -1.605  -3.114  0.00  0.00    +0.046 A 
BRANCH  21  27
ATOM     27  O   UNL     1       1.249  -1.633  -1.132  0.00  0.00    -0.492 OA
BRANCH  27  28
ATOM     28  C   UNL     1       0.434  -2.397  -0.241  0.00  0.00    +0.229 C 
BRANCH  28  30
ATOM     29  C   UNL     1      -0.925  -2.318   1.854  0.00  0.00    +0.007 C 
ATOM     30  C   UNL     1      -0.053  -1.500   0.900  0.00  0.00    +0.038 C 
ENDBRANCH  28  30
ENDBRANCH  27  28
ENDBRANCH  21  27
ENDBRANCH   1  24
BRANCH  10  31
ATOM     31  C   UNL     1       5.147  -5.712  -4.234  0.00  0.00    +0.137 C 
BRANCH  31  32
ATOM     32  C   UNL     1       4.619  -5.981  -2.823  0.00  0.00    +0.175 C 
BRANCH  32  33
ATOM     33  O   UNL     1       3.973  -7.255  -2.792  0.00  0.00    -0.393 OA
ATOM     34  H   UNL     1       3.613  -7.492  -1.926  0.00  0.00    +0.209 HD
ENDBRANCH  32  33
ENDBRANCH  31  32
ENDBRANCH  10  31
TORSDOF 9
