REMARK  Name = ZINC32769972
REMARK  6 active torsions:
REMARK  status: ('A' for Active; 'I' for Inactive)
REMARK    1  A    between atoms: C_7  and  C_11
REMARK    2  A    between atoms: N_14  and  C_17
REMARK    3  A    between atoms: C_17  and  C_18
REMARK    4  A    between atoms: N_20  and  C_21
REMARK    5  A    between atoms: C_26  and  O_27
REMARK    6  A    between atoms: O_27  and  C_28
REMARK                            x       y       z     vdW  Elec       q    Type
REMARK                         _______ _______ _______ _____ _____    ______ ____
ROOT
ATOM      1  C   UNL     1       8.277   3.803  -0.071  0.00  0.00    -0.046 C 
ATOM      2  C   UNL     1       7.319   3.966   0.817  0.00  0.00    -0.041 C 
ATOM      3  C   UNL     1       6.113   3.074   0.892  0.00  0.00    -0.050 C 
ATOM      4  N   UNL     1       5.964   2.314  -0.355  0.00  0.00    +0.388 N 
ATOM      5  C   UNL     1       7.229   1.644  -0.698  0.00  0.00    -0.073 C 
ATOM      6  C   UNL     1       8.251   2.710  -1.103  0.00  0.00    +0.017 C 
ATOM      7  H   UNL     1       5.712   3.018  -1.161  0.00  0.00    -0.081 HD
ENDROOT
BRANCH   1  14
ATOM      8  C   UNL     1       8.806   8.245  -1.433  0.00  0.00    +0.001 A 
ATOM      9  C   UNL     1      10.092   8.720  -1.220  0.00  0.00    +0.002 A 
ATOM     10  C   UNL     1      11.056   7.909  -0.662  0.00  0.00    +0.026 A 
ATOM     11  C   UNL     1      10.739   6.601  -0.308  0.00  0.00    +0.047 A 
ATOM     12  C   UNL     1       9.434   6.127  -0.527  0.00  0.00    +0.007 A 
ATOM     13  C   UNL     1       8.474   6.964  -1.092  0.00  0.00    +0.010 A 
ATOM     14  C   UNL     1       9.424   4.732  -0.054  0.00  0.00    +0.003 A 
ATOM     15  C   UNL     1      10.674   4.469   0.407  0.00  0.00    +0.091 A 
ATOM     16  N   UNL     1      11.463   5.572   0.254  0.00  0.00    -0.360 N 
ATOM     17  H   UNL     1      12.523   5.720   0.508  0.00  0.00    +0.165 HD
ENDBRANCH   1  14
BRANCH   4  18
ATOM     18  C   UNL     1       4.866   1.344  -0.252  0.00  0.00    +0.019 C 
BRANCH  18  19
ATOM     19  C   UNL     1       3.557   2.079  -0.122  0.00  0.00    +0.201 C 
ATOM     20  O   UNL     1       3.541   3.292  -0.116  0.00  0.00    -0.278 OA
ATOM     21  N   UNL     1       2.404   1.390  -0.013  0.00  0.00    -0.284 N 
ATOM     22  H   UNL     1       2.425   0.293   0.072  0.00  0.00    +0.155 HD
BRANCH  21  23
ATOM     23  C   UNL     1       1.179   2.069  -0.009  0.00  0.00    +0.076 A 
ATOM     24  C   UNL     1       1.073   3.316  -0.609  0.00  0.00    +0.027 A 
ATOM     25  C   UNL     1      -0.137   3.984  -0.604  0.00  0.00    +0.002 A 
ATOM     26  C   UNL     1      -1.244   3.413  -0.003  0.00  0.00    +0.004 A 
ATOM     27  C   UNL     1      -1.147   2.169   0.592  0.00  0.00    +0.048 A 
ATOM     28  C   UNL     1       0.064   1.495   0.596  0.00  0.00    +0.148 A 
BRANCH  28  29
ATOM     29  O   UNL     1       0.162   0.273   1.185  0.00  0.00    -0.432 OA
BRANCH  29  30
ATOM     30  C   UNL     1      -1.023  -0.254   1.786  0.00  0.00    +0.541 C 
ATOM     31  F   UNL     1      -1.461   0.614   2.792  0.00  0.00    -0.166 F 
ATOM     32  F   UNL     1      -2.021  -0.384   0.814  0.00  0.00    -0.166 F 
ENDBRANCH  29  30
ENDBRANCH  28  29
ENDBRANCH  21  23
ENDBRANCH  18  19
ENDBRANCH   4  18
TORSDOF 6
