REMARK  Name = ZINC16249321
REMARK  11 active torsions:
REMARK  status: ('A' for Active; 'I' for Inactive)
REMARK    1  A    between atoms: C_1  and  C_2
REMARK    2  A    between atoms: C_3  and  C_15
REMARK    3  A    between atoms: C_4  and  O_14
REMARK    4  A    between atoms: N_5  and  C_7
REMARK    5  A    between atoms: C_15  and  C_16
REMARK    6  A    between atoms: C_15  and  C_25
REMARK    7  A    between atoms: C_19  and  O_24
REMARK    8  A    between atoms: C_20  and  O_22
REMARK    9  A    between atoms: O_22  and  C_23
REMARK   10  A    between atoms: C_26  and  C_38
REMARK   11  A    between atoms: N_28  and  C_31
REMARK                            x       y       z     vdW  Elec       q    Type
REMARK                         _______ _______ _______ _____ _____    ______ ____
ROOT
ATOM      1  C   UNL     1      -0.283  -0.327  -2.471  0.00  0.00    +0.093 C 
ENDROOT
BRANCH   1   2
ATOM      2  C   UNL     1       0.912  -0.650  -3.330  0.00  0.00    +0.051 A 
ATOM      3  C   UNL     1       1.675   0.242  -3.992  0.00  0.00    +0.039 A 
ATOM      4  N   UNL     1       2.657  -0.437  -4.656  0.00  0.00    -0.294 N 
ATOM      5  N   UNL     1       2.496  -1.804  -4.395  0.00  0.00    -0.219 N 
ATOM      6  C   UNL     1       1.431  -1.942  -3.578  0.00  0.00    +0.276 A 
ATOM      7  O   UNL     1       0.995  -2.990  -3.137  0.00  0.00    -0.266 OA
ATOM      8  C   UNL     1       1.478   1.736  -3.999  0.00  0.00    +0.065 C 
ATOM      9  H   UNL     1       3.347  -0.041  -5.212  0.00  0.00    +0.187 HD
BRANCH   5  10
ATOM     10  C   UNL     1       3.298  -2.840  -4.888  0.00  0.00    +0.067 A 
ATOM     11  C   UNL     1       3.018  -4.157  -4.551  0.00  0.00    +0.030 A 
ATOM     12  C   UNL     1       3.811  -5.177  -5.039  0.00  0.00    +0.040 A 
ATOM     13  C   UNL     1       4.885  -4.887  -5.863  0.00  0.00    +0.124 A 
ATOM     14  C   UNL     1       5.167  -3.574  -6.200  0.00  0.00    +0.040 A 
ATOM     15  C   UNL     1       4.372  -2.551  -5.719  0.00  0.00    +0.030 A 
ATOM     16  F   UNL     1       5.660  -5.886  -6.339  0.00  0.00    -0.205 F 
ENDBRANCH   5  10
ENDBRANCH   1   2
BRANCH   1  19
ATOM     17  C   UNL     1       2.454  -0.738  -0.933  0.00  0.00    +0.068 C 
ATOM     18  C   UNL     1       1.091  -1.149  -0.436  0.00  0.00    +0.068 A 
ATOM     19  C   UNL     1      -0.116  -0.967  -1.117  0.00  0.00    +0.048 A 
ATOM     20  C   UNL     1      -1.113  -1.470  -0.341  0.00  0.00    +0.220 A 
ATOM     21  N   UNL     1      -0.542  -1.953   0.795  0.00  0.00    -0.200 N 
ATOM     22  N   UNL     1       0.839  -1.742   0.703  0.00  0.00    -0.168 NA
BRANCH  21  23
ATOM     23  C   UNL     1      -1.217  -2.558   1.865  0.00  0.00    +0.069 A 
ATOM     24  C   UNL     1      -2.486  -2.124   2.222  0.00  0.00    +0.031 A 
ATOM     25  C   UNL     1      -3.148  -2.722   3.276  0.00  0.00    +0.040 A 
ATOM     26  C   UNL     1      -2.547  -3.754   3.977  0.00  0.00    +0.124 A 
ATOM     27  C   UNL     1      -1.281  -4.189   3.622  0.00  0.00    +0.040 A 
ATOM     28  C   UNL     1      -0.618  -3.597   2.565  0.00  0.00    +0.031 A 
ATOM     29  F   UNL     1      -3.196  -4.338   5.008  0.00  0.00    -0.205 F 
ENDBRANCH  21  23
BRANCH  20  30
ATOM     30  O   UNL     1      -2.436  -1.486  -0.644  0.00  0.00    -0.492 OA
ATOM     31  H   UNL     1      -2.740  -2.316  -1.035  0.00  0.00    +0.294 HD
ENDBRANCH  20  30
ENDBRANCH   1  19
BRANCH   1  32
ATOM     32  C   UNL     1      -1.532  -0.858  -3.127  0.00  0.00    -0.031 A 
ATOM     33  C   UNL     1      -1.734  -2.222  -3.222  0.00  0.00    +0.008 A 
ATOM     34  C   UNL     1      -2.878  -2.714  -3.823  0.00  0.00    +0.049 A 
ATOM     35  C   UNL     1      -3.825  -1.839  -4.331  0.00  0.00    +0.158 A 
ATOM     36  C   UNL     1      -3.622  -0.466  -4.234  0.00  0.00    +0.162 A 
ATOM     37  C   UNL     1      -2.475   0.020  -3.627  0.00  0.00    +0.054 A 
BRANCH  36  38
ATOM     38  O   UNL     1      -4.548   0.396  -4.731  0.00  0.00    -0.491 OA
ATOM     39  C   UNL     1      -4.272   1.792  -4.598  0.00  0.00    +0.277 C 
ENDBRANCH  36  38
BRANCH  35  40
ATOM     40  O   UNL     1      -4.951  -2.322  -4.922  0.00  0.00    -0.503 OA
ATOM     41  H   UNL     1      -5.689  -2.455  -4.313  0.00  0.00    +0.292 HD
ENDBRANCH  35  40
ENDBRANCH   1  32
TORSDOF 8
