REMARK  Name = ZINC38979427
REMARK  4 active torsions:
REMARK  status: ('A' for Active; 'I' for Inactive)
REMARK    1  A    between atoms: C_3  and  C_9
REMARK    2  A    between atoms: C_4  and  O_8
REMARK    3  A    between atoms: C_6  and  O_7
REMARK    4  A    between atoms: N_10  and  N_11
REMARK                            x       y       z     vdW  Elec       q    Type
REMARK                         _______ _______ _______ _____ _____    ______ ____
ROOT
ATOM      1  N   UNL     1       5.988   2.256  -0.044  0.00  0.00    -0.206 N 
ATOM      2  C   UNL     1       7.192   1.583  -0.059  0.00  0.00    +0.227 C 
ATOM      3  N   UNL     1       7.168   0.271  -0.071  0.00  0.00    -0.220 NA
ATOM      4  C   UNL     1       8.445  -0.432  -0.167  0.00  0.00    +0.253 C 
ATOM      5  C   UNL     1       9.485   0.482   0.466  0.00  0.00    +0.115 C 
ATOM      6  C   UNL     1      10.181  -0.303   1.334  0.00  0.00    +0.026 A 
ATOM      7  C   UNL     1      11.328  -0.058   2.129  0.00  0.00    +0.027 A 
ATOM      8  C   UNL     1      11.773  -1.075   2.917  0.00  0.00    +0.019 A 
ATOM      9  C   UNL     1      11.170  -2.335   2.989  0.00  0.00    +0.017 A 
ATOM     10  C   UNL     1      10.071  -2.683   2.268  0.00  0.00    +0.027 A 
ATOM     11  C   UNL     1       9.523  -1.645   1.378  0.00  0.00    +0.046 A 
ATOM     12  N   UNL     1       8.511  -1.688   0.566  0.00  0.00    -0.358 N 
ATOM     13 BR   UNL     1      13.303  -0.763   3.983  0.00  0.00    -0.050 Br
ATOM     14  N   UNL     1       9.487   1.797   0.230  0.00  0.00    -0.171 NA
ATOM     15  N   UNL     1       8.332   2.315  -0.066  0.00  0.00    -0.247 N 
ATOM     16  H   UNL     1       5.974   3.226  -0.039  0.00  0.00    +0.177 HD
ATOM     17  H   UNL     1       8.284   3.256  -0.297  0.00  0.00    +0.192 HD
ATOM     18  H   UNL     1       7.898  -2.433   0.466  0.00  0.00    +0.162 HD
ENDROOT
BRANCH   1  20
ATOM     19  C   UNL     1       3.651   2.171  -0.022  0.00  0.00    +0.142 C 
ATOM     20  N   UNL     1       4.785   1.538  -0.036  0.00  0.00    -0.187 NA
BRANCH  19  23
ATOM     21  C   UNL     1      -0.017   1.385   0.010  0.00  0.00    +0.046 A 
ATOM     22  C   UNL     1       1.165   2.095   0.002  0.00  0.00    +0.016 A 
ATOM     23  C   UNL     1       2.386   1.417  -0.013  0.00  0.00    +0.036 A 
ATOM     24  C   UNL     1       2.402   0.014  -0.021  0.00  0.00    +0.129 A 
ATOM     25  C   UNL     1       1.210  -0.687  -0.013  0.00  0.00    +0.091 A 
ATOM     26  C   UNL     1       0.002  -0.004   0.002  0.00  0.00    +0.120 A 
BRANCH  26  27
ATOM     27  O   UNL     1      -1.167  -0.697   0.010  0.00  0.00    -0.507 OA
ATOM     28  H   UNL     1      -1.514  -0.892  -0.871  0.00  0.00    +0.292 HD
ENDBRANCH  26  27
BRANCH  24  29
ATOM     29  O   UNL     1       3.585  -0.653  -0.036  0.00  0.00    -0.506 OA
ATOM     30  H   UNL     1       3.936  -0.851   0.843  0.00  0.00    +0.292 HD
ENDBRANCH  24  29
ENDBRANCH  19  23
ENDBRANCH   1  20
TORSDOF 4
