REMARK  Name = ZINC58845775
REMARK  8 active torsions:
REMARK  status: ('A' for Active; 'I' for Inactive)
REMARK    1  A    between atoms: C_1  and  C_2
REMARK    2  A    between atoms: C_7  and  N_8
REMARK    3  A    between atoms: N_8  and  S_9
REMARK    4  A    between atoms: S_9  and  C_12
REMARK    5  A    between atoms: C_25  and  C_28
REMARK    6  A    between atoms: C_31  and  O_37
REMARK    7  A    between atoms: C_32  and  N_34
REMARK    8  A    between atoms: O_37  and  C_38
REMARK                            x       y       z     vdW  Elec       q    Type
REMARK                         _______ _______ _______ _____ _____    ______ ____
ROOT
ATOM      1  C   UNL     1       2.500  -0.640   3.443  0.00  0.00    +0.109 A 
ATOM      2  C   UNL     1       3.115  -1.709   2.816  0.00  0.00    +0.030 A 
ATOM      3  C   UNL     1       4.476  -1.679   2.590  0.00  0.00    +0.025 A 
ATOM      4  C   UNL     1       5.227  -0.579   2.990  0.00  0.00    +0.031 A 
ATOM      5  C   UNL     1       4.610   0.498   3.607  0.00  0.00    -0.018 A 
ATOM      6  C   UNL     1       3.241   0.457   3.832  0.00  0.00    +0.034 A 
ATOM      7  C   UNL     1       5.375   1.712   4.014  0.00  0.00    +0.049 C 
ATOM      8  C   UNL     1       5.619   1.757   5.501  0.00  0.00    -0.023 C 
ATOM      9  C   UNL     1       6.797   2.272   5.751  0.00  0.00    -0.030 C 
ATOM     10  C   UNL     1       7.510   2.639   4.467  0.00  0.00    +0.033 C 
ATOM     11  C   UNL     1       6.761   1.829   3.384  0.00  0.00    +0.029 C 
ATOM     12  C   UNL     1       7.468   0.500   3.215  0.00  0.00    +0.105 C 
ATOM     13  N   UNL     1       6.600  -0.572   2.773  0.00  0.00    -0.336 N 
ATOM     14  H   UNL     1       6.999  -1.333   2.323  0.00  0.00    +0.147 HD
ENDROOT
BRANCH  12  15
ATOM     15  C   UNL     1       8.106   0.126   4.528  0.00  0.00    -0.025 A 
ATOM     16  C   UNL     1       7.340  -0.440   5.531  0.00  0.00    +0.009 A 
ATOM     17  C   UNL     1       7.922  -0.783   6.736  0.00  0.00    +0.048 A 
ATOM     18  C   UNL     1       9.276  -0.560   6.939  0.00  0.00    +0.150 A 
ATOM     19  C   UNL     1      10.042   0.007   5.931  0.00  0.00    +0.168 A 
ATOM     20  C   UNL     1       9.456   0.345   4.726  0.00  0.00    +0.042 A 
BRANCH  19  21
ATOM     21  N   UNL     1      11.487   0.247   6.145  0.00  0.00    +0.060 N 
ATOM     22  O   UNL     1      12.154   0.742   5.267  0.00  0.00    -0.126 OA
ATOM     23  O   UNL     1      12.000  -0.051   7.198  0.00  0.00    -0.126 OA
ENDBRANCH  19  21
BRANCH  18  24
ATOM     24  O   UNL     1       9.851  -0.896   8.124  0.00  0.00    -0.493 OA
ATOM     25  C   UNL     1       9.002  -1.476   9.116  0.00  0.00    +0.277 C 
ENDBRANCH  18  24
ENDBRANCH  12  15
BRANCH   1  26
ATOM     26  S   UNL     1       0.764  -0.678   3.741  0.00  0.00    +0.072 S 
ATOM     27  O   UNL     1       0.519   0.207   4.826  0.00  0.00    -0.150 OA
ATOM     28  O   UNL     1       0.387  -2.047   3.775  0.00  0.00    -0.150 OA
BRANCH  26  29
ATOM     29  N   UNL     1       0.025  -0.016   2.415  0.00  0.00    -0.216 N 
ATOM     30  H   UNL     1      -0.522   0.779   2.511  0.00  0.00    +0.174 HD
BRANCH  29  37
ATOM     31  C   UNL     1       0.153   1.691   0.143  0.00  0.00    +0.046 C 
ATOM     32  C   UNL     1       0.258   0.193   0.022  0.00  0.00    -0.028 A 
ATOM     33  C   UNL     1       0.426  -0.391  -1.218  0.00  0.00    +0.005 A 
ATOM     34  C   UNL     1       0.522  -1.765  -1.331  0.00  0.00    +0.000 A 
ATOM     35  C   UNL     1       0.450  -2.561  -0.202  0.00  0.00    +0.002 A 
ATOM     36  C   UNL     1       0.282  -1.984   1.042  0.00  0.00    +0.025 A 
ATOM     37  C   UNL     1       0.190  -0.603   1.159  0.00  0.00    +0.051 A 
ENDBRANCH  29  37
ENDBRANCH  26  29
ENDBRANCH   1  26
TORSDOF 6
