REMARK  Name = ZINC58918679
REMARK  6 active torsions:
REMARK  status: ('A' for Active; 'I' for Inactive)
REMARK    1  A    between atoms: C_1  and  C_2
REMARK    2  A    between atoms: C_2  and  C_3
REMARK    3  A    between atoms: C_3  and  C_5
REMARK    4  A    between atoms: C_3  and  N_14
REMARK    5  A    between atoms: C_10  and  C_13
REMARK    6  A    between atoms: C_18  and  C_21
REMARK                            x       y       z     vdW  Elec       q    Type
REMARK                         _______ _______ _______ _____ _____    ______ ____
ROOT
ATOM      1  N   UNL     1      -1.860   0.156   1.335  0.00  0.00    +0.388 N 
ATOM      2  C   UNL     1      -3.303   0.063   1.585  0.00  0.00    -0.078 C 
ATOM      3  C   UNL     1      -3.636   0.723   2.925  0.00  0.00    -0.018 C 
ATOM      4  C   UNL     1      -3.218   2.196   2.881  0.00  0.00    +0.007 C 
ATOM      5  C   UNL     1      -1.726   2.283   2.545  0.00  0.00    +0.040 C 
ATOM      6  C   UNL     1      -1.464   1.565   1.219  0.00  0.00    -0.067 C 
ATOM      7  H   UNL     1      -1.359  -0.271   2.100  0.00  0.00    -0.081 HD
ENDROOT
BRANCH   5   8
ATOM      8  C   UNL     1      -1.321   3.729   2.424  0.00  0.00    +0.135 A 
ATOM      9  N   UNL     1      -1.808   4.604   1.584  0.00  0.00    -0.134 NA
ATOM     10  N   UNL     1      -1.238   5.744   1.764  0.00  0.00    -0.134 NA
ATOM     11  C   UNL     1      -0.366   5.647   2.727  0.00  0.00    +0.133 A 
ATOM     12  N   UNL     1      -0.390   4.367   3.167  0.00  0.00    -0.315 N 
ATOM     13  C   UNL     1       0.443   3.794   4.225  0.00  0.00    +0.125 C 
ATOM     14  C   UNL     1       0.823   4.891   5.223  0.00  0.00    +0.022 C 
ATOM     15  C   UNL     1       2.119   5.565   4.779  0.00  0.00    +0.002 C 
ATOM     16  C   UNL     1       1.939   6.223   3.414  0.00  0.00    +0.008 C 
ATOM     17  C   UNL     1       0.510   6.743   3.276  0.00  0.00    +0.076 C 
ENDBRANCH   5   8
BRANCH   1  18
ATOM     18  C   UNL     1      -1.534  -0.546   0.087  0.00  0.00    +0.019 C 
BRANCH  18  19
ATOM     19  C   UNL     1      -2.170   0.173  -1.075  0.00  0.00    +0.205 C 
ATOM     20  O   UNL     1      -3.053   0.981  -0.878  0.00  0.00    -0.277 OA
ATOM     21  N   UNL     1      -1.758  -0.082  -2.333  0.00  0.00    -0.269 N 
ATOM     22  C   UNL     1      -2.347   0.584  -3.408  0.00  0.00    +0.168 A 
ATOM     23  C   UNL     1      -3.375   1.549  -3.326  0.00  0.00    +0.091 A 
ATOM     24  C   UNL     1      -3.669   1.954  -4.574  0.00  0.00    +0.136 A 
ATOM     25  O   UNL     1      -2.874   1.288  -5.427  0.00  0.00    -0.358 OA
ATOM     26  N   UNL     1      -2.040   0.430  -4.670  0.00  0.00    -0.063 NA
ATOM     27  C   UNL     1      -4.709   2.977  -4.951  0.00  0.00    +0.089 C 
ATOM     28  H   UNL     1      -1.052  -0.728  -2.490  0.00  0.00    +0.156 HD
ENDBRANCH  18  19
BRANCH  18  30
ATOM     29  C   UNL     1      -1.378  -2.728   1.296  0.00  0.00    +0.002 C 
ATOM     30  C   UNL     1      -2.068  -1.979   0.153  0.00  0.00    -0.010 C 
ENDBRANCH  18  30
ENDBRANCH   1  18
TORSDOF 4
