REMARK  Name = ZINC56637043
REMARK  6 active torsions:
REMARK  status: ('A' for Active; 'I' for Inactive)
REMARK    1  A    between atoms: C_4  and  O_21
REMARK    2  A    between atoms: C_5  and  N_7
REMARK    3  A    between atoms: C_14  and  C_16
REMARK    4  A    between atoms: O_21  and  C_22
REMARK    5  A    between atoms: C_22  and  C_23
REMARK    6  A    between atoms: C_23  and  C_24
REMARK                            x       y       z     vdW  Elec       q    Type
REMARK                         _______ _______ _______ _____ _____    ______ ____
ROOT
ATOM      1  C   UNL     1       0.152   1.372   0.645  0.00  0.00    +0.002 A 
ATOM      2  C   UNL     1       1.170   2.089   0.044  0.00  0.00    +0.004 A 
ATOM      3  C   UNL     1       2.211   1.428  -0.580  0.00  0.00    +0.047 A 
ATOM      4  C   UNL     1       2.237   0.043  -0.605  0.00  0.00    +0.142 A 
ATOM      5  C   UNL     1       1.212  -0.680  -0.000  0.00  0.00    +0.077 A 
ATOM      6  C   UNL     1       0.171  -0.010   0.624  0.00  0.00    +0.027 A 
ENDROOT
BRANCH   5   7
ATOM      7  N   UNL     1       1.233  -2.081  -0.023  0.00  0.00    -0.266 N 
ATOM      8  C   UNL     1       0.082  -2.774   0.088  0.00  0.00    +0.307 C 
ATOM      9  O   UNL     1      -0.982  -2.186   0.103  0.00  0.00    -0.252 OA
ATOM     10  N   UNL     1       0.111  -4.118   0.180  0.00  0.00    -0.282 N 
ATOM     11  C   UNL     1       1.326  -4.946   0.286  0.00  0.00    +0.110 C 
ATOM     12  C   UNL     1       0.857  -6.254   0.971  0.00  0.00    +0.021 C 
ATOM     13  C   UNL     1      -0.548  -6.449   0.341  0.00  0.00    +0.024 C 
ATOM     14  C   UNL     1      -1.064  -5.001   0.199  0.00  0.00    +0.081 C 
ATOM     15  H   UNL     1       2.075  -2.552  -0.118  0.00  0.00    +0.156 HD
BRANCH  14  16
ATOM     16  C   UNL     1      -1.845  -4.856  -1.109  0.00  0.00    +0.010 C 
ATOM     17  C   UNL     1      -3.040  -5.833  -1.122  0.00  0.00    +0.005 C 
ATOM     18  C   UNL     1      -3.124  -6.310  -2.593  0.00  0.00    +0.000 C 
ATOM     19  C   UNL     1      -1.634  -6.435  -2.998  0.00  0.00    +0.000 C 
ATOM     20  C   UNL     1      -0.952  -5.239  -2.301  0.00  0.00    +0.005 C 
ENDBRANCH  14  16
ENDBRANCH   5   7
BRANCH   4  21
ATOM     21  O   UNL     1       3.261  -0.608  -1.219  0.00  0.00    -0.490 OA
BRANCH  21  22
ATOM     22  C   UNL     1       4.277   0.198  -1.819  0.00  0.00    +0.238 C 
BRANCH  22  23
ATOM     23  C   UNL     1       5.335  -0.704  -2.455  0.00  0.00    +0.136 C 
BRANCH  23  24
ATOM     24  C   UNL     1       6.407   0.146  -3.087  0.00  0.00    +0.214 C 
ATOM     25  O   UNL     1       6.331   1.356  -3.034  0.00  0.00    -0.276 OA
ATOM     26  N   UNL     1       7.449  -0.437  -3.712  0.00  0.00    -0.329 N 
ATOM     27  H   UNL     1       7.509  -1.404  -3.755  0.00  0.00    +0.145 HD
ATOM     28  H   UNL     1       8.138   0.111  -4.119  0.00  0.00    +0.145 HD
ENDBRANCH  23  24
ENDBRANCH  22  23
ENDBRANCH  21  22
ENDBRANCH   4  21
TORSDOF 6
