REMARK  Name = ZINC40371960
REMARK  5 active torsions:
REMARK  status: ('A' for Active; 'I' for Inactive)
REMARK    1  A    between atoms: C_1  and  C_2
REMARK    2  A    between atoms: C_7  and  C_8
REMARK    3  A    between atoms: N_10  and  C_11
REMARK    4  A    between atoms: C_11  and  C_16
REMARK    5  A    between atoms: N_17  and  O_18
REMARK                            x       y       z     vdW  Elec       q    Type
REMARK                         _______ _______ _______ _____ _____    ______ ____
ROOT
ATOM      1  C   UNL     1      -0.171   0.358   4.736  0.00  0.00    +0.093 C 
ATOM      2  C   UNL     1       1.077   1.276   4.727  0.00  0.00    +0.033 C 
ATOM      3  C   UNL     1       2.209   0.318   5.173  0.00  0.00    +0.003 C 
ATOM      4  C   UNL     1       1.549  -0.575   6.244  0.00  0.00    +0.003 C 
ATOM      5  C   UNL     1       0.036  -0.550   5.966  0.00  0.00    +0.033 C 
ENDROOT
BRANCH   1   6
ATOM      6  C   UNL     1      -1.429   1.174   4.888  0.00  0.00    +0.155 C 
ATOM      7  N   UNL     1      -2.114   1.107   5.981  0.00  0.00    -0.075 NA
ATOM      8  N   UNL     1      -1.847   1.991   3.861  0.00  0.00    -0.342 N 
ATOM      9  H   UNL     1      -1.375   1.987   3.014  0.00  0.00    +0.144 HD
ATOM     10  H   UNL     1      -2.615   2.571   3.985  0.00  0.00    +0.144 HD
BRANCH   7  11
ATOM     11  O   UNL     1      -3.296   1.874   6.123  0.00  0.00    -0.408 OA
ATOM     12  H   UNL     1      -3.739   1.758   6.975  0.00  0.00    +0.328 HD
ENDBRANCH   7  11
ENDBRANCH   1   6
BRANCH   1  15
ATOM     13  C   UNL     1      -1.131  -1.435   3.395  0.00  0.00    +0.245 C 
ATOM     14  O   UNL     1      -1.958  -1.609   4.269  0.00  0.00    -0.270 OA
ATOM     15  N   UNL     1      -0.226  -0.444   3.511  0.00  0.00    -0.299 N 
ATOM     16  H   UNL     1       0.389  -0.261   2.783  0.00  0.00    +0.150 HD
BRANCH  13  23
ATOM     17  C   UNL     1      -3.186  -3.448   3.079  0.00  0.00    +0.044 C 
ATOM     18  C   UNL     1      -2.105  -3.286   2.041  0.00  0.00    -0.038 A 
ATOM     19  C   UNL     1      -2.091  -4.097   0.925  0.00  0.00    +0.004 A 
ATOM     20  C   UNL     1      -1.100  -3.949  -0.029  0.00  0.00    +0.000 A 
ATOM     21  C   UNL     1      -0.116  -2.989   0.130  0.00  0.00    +0.001 A 
ATOM     22  C   UNL     1      -0.119  -2.172   1.241  0.00  0.00    +0.013 A 
ATOM     23  C   UNL     1      -1.119  -2.312   2.204  0.00  0.00    +0.040 A 
ENDBRANCH  13  23
ENDBRANCH   1  15
TORSDOF 4
