REMARK  Name = ZINC41586418
REMARK  9 active torsions:
REMARK  status: ('A' for Active; 'I' for Inactive)
REMARK    1  A    between atoms: C_1  and  C_2
REMARK    2  A    between atoms: C_2  and  O_3
REMARK    3  A    between atoms: O_3  and  C_4
REMARK    4  A    between atoms: C_4  and  C_6
REMARK    5  A    between atoms: N_11  and  C_13
REMARK    6  A    between atoms: C_13  and  C_14
REMARK    7  A    between atoms: C_15  and  O_37
REMARK    8  A    between atoms: C_17  and  C_36
REMARK    9  A    between atoms: C_22  and  C_23
REMARK                            x       y       z     vdW  Elec       q    Type
REMARK                         _______ _______ _______ _____ _____    ______ ____
ROOT
ATOM      1  C   UNL     1       3.224  -5.608   5.096  0.00  0.00    +0.020 A 
ATOM      2  C   UNL     1       4.608  -5.645   5.028  0.00  0.00    +0.122 A 
ATOM      3  C   UNL     1       5.349  -6.294   6.011  0.00  0.00    +0.050 A 
ATOM      4  C   UNL     1       4.715  -6.902   7.058  0.00  0.00    -0.033 A 
ATOM      5  C   UNL     1       3.323  -6.873   7.141  0.00  0.00    +0.071 A 
ATOM      6  C   UNL     1       2.565  -6.217   6.157  0.00  0.00    +0.145 A 
ATOM      7  O   UNL     1       1.251  -6.318   6.453  0.00  0.00    -0.451 OA
ATOM      8  C   UNL     1       1.044  -7.007   7.599  0.00  0.00    +0.176 C 
ATOM      9  C   UNL     1      -0.159  -7.280   8.165  0.00  0.00    +0.061 C 
ATOM     10  C   UNL     1       2.359  -7.417   8.114  0.00  0.00    +0.232 C 
ATOM     11  O   UNL     1       2.599  -8.055   9.125  0.00  0.00    -0.283 OA
ATOM     12  C   UNL     1       5.520  -7.604   8.122  0.00  0.00    +0.045 C 
ENDROOT
BRANCH   9  13
ATOM     13  C   UNL     1      -1.387  -6.727   7.582  0.00  0.00    +0.022 A 
ATOM     14  C   UNL     1      -1.384  -6.233   6.272  0.00  0.00    +0.031 A 
ATOM     15  C   UNL     1      -2.541  -5.713   5.733  0.00  0.00    +0.042 A 
ATOM     16  C   UNL     1      -3.706  -5.674   6.483  0.00  0.00    +0.029 A 
ATOM     17  C   UNL     1      -3.724  -6.158   7.779  0.00  0.00    +0.022 A 
ATOM     18  C   UNL     1      -2.574  -6.694   8.334  0.00  0.00    +0.136 A 
ATOM     19  O   UNL     1      -2.581  -7.186   9.599  0.00  0.00    -0.465 OA
ATOM     20  C   UNL     1      -3.680  -6.810  10.434  0.00  0.00    +0.395 C 
ATOM     21  O   UNL     1      -4.896  -6.991   9.698  0.00  0.00    -0.339 OA
ATOM     22  C   UNL     1      -5.002  -6.102   8.577  0.00  0.00    +0.202 C 
ATOM     23 CL   UNL     1      -2.538  -5.103   4.108  0.00  0.00    -0.084 Cl
ENDBRANCH   9  13
BRANCH   2  24
ATOM     24  O   UNL     1       5.246  -5.043   3.991  0.00  0.00    -0.506 OA
ATOM     25  H   UNL     1       5.474  -4.118   4.154  0.00  0.00    +0.292 HD
ENDBRANCH   2  24
BRANCH   1  26
ATOM     26  C   UNL     1       2.435  -4.902   4.024  0.00  0.00    -0.036 C 
BRANCH  26  31
ATOM     27  C   UNL     1       1.476  -1.293   3.650  0.00  0.00    +0.081 C 
ATOM     28  C   UNL     1       0.643  -1.143   4.926  0.00  0.00    +0.011 C 
ATOM     29  C   UNL     1       1.296  -1.954   6.048  0.00  0.00    -0.018 C 
ATOM     30  C   UNL     1       1.423  -3.414   5.608  0.00  0.00    -0.078 C 
ATOM     31  N   UNL     1       2.251  -3.494   4.399  0.00  0.00    +0.383 N 
ATOM     32  C   UNL     1       1.597  -2.777   3.297  0.00  0.00    -0.064 C 
ATOM     33  H   UNL     1       3.152  -3.076   4.581  0.00  0.00    -0.081 HD
BRANCH  27  34
ATOM     34  C   UNL     1       0.800  -0.561   2.519  0.00  0.00    +0.308 C 
ATOM     35  O   UNL     1       0.452  -1.164   1.531  0.00  0.00    -0.251 OA
BRANCH  34  36
ATOM     36  O   UNL     1       0.584   0.760   2.609  0.00  0.00    -0.465 OA
BRANCH  36  38
ATOM     37  C   UNL     1      -0.219   2.885   1.783  0.00  0.00    +0.048 C 
ATOM     38  C   UNL     1      -0.061   1.390   1.500  0.00  0.00    +0.229 C 
ENDBRANCH  36  38
ENDBRANCH  34  36
ENDBRANCH  27  34
ENDBRANCH  26  31
ENDBRANCH   1  26
TORSDOF 7
