REMARK  Name = ZINC20759818
REMARK  8 active torsions:
REMARK  status: ('A' for Active; 'I' for Inactive)
REMARK    1  A    between atoms: C_1  and  C_2
REMARK    2  A    between atoms: C_2  and  C_3
REMARK    3  A    between atoms: C_8  and  N_9
REMARK    4  A    between atoms: C_13  and  C_31
REMARK    5  A    between atoms: C_19  and  S_20
REMARK    6  A    between atoms: S_20  and  C_21
REMARK    7  A    between atoms: C_21  and  C_22
REMARK    8  A    between atoms: C_27  and  C_30
REMARK                            x       y       z     vdW  Elec       q    Type
REMARK                         _______ _______ _______ _____ _____    ______ ____
ROOT
ATOM      1  N   UNL     1      -4.485   2.079   0.944  0.00  0.00    -0.274 N 
ATOM      2  C   UNL     1      -3.238   1.731   0.446  0.00  0.00    +0.124 A 
ATOM      3  N   UNL     1      -3.086   1.333  -0.793  0.00  0.00    -0.384 N 
ATOM      4  C   UNL     1      -2.095   1.832   1.363  0.00  0.00    +0.082 A 
ATOM      5  C   UNL     1      -0.718   1.572   1.248  0.00  0.00    +0.072 A 
ATOM      6  N   UNL     1      -0.154   1.828   2.397  0.00  0.00    -0.177 NA
ATOM      7  N   UNL     1      -1.127   2.258   3.308  0.00  0.00    -0.260 N 
ATOM      8  H   UNL     1      -0.839   2.522   4.336  0.00  0.00    +0.191 HD
ATOM      9  C   UNL     1      -2.332   2.259   2.676  0.00  0.00    +0.162 A 
ATOM     10  N   UNL     1      -3.579   2.573   3.057  0.00  0.00    -0.204 NA
ATOM     11  C   UNL     1      -4.604   2.490   2.243  0.00  0.00    +0.177 A 
ATOM     12  C   UNL     1      -0.013   1.086   0.008  0.00  0.00    +0.068 C 
ATOM     13  H   UNL     1      -2.087   1.062  -1.165  0.00  0.00    +0.157 HD
ATOM     14  H   UNL     1      -3.957   1.270  -1.462  0.00  0.00    +0.157 HD
ENDROOT
BRANCH   1  20
ATOM     15  C   UNL     1      -6.359   0.840   0.054  0.00  0.00    -0.024 A 
ATOM     16  C   UNL     1      -7.473   0.776  -0.759  0.00  0.00    +0.005 A 
ATOM     17  C   UNL     1      -7.850   1.877  -1.507  0.00  0.00    +0.000 A 
ATOM     18  C   UNL     1      -7.112   3.045  -1.443  0.00  0.00    +0.002 A 
ATOM     19  C   UNL     1      -5.999   3.117  -0.628  0.00  0.00    +0.026 A 
ATOM     20  C   UNL     1      -5.615   2.011   0.120  0.00  0.00    +0.053 A 
BRANCH  15  22
ATOM     21  C   UNL     1      -6.534  -0.242   2.279  0.00  0.00    +0.009 C 
ATOM     22  C   UNL     1      -5.950  -0.359   0.869  0.00  0.00    +0.034 C 
ENDBRANCH  15  22
ENDBRANCH   1  20
BRANCH  11  23
ATOM     23  S   UNL     1      -6.200   2.927   2.848  0.00  0.00    -0.078 S 
BRANCH  23  24
ATOM     24  C   UNL     1      -5.780   3.373   4.551  0.00  0.00    +0.173 C 
BRANCH  24  25
ATOM     25  C   UNL     1      -7.028   3.793   5.283  0.00  0.00    +0.226 C 
ATOM     26  O   UNL     1      -8.097   3.790   4.710  0.00  0.00    -0.275 OA
ATOM     27  N   UNL     1      -6.957   4.171   6.575  0.00  0.00    -0.301 N 
ATOM     28  C   UNL     1      -5.671   4.173   7.284  0.00  0.00    +0.108 C 
ATOM     29  C   UNL     1      -5.456   5.564   7.901  0.00  0.00    +0.022 C 
ATOM     30  C   UNL     1      -6.658   5.918   8.779  0.00  0.00    -0.011 C 
ATOM     31  C   UNL     1      -7.924   5.963   7.920  0.00  0.00    +0.022 C 
ATOM     32  C   UNL     1      -8.166   4.582   7.302  0.00  0.00    +0.108 C 
ATOM     33  C   UNL     1      -6.432   7.286   9.425  0.00  0.00    +0.007 C 
ENDBRANCH  24  25
ENDBRANCH  23  24
ENDBRANCH  11  23
TORSDOF 5
