REMARK  Name = ZINC66241292
REMARK  10 active torsions:
REMARK  status: ('A' for Active; 'I' for Inactive)
REMARK    1  A    between atoms: C_1  and  C_2
REMARK    2  A    between atoms: C_2  and  C_3
REMARK    3  A    between atoms: C_2  and  C_4
REMARK    4  A    between atoms: C_4  and  C_5
REMARK    5  A    between atoms: C_5  and  N_6
REMARK    6  A    between atoms: N_9  and  N_10
REMARK    7  A    between atoms: C_11  and  C_13
REMARK    8  A    between atoms: C_13  and  C_14
REMARK    9  A    between atoms: C_14  and  C_15
REMARK   10  A    between atoms: N_25  and  C_26
REMARK                            x       y       z     vdW  Elec       q    Type
REMARK                         _______ _______ _______ _____ _____    ______ ____
ROOT
ATOM      1  C   UNL     1      -7.809  -2.940  -0.284  0.00  0.00    +0.105 C 
ENDROOT
BRANCH   1   3
ATOM      2  N   UNL     1      -5.408  -3.411  -0.650  0.00  0.00    -0.233 N 
ATOM      3  C   UNL     1      -6.663  -3.888  -0.531  0.00  0.00    +0.230 C 
ATOM      4  O   UNL     1      -6.870  -5.079  -0.623  0.00  0.00    -0.274 OA
ATOM      5  H   UNL     1      -5.242  -2.458  -0.577  0.00  0.00    +0.173 HD
BRANCH   2   9
ATOM      6  N   UNL     1      -2.858  -2.491  -0.897  0.00  0.00    -0.298 N 
ATOM      7  C   UNL     1      -3.088  -3.815  -1.000  0.00  0.00    +0.316 C 
ATOM      8  O   UNL     1      -2.164  -4.579  -1.199  0.00  0.00    -0.251 OA
ATOM      9  N   UNL     1      -4.343  -4.291  -0.880  0.00  0.00    -0.218 N 
ATOM     10  H   UNL     1      -3.595  -1.881  -0.738  0.00  0.00    +0.150 HD
ATOM     11  H   UNL     1      -4.509  -5.244  -0.954  0.00  0.00    +0.174 HD
BRANCH   6  12
ATOM     12  C   UNL     1      -1.494  -1.972  -1.026  0.00  0.00    +0.106 C 
BRANCH  12  13
ATOM     13  C   UNL     1      -1.510  -0.450  -0.872  0.00  0.00    +0.022 C 
BRANCH  13  15
ATOM     14  C   UNL     1      -0.116   1.621  -0.976  0.00  0.00    +0.007 C 
ATOM     15  C   UNL     1      -0.085   0.091  -1.007  0.00  0.00    -0.016 C 
ATOM     16  C   UNL     1       0.769  -0.425   0.153  0.00  0.00    +0.007 C 
ENDBRANCH  13  15
ENDBRANCH  12  13
ENDBRANCH   6  12
ENDBRANCH   2   9
ENDBRANCH   1   3
BRANCH   1  17
ATOM     17  C   UNL     1      -9.114  -3.733  -0.190  0.00  0.00    +0.084 C 
BRANCH  17  18
ATOM     18  C   UNL     1     -10.260  -2.785   0.058  0.00  0.00    +0.114 A 
ATOM     19  N   UNL     1     -10.002  -1.516   0.146  0.00  0.00    -0.233 NA
ATOM     20  C   UNL     1     -10.982  -0.604   0.367  0.00  0.00    +0.078 A 
ATOM     21  C   UNL     1     -10.704   0.761   0.461  0.00  0.00    +0.028 A 
ATOM     22  C   UNL     1     -11.730   1.651   0.686  0.00  0.00    +0.002 A 
ATOM     23  C   UNL     1     -13.040   1.208   0.822  0.00  0.00    +0.001 A 
ATOM     24  C   UNL     1     -13.338  -0.134   0.733  0.00  0.00    +0.015 A 
ATOM     25  C   UNL     1     -12.314  -1.051   0.505  0.00  0.00    +0.065 A 
ATOM     26  C   UNL     1     -12.573  -2.495   0.400  0.00  0.00    +0.262 A 
ATOM     27  O   UNL     1     -13.698  -2.946   0.510  0.00  0.00    -0.267 OA
ATOM     28  N   UNL     1     -11.511  -3.303   0.172  0.00  0.00    -0.293 N 
BRANCH  28  29
ATOM     29  C   UNL     1     -11.712  -4.749   0.053  0.00  0.00    +0.092 C 
ATOM     30  C   UNL     1     -12.605  -5.426   1.095  0.00  0.00    +0.027 C 
ATOM     31  C   UNL     1     -11.090  -5.640   1.131  0.00  0.00    +0.027 C 
ENDBRANCH  28  29
ENDBRANCH  17  18
ENDBRANCH   1  17
TORSDOF 8
