REMARK  Name = ZINC40985855
REMARK  11 active torsions:
REMARK  status: ('A' for Active; 'I' for Inactive)
REMARK    1  A    between atoms: C_1  and  C_2
REMARK    2  A    between atoms: C_2  and  C_3
REMARK    3  A    between atoms: C_6  and  C_9
REMARK    4  A    between atoms: C_9  and  C_11
REMARK    5  A    between atoms: C_9  and  N_31
REMARK    6  A    between atoms: C_11  and  N_12
REMARK    7  A    between atoms: C_13  and  C_15
REMARK    8  A    between atoms: C_18  and  S_22
REMARK    9  A    between atoms: S_22  and  C_23
REMARK   10  A    between atoms: C_23  and  C_24
REMARK   11  A    between atoms: C_27  and  C_30
REMARK                            x       y       z     vdW  Elec       q    Type
REMARK                         _______ _______ _______ _____ _____    ______ ____
ROOT
ATOM      1  N   UNL     1       4.106  -1.208  -6.636  0.00  0.00    -0.312 N 
ATOM      2  C   UNL     1       4.765  -0.342  -7.431  0.00  0.00    +0.248 C 
ATOM      3  O   UNL     1       4.634   0.856  -7.267  0.00  0.00    -0.270 OA
ATOM      4  H   UNL     1       4.211  -2.163  -6.767  0.00  0.00    +0.149 HD
ENDROOT
BRANCH   2   5
ATOM      5  C   UNL     1       5.647  -0.847  -8.500  0.00  0.00    +0.092 A 
ATOM      6  C   UNL     1       5.807  -2.223  -8.709  0.00  0.00    +0.129 A 
ATOM      7  N   UNL     1       6.604  -2.635  -9.676  0.00  0.00    -0.229 NA
ATOM      8  C   UNL     1       7.250  -1.766 -10.445  0.00  0.00    +0.190 A 
ATOM      9  N   UNL     1       7.125  -0.455 -10.280  0.00  0.00    -0.209 NA
ATOM     10  C   UNL     1       6.342   0.038  -9.338  0.00  0.00    +0.146 A 
ATOM     11 CL   UNL     1       6.181   1.755  -9.135  0.00  0.00    -0.061 Cl
BRANCH   8  12
ATOM     12  S   UNL     1       8.302  -2.371 -11.722  0.00  0.00    -0.081 S 
BRANCH  12  13
ATOM     13  C   UNL     1       8.959  -0.869 -12.498  0.00  0.00    +0.112 C 
BRANCH  13  14
ATOM     14  C   UNL     1       9.887  -1.250 -13.623  0.00  0.00    -0.037 A 
ATOM     15  C   UNL     1      11.234  -1.438 -13.374  0.00  0.00    +0.005 A 
ATOM     16  C   UNL     1      12.085  -1.786 -14.405  0.00  0.00    +0.003 A 
ATOM     17  C   UNL     1      11.590  -1.948 -15.686  0.00  0.00    -0.050 A 
ATOM     18  C   UNL     1      10.243  -1.761 -15.935  0.00  0.00    +0.003 A 
ATOM     19  C   UNL     1       9.391  -1.416 -14.902  0.00  0.00    +0.005 A 
ATOM     20  C   UNL     1      12.519  -2.327 -16.810  0.00  0.00    +0.044 C 
ENDBRANCH  13  14
ENDBRANCH  12  13
ENDBRANCH   8  12
ENDBRANCH   2   5
BRANCH   1  21
ATOM     21  C   UNL     1       3.230  -0.706  -5.574  0.00  0.00    +0.094 C 
BRANCH  21  22
ATOM     22  C   UNL     1       2.508  -1.880  -4.911  0.00  0.00    -0.020 C 
BRANCH  22  26
ATOM     23  C   UNL     1      -0.122  -3.714  -7.734  0.00  0.00    -0.048 A 
ATOM     24  C   UNL     1       1.112  -4.278  -7.471  0.00  0.00    +0.004 A 
ATOM     25  C   UNL     1       1.963  -3.685  -6.558  0.00  0.00    +0.002 A 
ATOM     26  C   UNL     1       1.580  -2.527  -5.908  0.00  0.00    -0.059 A 
ATOM     27  C   UNL     1       0.347  -1.962  -6.171  0.00  0.00    +0.002 A 
ATOM     28  C   UNL     1      -0.503  -2.553  -7.088  0.00  0.00    +0.004 A 
BRANCH  23  30
ATOM     29  C   UNL     1      -0.773  -3.797 -10.126  0.00  0.00    +0.009 C 
ATOM     30  C   UNL     1      -1.049  -4.361  -8.730  0.00  0.00    +0.032 C 
ENDBRANCH  23  30
ENDBRANCH  22  26
BRANCH  22  31
ATOM     31  N   UNL     1       1.731  -1.393  -3.764  0.00  0.00    +0.385 N 
ATOM     32  C   UNL     1       1.033  -2.523  -3.100  0.00  0.00    -0.078 C 
ATOM     33  C   UNL     1       0.760  -1.983  -1.673  0.00  0.00    -0.020 C 
ATOM     34  C   UNL     1       2.033  -1.161  -1.366  0.00  0.00    -0.020 C 
ATOM     35  C   UNL     1       2.634  -0.820  -2.742  0.00  0.00    -0.078 C 
ATOM     36  H   UNL     1       1.062  -0.699  -4.065  0.00  0.00    -0.081 HD
ENDBRANCH  22  31
ENDBRANCH  21  22
ENDBRANCH   1  21
TORSDOF 9
