REMARK  Name = ZINC36633753
REMARK  6 active torsions:
REMARK  status: ('A' for Active; 'I' for Inactive)
REMARK    1  A    between atoms: C_4  and  C_7
REMARK    2  A    between atoms: C_10  and  C_13
REMARK    3  A    between atoms: C_18  and  O_19
REMARK    4  A    between atoms: N_26  and  N_27
REMARK    5  A    between atoms: N_27  and  C_28
REMARK    6  A    between atoms: C_31  and  N_34
REMARK                            x       y       z     vdW  Elec       q    Type
REMARK                         _______ _______ _______ _____ _____    ______ ____
ROOT
ATOM      1  C   UNL     1       3.693  -0.682  -0.038  0.00  0.00    +0.069 C 
ATOM      2  N   UNL     1       4.854  -0.123  -0.042  0.00  0.00    -0.182 NA
ATOM      3  N   UNL     1       5.918  -1.022  -0.059  0.00  0.00    -0.199 N 
ATOM      4  C   UNL     1       5.383  -2.393  -0.069  0.00  0.00    +0.139 C 
ATOM      5  C   UNL     1       3.856  -2.185  -0.048  0.00  0.00    +0.087 C 
ATOM      6  C   UNL     1       7.250  -0.685  -0.067  0.00  0.00    +0.169 C 
ATOM      7  N   UNL     1       8.182  -1.592  -0.089  0.00  0.00    -0.151 NA
ATOM      8  C   UNL     1       9.484  -1.278  -0.097  0.00  0.00    +0.303 C 
ATOM      9  O   UNL     1      10.447  -2.027  -0.118  0.00  0.00    -0.260 OA
ATOM     10  S   UNL     1       9.465   0.508  -0.071  0.00  0.00    -0.005 S 
ATOM     11  C   UNL     1       7.689   0.723  -0.056  0.00  0.00    +0.163 C 
ATOM     12  N   UNL     1       6.977   1.823  -0.039  0.00  0.00    -0.172 NA
ENDROOT
BRANCH   1  16
ATOM     13  C   UNL     1      -0.017   1.379   0.010  0.00  0.00    +0.000 A 
ATOM     14  C   UNL     1       1.168   2.094   0.002  0.00  0.00    +0.001 A 
ATOM     15  C   UNL     1       2.377   1.431  -0.013  0.00  0.00    +0.010 A 
ATOM     16  C   UNL     1       2.404   0.034  -0.021  0.00  0.00    -0.002 A 
ATOM     17  C   UNL     1       1.204  -0.681  -0.013  0.00  0.00    +0.010 A 
ATOM     18  C   UNL     1       0.002  -0.004   0.002  0.00  0.00    +0.001 A 
ENDBRANCH   1  16
BRANCH   4  19
ATOM     19  C   UNL     1       5.830  -3.146   1.158  0.00  0.00    +0.017 A 
ATOM     20  C   UNL     1       6.190  -2.455   2.300  0.00  0.00    +0.009 A 
ATOM     21  C   UNL     1       6.601  -3.145   3.425  0.00  0.00    +0.001 A 
ATOM     22  C   UNL     1       6.652  -4.527   3.412  0.00  0.00    +0.004 A 
ATOM     23  C   UNL     1       6.293  -5.222   2.273  0.00  0.00    +0.046 A 
ATOM     24  C   UNL     1       5.875  -4.532   1.144  0.00  0.00    +0.122 A 
BRANCH  24  25
ATOM     25  O   UNL     1       5.516  -5.213   0.024  0.00  0.00    -0.506 OA
ATOM     26  H   UNL     1       6.248  -5.380  -0.586  0.00  0.00    +0.292 HD
ENDBRANCH  24  25
ENDBRANCH   4  19
BRANCH  12  27
ATOM     27  N   UNL     1       7.615   3.071  -0.032  0.00  0.00    -0.237 N 
ATOM     28  H   UNL     1       8.584   3.120  -0.040  0.00  0.00    +0.174 HD
BRANCH  27  29
ATOM     29  C   UNL     1       6.857   4.242  -0.014  0.00  0.00    +0.048 A 
ATOM     30  C   UNL     1       5.469   4.173   0.003  0.00  0.00    +0.027 A 
ATOM     31  C   UNL     1       4.723   5.334   0.022  0.00  0.00    +0.034 A 
ATOM     32  C   UNL     1       5.354   6.565   0.023  0.00  0.00    +0.126 A 
ATOM     33  C   UNL     1       6.735   6.637   0.006  0.00  0.00    +0.034 A 
ATOM     34  C   UNL     1       7.489   5.480  -0.007  0.00  0.00    +0.027 A 
BRANCH  32  35
ATOM     35  N   UNL     1       4.550   7.808   0.042  0.00  0.00    +0.056 N 
ATOM     36  O   UNL     1       3.343   7.746   0.057  0.00  0.00    -0.126 OA
ATOM     37  O   UNL     1       5.101   8.884   0.043  0.00  0.00    -0.126 OA
ENDBRANCH  32  35
ENDBRANCH  27  29
ENDBRANCH  12  27
TORSDOF 6
