REMARK  Name = ZINC21145861
REMARK  9 active torsions:
REMARK  status: ('A' for Active; 'I' for Inactive)
REMARK    1  A    between atoms: C_1  and  C_2
REMARK    2  A    between atoms: C_3  and  C_7
REMARK    3  A    between atoms: C_10  and  S_13
REMARK    4  A    between atoms: N_11  and  N_12
REMARK    5  A    between atoms: S_13  and  C_14
REMARK    6  A    between atoms: C_14  and  C_15
REMARK    7  A    between atoms: N_17  and  C_18
REMARK    8  A    between atoms: C_23  and  C_24
REMARK    9  A    between atoms: C_24  and  C_25
REMARK                            x       y       z     vdW  Elec       q    Type
REMARK                         _______ _______ _______ _____ _____    ______ ____
ROOT
ATOM      1  C   UNL     1      -1.412  -0.526   0.007  0.00  0.00    +0.227 C 
ATOM      2  O   UNL     1      -2.345   0.250   0.024  0.00  0.00    -0.275 OA
ATOM      3  N   UNL     1      -1.640  -1.854   0.008  0.00  0.00    -0.285 N 
ATOM      4  H   UNL     1      -0.798  -2.556  -0.082  0.00  0.00    +0.155 HD
ENDROOT
BRANCH   3   5
ATOM      5  C   UNL     1      -2.947  -2.340   0.123  0.00  0.00    +0.037 A 
ATOM      6  C   UNL     1      -4.002  -1.644  -0.454  0.00  0.00    +0.023 A 
ATOM      7  C   UNL     1      -5.290  -2.126  -0.339  0.00  0.00    +0.002 A 
ATOM      8  C   UNL     1      -5.532  -3.300   0.352  0.00  0.00    +0.000 A 
ATOM      9  C   UNL     1      -4.484  -3.995   0.927  0.00  0.00    +0.006 A 
ATOM     10  C   UNL     1      -3.192  -3.521   0.811  0.00  0.00    -0.022 A 
BRANCH  10  11
ATOM     11  C   UNL     1      -2.050  -4.282   1.433  0.00  0.00    +0.072 C 
BRANCH  11  12
ATOM     12  C   UNL     1      -1.756  -3.718   2.799  0.00  0.00    -0.043 A 
ATOM     13  C   UNL     1      -0.839  -2.693   2.941  0.00  0.00    +0.004 A 
ATOM     14  C   UNL     1      -0.572  -2.172   4.193  0.00  0.00    +0.000 A 
ATOM     15  C   UNL     1      -1.216  -2.683   5.305  0.00  0.00    +0.000 A 
ATOM     16  C   UNL     1      -2.128  -3.711   5.164  0.00  0.00    +0.000 A 
ATOM     17  C   UNL     1      -2.399  -4.229   3.911  0.00  0.00    +0.004 A 
ENDBRANCH  11  12
ENDBRANCH  10  11
ENDBRANCH   3   5
BRANCH   1  18
ATOM     18  C   UNL     1       0.001  -0.003  -0.015  0.00  0.00    +0.173 C 
BRANCH  18  19
ATOM     19  S   UNL     1      -0.024   1.806  -0.011  0.00  0.00    -0.075 S 
BRANCH  19  23
ATOM     20  C   UNL     1       3.651   3.132  -0.069  0.00  0.00    +0.185 A 
ATOM     21  N   UNL     1       3.813   1.830  -0.075  0.00  0.00    -0.127 NA
ATOM     22  N   UNL     1       2.670   1.244  -0.058  0.00  0.00    -0.121 NA
ATOM     23  C   UNL     1       1.706   2.137  -0.039  0.00  0.00    +0.209 A 
ATOM     24  N   UNL     1       2.297   3.370  -0.052  0.00  0.00    -0.224 N 
BRANCH  20  27
ATOM     25  C   UNL     1       6.738   2.583  -0.109  0.00  0.00    +0.087 C 
ATOM     26  C   UNL     1       6.065   3.932  -0.101  0.00  0.00    +0.112 A 
ATOM     27  C   UNL     1       4.723   4.152  -0.084  0.00  0.00    +0.061 A 
ATOM     28  C   UNL     1       4.558   5.611  -0.078  0.00  0.00    +0.053 A 
ATOM     29  C   UNL     1       5.800   6.124  -0.096  0.00  0.00    +0.196 A 
ATOM     30  O   UNL     1       6.689   5.119  -0.113  0.00  0.00    -0.467 OA
ENDBRANCH  20  27
BRANCH  24  31
ATOM     31  N   UNL     1       1.672   4.585  -0.045  0.00  0.00    -0.295 N 
ATOM     32  H   UNL     1       0.573   4.638  -0.031  0.00  0.00    +0.163 HD
ATOM     33  H   UNL     1       2.267   5.509  -0.054  0.00  0.00    +0.163 HD
ENDBRANCH  24  31
ENDBRANCH  19  23
ENDBRANCH  18  19
ENDBRANCH   1  18
TORSDOF 8
