REMARK  Name = ZINC44686686
REMARK  5 active torsions:
REMARK  status: ('A' for Active; 'I' for Inactive)
REMARK    1  A    between atoms: C_3  and  S_9
REMARK    2  A    between atoms: C_4  and  N_8
REMARK    3  A    between atoms: S_9  and  N_12
REMARK    4  A    between atoms: N_12  and  C_13
REMARK    5  A    between atoms: N_17  and  C_19
REMARK                            x       y       z     vdW  Elec       q    Type
REMARK                         _______ _______ _______ _____ _____    ______ ____
ROOT
ATOM      1  S   UNL     1       3.930   2.290   0.025  0.00  0.00    +0.060 S 
ATOM      2  O   UNL     1       4.801   1.711  -0.937  0.00  0.00    -0.153 OA
ATOM      3  O   UNL     1       3.450   3.623  -0.088  0.00  0.00    -0.153 OA
ENDROOT
BRANCH   1   6
ATOM      4  C   UNL     1       1.301  -0.674  -0.645  0.00  0.00    +0.017 A 
ATOM      5  C   UNL     1       2.414   0.145  -0.712  0.00  0.00    +0.031 A 
ATOM      6  C   UNL     1       2.512   1.249   0.111  0.00  0.00    +0.126 A 
ATOM      7  C   UNL     1       1.491   1.538   1.008  0.00  0.00    +0.052 A 
ATOM      8  C   UNL     1       0.374   0.715   1.074  0.00  0.00    +0.040 A 
ATOM      9  C   UNL     1       0.282  -0.389   0.247  0.00  0.00    +0.020 A 
ATOM     10 BR   UNL     1      -1.237  -1.512   0.335  0.00  0.00    -0.050 Br
BRANCH   7  11
ATOM     11  N   UNL     1       1.587   2.654   1.843  0.00  0.00    -0.356 N 
ATOM     12  H   UNL     1       2.337   3.263   1.753  0.00  0.00    +0.142 HD
ATOM     13  H   UNL     1       0.905   2.819   2.512  0.00  0.00    +0.142 HD
ENDBRANCH   7  11
ENDBRANCH   1   6
BRANCH   1  14
ATOM     14  N   UNL     1       4.703   2.188   1.486  0.00  0.00    -0.189 NA
ATOM     15  H   UNL     1       4.763   2.968   2.058  0.00  0.00    +0.148 HD
BRANCH  14  16
ATOM     16  C   UNL     1       5.296   0.918   1.913  0.00  0.00    +0.058 C 
ATOM     17  C   UNL     1       4.357   0.195   2.906  0.00  0.00    -0.000 C 
ATOM     18  C   UNL     1       5.342  -0.403   3.942  0.00  0.00    -0.077 C 
ATOM     19  N   UNL     1       6.383   0.650   4.067  0.00  0.00    +0.383 N 
ATOM     20  C   UNL     1       6.596   1.173   2.698  0.00  0.00    -0.058 C 
ATOM     21  H   UNL     1       6.060   1.387   4.676  0.00  0.00    -0.081 HD
BRANCH  19  22
ATOM     22  C   UNL     1       7.629   0.070   4.587  0.00  0.00    -0.069 C 
ATOM     23  C   UNL     1       8.079   0.499   5.985  0.00  0.00    -0.017 C 
ATOM     24  C   UNL     1       8.828   1.006   4.751  0.00  0.00    -0.017 C 
ENDBRANCH  19  22
ENDBRANCH  14  16
ENDBRANCH   1  14
TORSDOF 5
