REMARK  Name = ZINC13143578
REMARK  6 active torsions:
REMARK  status: ('A' for Active; 'I' for Inactive)
REMARK    1  A    between atoms: C_5  and  C_14
REMARK    2  A    between atoms: C_10  and  O_13
REMARK    3  A    between atoms: C_14  and  O_16
REMARK    4  A    between atoms: O_16  and  C_17
REMARK    5  A    between atoms: C_17  and  C_18
REMARK    6  A    between atoms: N_20  and  C_21
REMARK                            x       y       z     vdW  Elec       q    Type
REMARK                         _______ _______ _______ _____ _____    ______ ____
ROOT
ATOM      1  O   UNL     1       2.384  -0.129  -3.720  0.00  0.00    -0.455 OA
ENDROOT
BRANCH   1   2
ATOM      2  C   UNL     1       2.859  -0.454  -2.507  0.00  0.00    +0.314 C 
ATOM      3  O   UNL     1       3.852  -1.136  -2.410  0.00  0.00    -0.250 OA
BRANCH   2   7
ATOM      4  C   UNL     1      -0.019   1.526   0.010  0.00  0.00    +0.007 C 
ATOM      5  C   UNL     1       1.417   2.055  -0.000  0.00  0.00    -0.007 C 
ATOM      6  C   UNL     1       2.133   1.562  -1.259  0.00  0.00    +0.021 C 
ATOM      7  C   UNL     1       2.154   0.032  -1.268  0.00  0.00    +0.071 C 
ATOM      8  C   UNL     1       0.718  -0.497  -1.257  0.00  0.00    +0.021 C 
ATOM      9  C   UNL     1       0.002  -0.004   0.002  0.00  0.00    -0.007 C 
ATOM     10  C   UNL     1       0.742  -0.511   1.242  0.00  0.00    +0.038 C 
ATOM     11  C   UNL     1       2.178   0.019   1.231  0.00  0.00    +0.068 C 
ATOM     12  C   UNL     1       2.157   1.548   1.239  0.00  0.00    +0.038 C 
ATOM     13  C   UNL     1       2.894  -0.475  -0.028  0.00  0.00    +0.052 C 
BRANCH  11  14
ATOM     14  O   UNL     1       2.869  -0.455   2.388  0.00  0.00    -0.389 OA
ATOM     15  H   UNL     1       2.469  -0.179   3.225  0.00  0.00    +0.210 HD
ENDBRANCH  11  14
ENDBRANCH   2   7
ENDBRANCH   1   2
BRANCH   1  16
ATOM     16  C   UNL     1       3.103  -0.624  -4.852  0.00  0.00    +0.327 C 
BRANCH  16  17
ATOM     17  C   UNL     1       2.428  -0.162  -6.117  0.00  0.00    +0.251 C 
ATOM     18  O   UNL     1       1.429   0.524  -6.056  0.00  0.00    -0.272 OA
ATOM     19  N   UNL     1       2.933  -0.511  -7.317  0.00  0.00    -0.307 N 
ATOM     20  H   UNL     1       3.732  -1.059  -7.366  0.00  0.00    +0.149 HD
BRANCH  19  21
ATOM     21  C   UNL     1       2.277  -0.061  -8.547  0.00  0.00    +0.035 C 
ATOM     22  C   UNL     1       2.257   1.468  -8.585  0.00  0.00    +0.029 C 
ATOM     23  C   UNL     1       1.571   1.937  -9.870  0.00  0.00    -0.008 C 
ATOM     24  C   UNL     1       2.341   1.407 -11.082  0.00  0.00    +0.007 C 
ATOM     25  C   UNL     1       2.361  -0.122 -11.044  0.00  0.00    -0.008 C 
ATOM     26  C   UNL     1       3.046  -0.591  -9.759  0.00  0.00    +0.029 C 
ATOM     27  C   UNL     1       0.926  -0.652 -11.079  0.00  0.00    +0.007 C 
ATOM     28  C   UNL     1       0.157  -0.122  -9.867  0.00  0.00    -0.008 C 
ATOM     29  C   UNL     1       0.137   1.407  -9.905  0.00  0.00    +0.007 C 
ATOM     30  C   UNL     1       0.842  -0.591  -8.583  0.00  0.00    +0.029 C 
ENDBRANCH  19  21
ENDBRANCH  16  17
ENDBRANCH   1  16
TORSDOF 6
