REMARK  Name = ZINC12311957
REMARK  7 active torsions:
REMARK  status: ('A' for Active; 'I' for Inactive)
REMARK    1  A    between atoms: C_1  and  C_2
REMARK    2  A    between atoms: C_2  and  O_3
REMARK    3  A    between atoms: O_3  and  C_4
REMARK    4  A    between atoms: C_4  and  C_6
REMARK    5  A    between atoms: C_10  and  N_11
REMARK    6  A    between atoms: C_21  and  N_22
REMARK    7  A    between atoms: N_22  and  C_23
REMARK                            x       y       z     vdW  Elec       q    Type
REMARK                         _______ _______ _______ _____ _____    ______ ____
ROOT
ATOM      1  N   UNL     1      -0.500  -1.891  -4.515  0.00  0.00    -0.195 N 
ATOM      2  C   UNL     1      -1.322  -1.410  -3.568  0.00  0.00    +0.258 C 
ATOM      3  O   UNL     1      -0.856  -0.794  -2.628  0.00  0.00    -0.269 OA
ATOM      4  C   UNL     1      -2.773  -1.614  -3.648  0.00  0.00    +0.046 A 
ATOM      5  C   UNL     1      -3.633  -1.116  -2.668  0.00  0.00    +0.014 A 
ATOM      6  C   UNL     1      -4.990  -1.328  -2.780  0.00  0.00    +0.001 A 
ATOM      7  C   UNL     1      -5.511  -2.033  -3.855  0.00  0.00    +0.001 A 
ATOM      8  C   UNL     1      -4.679  -2.534  -4.835  0.00  0.00    +0.009 A 
ATOM      9  C   UNL     1      -3.307  -2.329  -4.740  0.00  0.00    +0.000 A 
ATOM     10  C   UNL     1      -2.371  -2.844  -5.762  0.00  0.00    +0.059 C 
ATOM     11  C   UNL     1      -2.830  -3.550  -6.853  0.00  0.00    +0.086 C 
ATOM     12  C   UNL     1      -0.940  -2.576  -5.583  0.00  0.00    +0.260 C 
ATOM     13  O   UNL     1      -0.143  -2.981  -6.409  0.00  0.00    -0.269 OA
ENDROOT
BRANCH   1  18
ATOM     14  C   UNL     1       1.816  -2.500  -3.819  0.00  0.00    +0.091 A 
ATOM     15  C   UNL     1       3.190  -2.032  -3.813  0.00  0.00    -0.021 A 
ATOM     16  C   UNL     1       3.361  -0.813  -4.370  0.00  0.00    -0.004 A 
ATOM     17  S   UNL     1       1.740  -0.322  -4.880  0.00  0.00    -0.077 S 
ATOM     18  C   UNL     1       0.865  -1.667  -4.387  0.00  0.00    +0.097 A 
ATOM     19  C   UNL     1       4.649  -0.062  -4.513  0.00  0.00    +0.043 C 
ATOM     20  C   UNL     1       5.692  -0.715  -3.595  0.00  0.00    +0.005 C 
ATOM     21  C   UNL     1       5.662  -2.231  -3.809  0.00  0.00    +0.005 C 
ATOM     22  C   UNL     1       4.365  -2.812  -3.242  0.00  0.00    +0.037 C 
BRANCH  14  23
ATOM     23  C   UNL     1       1.451  -3.802  -3.255  0.00  0.00    +0.342 C 
ATOM     24  O   UNL     1       1.378  -4.779  -3.976  0.00  0.00    -0.245 OA
BRANCH  23  25
ATOM     25  O   UNL     1       1.195  -3.917  -1.935  0.00  0.00    -0.461 OA
BRANCH  25  27
ATOM     26  C   UNL     1       0.593  -5.150   0.054  0.00  0.00    +0.048 C 
ATOM     27  C   UNL     1       0.845  -5.216  -1.453  0.00  0.00    +0.229 C 
ENDBRANCH  25  27
ENDBRANCH  23  25
ENDBRANCH  14  23
ENDBRANCH   1  18
BRANCH  11  28
ATOM     28  N   UNL     1      -1.947  -4.128  -7.708  0.00  0.00    -0.315 N 
ATOM     29  H   UNL     1      -0.999  -4.123  -7.503  0.00  0.00    +0.152 HD
BRANCH  28  30
ATOM     30  C   UNL     1      -2.405  -4.732  -8.885  0.00  0.00    +0.102 A 
ATOM     31  C   UNL     1      -3.582  -4.293  -9.481  0.00  0.00    +0.147 A 
ATOM     32  C   UNL     1      -4.031  -4.892 -10.644  0.00  0.00    +0.040 A 
ATOM     33  C   UNL     1      -3.311  -5.926 -11.214  0.00  0.00    +0.006 A 
ATOM     34  C   UNL     1      -2.140  -6.365 -10.625  0.00  0.00    +0.040 A 
ATOM     35  C   UNL     1      -1.681  -5.768  -9.465  0.00  0.00    +0.147 A 
ATOM     36  F   UNL     1      -0.533  -6.194  -8.893  0.00  0.00    -0.203 F 
ATOM     37  F   UNL     1      -4.286  -3.283  -8.924  0.00  0.00    -0.203 F 
ENDBRANCH  28  30
ENDBRANCH  11  28
TORSDOF 6
