REMARK  Name = ZINC08876175
REMARK  10 active torsions:
REMARK  status: ('A' for Active; 'I' for Inactive)
REMARK    1  A    between atoms: C_1  and  C_2
REMARK    2  A    between atoms: C_2  and  C_4
REMARK    3  A    between atoms: C_2  and  N_12
REMARK    4  A    between atoms: C_4  and  C_5
REMARK    5  A    between atoms: C_5  and  C_6
REMARK    6  A    between atoms: C_15  and  C_22
REMARK    7  A    between atoms: C_16  and  O_21
REMARK    8  A    between atoms: C_29  and  O_30
REMARK    9  A    between atoms: O_30  and  C_31
REMARK   10  A    between atoms: C_37  and  N_64
REMARK                            x       y       z     vdW  Elec       q    Type
REMARK                         _______ _______ _______ _____ _____    ______ ____
ROOT
ATOM      1  N   UNL     1      -1.358  -2.422   2.470  0.00  0.00    -0.258 N 
ATOM      2  C   UNL     1      -1.321  -1.076   2.417  0.00  0.00    +0.262 A 
ATOM      3  O   UNL     1      -2.354  -0.437   2.311  0.00  0.00    -0.267 OA
ATOM      4  C   UNL     1      -0.083  -0.412   2.485  0.00  0.00    +0.067 A 
ATOM      5  C   UNL     1       1.058  -1.150   2.598  0.00  0.00    +0.201 A 
ATOM      6  N   UNL     1       0.975  -2.518   2.654  0.00  0.00    -0.278 N 
ATOM      7  H   UNL     1       1.784  -3.047   2.738  0.00  0.00    +0.173 HD
ATOM      8  C   UNL     1      -0.221  -3.132   2.587  0.00  0.00    +0.332 A 
ATOM      9  O   UNL     1      -0.274  -4.346   2.634  0.00  0.00    -0.246 OA
ENDROOT
BRANCH   4  10
ATOM     10  C   UNL     1      -0.018   1.092   2.427  0.00  0.00    +0.007 C 
ATOM     11  C   UNL     1      -0.672   1.665   3.657  0.00  0.00    -0.008 A 
ATOM     12  C   UNL     1      -1.509   2.759   3.593  0.00  0.00    -0.040 A 
ATOM     13  C   UNL     1      -2.087   3.258   4.750  0.00  0.00    +0.053 A 
ATOM     14  C   UNL     1      -1.833   2.664   5.976  0.00  0.00    +0.170 A 
ATOM     15  C   UNL     1      -0.992   1.559   6.044  0.00  0.00    +0.208 A 
ATOM     16  C   UNL     1      -0.413   1.063   4.884  0.00  0.00    +0.167 A 
ATOM     17  O   UNL     1      -0.901   1.159   7.347  0.00  0.00    -0.449 OA
ATOM     18  C   UNL     1      -1.369   2.276   8.126  0.00  0.00    +0.467 C 
ATOM     19  O   UNL     1      -2.272   2.958   7.234  0.00  0.00    -0.452 OA
ATOM     20  C   UNL     1      -1.825   3.437   2.284  0.00  0.00    +0.017 C 
ATOM     21  C   UNL     1      -0.802   3.028   1.224  0.00  0.00    -0.073 C 
ATOM     22  C   UNL     1      -0.013   1.086   0.008  0.00  0.00    -0.095 C 
ATOM     23  N   UNL     1      -0.723   1.553   1.220  0.00  0.00    +0.386 N 
ATOM     24  H   UNL     1      -1.675   1.166   1.219  0.00  0.00    -0.081 HD
BRANCH  16  25
ATOM     25  O   UNL     1       0.410  -0.017   4.948  0.00  0.00    -0.491 OA
ATOM     26  C   UNL     1       1.802   0.239   5.146  0.00  0.00    +0.277 C 
ENDBRANCH  16  25
ENDBRANCH   4  10
BRANCH   1  28
ATOM     27  C   UNL     1      -2.850  -3.942   3.672  0.00  0.00    +0.031 C 
ATOM     28  C   UNL     1      -2.645  -3.117   2.400  0.00  0.00    +0.092 C 
BRANCH  28  29
ATOM     29  C   UNL     1      -2.657  -4.045   1.183  0.00  0.00    +0.030 C 
BRANCH  29  30
ATOM     30  C   UNL     1      -2.578  -3.210  -0.096  0.00  0.00    +0.037 C 
BRANCH  30  31
ATOM     31  C   UNL     1      -2.590  -4.124  -1.294  0.00  0.00    -0.047 A 
ATOM     32  C   UNL     1      -1.400  -4.599  -1.813  0.00  0.00    +0.003 A 
ATOM     33  C   UNL     1      -1.411  -5.442  -2.909  0.00  0.00    +0.000 A 
ATOM     34  C   UNL     1      -2.612  -5.800  -3.493  0.00  0.00    +0.000 A 
ATOM     35  C   UNL     1      -3.802  -5.320  -2.978  0.00  0.00    +0.000 A 
ATOM     36  C   UNL     1      -3.791  -4.482  -1.878  0.00  0.00    +0.003 A 
ENDBRANCH  30  31
ENDBRANCH  29  30
ENDBRANCH  28  29
ENDBRANCH   1  28
BRANCH   5  37
ATOM     37  O   UNL     1       2.260  -0.538   2.659  0.00  0.00    -0.493 OA
ATOM     38  H   UNL     1       3.008  -1.147   2.739  0.00  0.00    +0.294 HD
ENDBRANCH   5  37
TORSDOF 7
