REMARK  Name = ZINC03246707
REMARK  9 active torsions:
REMARK  status: ('A' for Active; 'I' for Inactive)
REMARK    1  A    between atoms: C_1  and  N_2
REMARK    2  A    between atoms: N_2  and  C_3
REMARK    3  A    between atoms: N_2  and  S_9
REMARK    4  A    between atoms: S_9  and  C_12
REMARK    5  A    between atoms: C_16  and  C_18
REMARK    6  A    between atoms: C_18  and  O_20
REMARK    7  A    between atoms: O_20  and  C_21
REMARK    8  A    between atoms: C_21  and  C_22
REMARK    9  A    between atoms: N_24  and  C_25
REMARK                            x       y       z     vdW  Elec       q    Type
REMARK                         _______ _______ _______ _____ _____    ______ ____
ROOT
ATOM      1  C   UNL     1       2.124   1.445  -0.366  0.00  0.00    +0.110 A 
ATOM      2  C   UNL     1       0.977   2.220  -0.395  0.00  0.00    +0.030 A 
ATOM      3  C   UNL     1      -0.258   1.631  -0.592  0.00  0.00    +0.023 A 
ATOM      4  C   UNL     1      -0.356   0.264  -0.761  0.00  0.00    +0.055 A 
ATOM      5  C   UNL     1       0.798  -0.524  -0.733  0.00  0.00    +0.079 A 
ATOM      6  C   UNL     1       2.042   0.079  -0.533  0.00  0.00    +0.045 A 
ATOM      7 CL   UNL     1      -1.907  -0.474  -1.008  0.00  0.00    -0.083 Cl
ENDROOT
BRANCH   1   8
ATOM      8  S   UNL     1       3.693   2.208  -0.115  0.00  0.00    +0.074 S 
ATOM      9  O   UNL     1       3.445   3.433   0.560  0.00  0.00    -0.150 OA
ATOM     10  O   UNL     1       4.551   1.206   0.415  0.00  0.00    -0.150 OA
BRANCH   8  12
ATOM     11  C   UNL     1       3.893   3.858  -2.248  0.00  0.00    +0.157 C 
ATOM     12  N   UNL     1       4.290   2.601  -1.608  0.00  0.00    -0.206 N 
BRANCH  12  13
ATOM     13  C   UNL     1       5.173   1.735  -2.257  0.00  0.00    +0.051 A 
ATOM     14  C   UNL     1       6.390   1.413  -1.670  0.00  0.00    +0.025 A 
ATOM     15  C   UNL     1       7.258   0.552  -2.313  0.00  0.00    +0.002 A 
ATOM     16  C   UNL     1       6.922   0.020  -3.544  0.00  0.00    +0.000 A 
ATOM     17  C   UNL     1       5.714   0.344  -4.134  0.00  0.00    +0.002 A 
ATOM     18  C   UNL     1       4.838   1.199  -3.494  0.00  0.00    +0.025 A 
ENDBRANCH  12  13
ENDBRANCH   8  12
ENDBRANCH   1   8
BRANCH   5  19
ATOM     19  C   UNL     1       0.703  -1.986  -0.912  0.00  0.00    +0.341 C 
ATOM     20  O   UNL     1      -0.380  -2.508  -1.085  0.00  0.00    -0.245 OA
BRANCH  19  21
ATOM     21  O   UNL     1       1.818  -2.742  -0.884  0.00  0.00    -0.452 OA
BRANCH  21  22
ATOM     22  C   UNL     1       1.649  -4.173  -1.068  0.00  0.00    +0.328 C 
BRANCH  22  23
ATOM     23  C   UNL     1       2.994  -4.849  -1.007  0.00  0.00    +0.251 C 
ATOM     24  O   UNL     1       3.997  -4.191  -0.826  0.00  0.00    -0.272 OA
ATOM     25  N   UNL     1       3.083  -6.186  -1.153  0.00  0.00    -0.306 N 
ATOM     26  H   UNL     1       2.282  -6.713  -1.297  0.00  0.00    +0.149 HD
BRANCH  25  27
ATOM     27  C   UNL     1       4.391  -6.844  -1.093  0.00  0.00    +0.104 C 
ATOM     28  C   UNL     1       4.207  -8.290  -0.638  0.00  0.00    +0.027 C 
ATOM     29  C   UNL     1       5.547  -9.020  -0.790  0.00  0.00    +0.007 C 
ATOM     30  C   UNL     1       5.838  -9.187  -2.281  0.00  0.00    +0.035 C 
ATOM     31  C   UNL     1       5.705  -7.868  -2.997  0.00  0.00    -0.042 A 
ATOM     32  C   UNL     1       5.034  -6.795  -2.455  0.00  0.00    -0.024 A 
ATOM     33  C   UNL     1       4.936  -5.611  -3.174  0.00  0.00    +0.006 A 
ATOM     34  C   UNL     1       5.508  -5.500  -4.425  0.00  0.00    +0.000 A 
ATOM     35  C   UNL     1       6.185  -6.577  -4.967  0.00  0.00    +0.000 A 
ATOM     36  C   UNL     1       6.282  -7.754  -4.255  0.00  0.00    +0.004 A 
ENDBRANCH  25  27
ENDBRANCH  22  23
ENDBRANCH  21  22
ENDBRANCH  19  21
ENDBRANCH   5  19
TORSDOF 8
