REMARK  Name = ZINC13963383
REMARK  8 active torsions:
REMARK  status: ('A' for Active; 'I' for Inactive)
REMARK    1  A    between atoms: C_1  and  O_2
REMARK    2  A    between atoms: O_2  and  C_3
REMARK    3  A    between atoms: C_3  and  C_4
REMARK    4  A    between atoms: C_4  and  N_5
REMARK    5  A    between atoms: N_14  and  C_15
REMARK    6  A    between atoms: C_15  and  C_17
REMARK    7  A    between atoms: N_22  and  S_24
REMARK    8  A    between atoms: S_24  and  C_27
REMARK                            x       y       z     vdW  Elec       q    Type
REMARK                         _______ _______ _______ _____ _____    ______ ____
ROOT
ATOM      1  C   UNL     1       1.657   4.351   0.010  0.00  0.00    +0.243 C 
ATOM      2  O   UNL     1       0.441   4.333   0.022  0.00  0.00    -0.273 OA
ENDROOT
BRANCH   1  12
ATOM      3  N   UNL     1       2.211   0.793  -0.015  0.00  0.00    -0.319 N 
ATOM      4  C   UNL     1       1.371  -0.307  -0.013  0.00  0.00    +0.058 A 
ATOM      5  C   UNL     1       1.718  -1.667  -0.023  0.00  0.00    +0.030 A 
ATOM      6  C   UNL     1       0.748  -2.641  -0.020  0.00  0.00    +0.040 A 
ATOM      7  C   UNL     1      -0.599  -2.312  -0.005  0.00  0.00    +0.125 A 
ATOM      8  C   UNL     1      -0.969  -0.977   0.006  0.00  0.00    +0.055 A 
ATOM      9  C   UNL     1       0.002  -0.004   0.002  0.00  0.00    +0.042 A 
ATOM     10  S   UNL     1      -0.022   1.771   0.012  0.00  0.00    -0.052 S 
ATOM     11  C   UNL     1       1.690   2.048  -0.003  0.00  0.00    +0.166 A 
ATOM     12  N   UNL     1       2.338   3.211  -0.003  0.00  0.00    -0.156 NA
ATOM     13  F   UNL     1      -1.540  -3.282  -0.003  0.00  0.00    -0.205 F 
BRANCH   3  14
ATOM     14  C   UNL     1       3.663   0.604  -0.030  0.00  0.00    +0.152 C 
BRANCH  14  15
ATOM     15  C   UNL     1       4.155   0.546  -1.478  0.00  0.00    +0.181 C 
BRANCH  15  17
ATOM     16  C   UNL     1       6.135   0.294  -2.804  0.00  0.00    +0.194 C 
ATOM     17  O   UNL     1       5.572   0.362  -1.493  0.00  0.00    -0.381 OA
ENDBRANCH  15  17
ENDBRANCH  14  15
ENDBRANCH   3  14
ENDBRANCH   1  12
BRANCH   1  18
ATOM     18  C   UNL     1       2.390   5.667   0.010  0.00  0.00    +0.093 C 
ATOM     19  C   UNL     1       3.255   5.770  -1.248  0.00  0.00    +0.015 C 
ATOM     20  C   UNL     1       4.026   7.092  -1.233  0.00  0.00    +0.018 C 
ATOM     21  C   UNL     1       3.032   8.258  -1.233  0.00  0.00    +0.109 C 
ATOM     22  N   UNL     1       2.104   8.088  -0.107  0.00  0.00    -0.175 NA
ATOM     23  C   UNL     1       1.378   6.817   0.025  0.00  0.00    +0.122 C 
BRANCH  22  24
ATOM     24  S   UNL     1       1.879   9.305   0.993  0.00  0.00    +0.067 S 
ATOM     25  O   UNL     1       1.419   8.692   2.189  0.00  0.00    -0.152 OA
ATOM     26  O   UNL     1       3.049  10.111   0.951  0.00  0.00    -0.152 OA
BRANCH  24  27
ATOM     27  C   UNL     1       0.556  10.306   0.399  0.00  0.00    +0.144 A 
ATOM     28  C   UNL     1      -0.773  10.188   0.631  0.00  0.00    +0.038 A 
ATOM     29  C   UNL     1      -1.638  11.102   0.058  0.00  0.00    +0.030 A 
ATOM     30  C   UNL     1      -1.130  12.083  -0.729  0.00  0.00    +0.080 A 
ATOM     31  S   UNL     1       0.620  11.735  -0.669  0.00  0.00    -0.057 S 
ATOM     32 CL   UNL     1      -1.965  13.349  -1.575  0.00  0.00    -0.076 Cl
ENDBRANCH  24  27
ENDBRANCH  22  24
ENDBRANCH   1  18
TORSDOF 7
