REMARK  Name = ZINC14985270
REMARK  9 active torsions:
REMARK  status: ('A' for Active; 'I' for Inactive)
REMARK    1  A    between atoms: C_1  and  C_2
REMARK    2  A    between atoms: C_2  and  C_4
REMARK    3  A    between atoms: C_2  and  N_9
REMARK    4  A    between atoms: N_9  and  C_10
REMARK    5  A    between atoms: C_11  and  C_13
REMARK    6  A    between atoms: C_15  and  C_24
REMARK    7  A    between atoms: C_17  and  N_19
REMARK    8  A    between atoms: C_29  and  O_30
REMARK    9  A    between atoms: O_30  and  C_31
REMARK                            x       y       z     vdW  Elec       q    Type
REMARK                         _______ _______ _______ _____ _____    ______ ____
ROOT
ATOM      1  C   UNL     1       1.554   1.564   2.032  0.00  0.00    +0.039 A 
ATOM      2  C   UNL     1       2.417   1.973   3.049  0.00  0.00    +0.021 A 
ATOM      3  C   UNL     1       3.779   1.712   2.948  0.00  0.00    -0.012 A 
ATOM      4  C   UNL     1       4.280   1.051   1.828  0.00  0.00    +0.036 A 
ATOM      5  C   UNL     1       3.422   0.649   0.816  0.00  0.00    +0.070 A 
ATOM      6  C   UNL     1       2.063   0.903   0.913  0.00  0.00    +0.041 A 
ENDROOT
BRANCH   3   7
ATOM      7  C   UNL     1       4.699   2.140   4.030  0.00  0.00    +0.025 A 
ATOM      8  C   UNL     1       4.655   3.448   4.509  0.00  0.00    +0.032 A 
ATOM      9  C   UNL     1       5.513   3.842   5.516  0.00  0.00    +0.042 A 
ATOM     10  C   UNL     1       6.418   2.941   6.053  0.00  0.00    +0.023 A 
ATOM     11  C   UNL     1       6.469   1.642   5.585  0.00  0.00    +0.047 A 
ATOM     12  C   UNL     1       5.610   1.232   4.578  0.00  0.00    +0.128 A 
ATOM     13 CL   UNL     1       5.458   5.471   6.112  0.00  0.00    -0.084 Cl
BRANCH  12  14
ATOM     14  O   UNL     1       5.656  -0.046   4.121  0.00  0.00    -0.495 OA
ATOM     15  C   UNL     1       6.612  -0.918   4.728  0.00  0.00    +0.277 C 
ENDBRANCH  12  14
ENDBRANCH   3   7
BRANCH   5  16
ATOM     16  N   UNL     1       3.930  -0.016  -0.310  0.00  0.00    -0.200 N 
ATOM     17  C   UNL     1       3.253  -0.388  -1.418  0.00  0.00    +0.250 A 
ATOM     18  N   UNL     1       4.106  -0.977  -2.215  0.00  0.00    -0.116 NA
ATOM     19  N   UNL     1       5.277  -1.002  -1.687  0.00  0.00    -0.023 NA
ATOM     20  N   UNL     1       5.255  -0.433  -0.530  0.00  0.00    -0.039 NA
ENDBRANCH   5  16
BRANCH   1  23
ATOM     21  N   UNL     1      -0.656   1.871   1.025  0.00  0.00    -0.292 N 
ATOM     22  C   UNL     1      -0.107   1.411  -0.253  0.00  0.00    +0.133 C 
ATOM     23  C   UNL     1       0.105   1.836   2.137  0.00  0.00    +0.247 C 
ATOM     24  O   UNL     1      -0.401   2.028   3.225  0.00  0.00    -0.270 OA
BRANCH  21  26
ATOM     25  C   UNL     1      -2.984   1.322   0.515  0.00  0.00    +0.035 C 
ATOM     26  C   UNL     1      -2.032   2.370   1.094  0.00  0.00    +0.129 C 
BRANCH  26  27
ATOM     27  C   UNL     1      -2.145   3.646   0.299  0.00  0.00    +0.098 A 
ATOM     28  N   UNL     1      -2.674   4.794   0.653  0.00  0.00    -0.250 NA
ATOM     29  C   UNL     1      -2.693   5.823  -0.168  0.00  0.00    +0.119 A 
ATOM     30  C   UNL     1      -2.149   5.674  -1.403  0.00  0.00    +0.066 A 
ATOM     31  S   UNL     1      -1.601   3.975  -1.317  0.00  0.00    -0.079 S 
ENDBRANCH  26  27
ENDBRANCH  21  26
ENDBRANCH   1  23
TORSDOF 6
