REMARK  Name = ZINC36027128
REMARK  6 active torsions:
REMARK  status: ('A' for Active; 'I' for Inactive)
REMARK    1  A    between atoms: C_1  and  C_2
REMARK    2  A    between atoms: N_6  and  C_27
REMARK    3  A    between atoms: N_11  and  S_14
REMARK    4  A    between atoms: S_14  and  C_17
REMARK    5  A    between atoms: C_27  and  C_28
REMARK    6  A    between atoms: C_32  and  C_34
REMARK                            x       y       z     vdW  Elec       q    Type
REMARK                         _______ _______ _______ _____ _____    ______ ____
ROOT
ATOM      1  C   UNL     1      -1.450   0.661  -3.553  0.00  0.00    -0.004 C 
ATOM      2  C   UNL     1      -0.349   0.086  -2.660  0.00  0.00    +0.016 C 
ATOM      3  C   UNL     1      -0.954  -0.718  -1.529  0.00  0.00    +0.200 C 
ATOM      4  O   UNL     1      -1.859  -1.518  -1.633  0.00  0.00    -0.277 OA
ATOM      5  N   UNL     1      -0.316  -0.394  -0.385  0.00  0.00    -0.309 N 
ATOM      6  C   UNL     1       0.721   0.603  -0.668  0.00  0.00    +0.006 C 
ATOM      7  N   UNL     1       0.399   1.179  -1.993  0.00  0.00    +0.401 N 
ATOM      8  C   UNL     1       0.702   1.702   0.392  0.00  0.00    +0.023 C 
ATOM      9  C   UNL     1       1.000   1.089   1.765  0.00  0.00    +0.109 C 
ATOM     10  N   UNL     1       2.260   0.339   1.683  0.00  0.00    -0.177 NA
ATOM     11  C   UNL     1       2.405  -0.691   0.645  0.00  0.00    +0.109 C 
ATOM     12  C   UNL     1       2.095  -0.064  -0.718  0.00  0.00    +0.023 C 
ATOM     13  H   UNL     1       1.242   1.396  -2.503  0.00  0.00    -0.082 HD
ATOM     14  H   UNL     1      -0.180   1.998  -1.893  0.00  0.00    -0.082 HD
ENDROOT
BRANCH  10  15
ATOM     15  S   UNL     1       3.496   0.648   2.741  0.00  0.00    +0.063 S 
ATOM     16  O   UNL     1       4.692   0.665   1.975  0.00  0.00    -0.153 OA
ATOM     17  O   UNL     1       3.084   1.752   3.535  0.00  0.00    -0.153 OA
BRANCH  15  18
ATOM     18  C   UNL     1       3.613  -0.736   3.825  0.00  0.00    +0.131 A 
ATOM     19  C   UNL     1       4.742  -1.495   3.845  0.00  0.00    +0.031 A 
ATOM     20  C   UNL     1       4.856  -2.594   4.694  0.00  0.00    +0.003 A 
ATOM     21  C   UNL     1       3.837  -2.939   5.530  0.00  0.00    +0.010 A 
ATOM     22  C   UNL     1       2.657  -2.179   5.536  0.00  0.00    +0.002 A 
ATOM     23  C   UNL     1       2.542  -1.058   4.677  0.00  0.00    +0.097 A 
ATOM     24  N   UNL     1       1.421  -0.328   4.682  0.00  0.00    -0.253 NA
ATOM     25  C   UNL     1       0.419  -0.624   5.474  0.00  0.00    +0.111 A 
ATOM     26  C   UNL     1       0.470  -1.709   6.347  0.00  0.00    +0.020 A 
ATOM     27  C   UNL     1       1.581  -2.503   6.383  0.00  0.00    +0.011 A 
ENDBRANCH  15  18
ENDBRANCH  10  15
BRANCH   5  28
ATOM     28  C   UNL     1      -0.613  -0.952   0.937  0.00  0.00    +0.141 C 
BRANCH  28  29
ATOM     29  C   UNL     1      -1.793  -0.229   1.533  0.00  0.00    -0.030 A 
ATOM     30  C   UNL     1      -2.046  -0.320   2.889  0.00  0.00    +0.005 A 
ATOM     31  C   UNL     1      -3.128   0.343   3.437  0.00  0.00    +0.001 A 
ATOM     32  C   UNL     1      -3.957   1.098   2.628  0.00  0.00    +0.012 A 
ATOM     33  C   UNL     1      -3.704   1.190   1.272  0.00  0.00    +0.055 A 
ATOM     34  C   UNL     1      -2.619   0.530   0.726  0.00  0.00    +0.017 A 
BRANCH  33  35
ATOM     35  C   UNL     1      -4.608   2.012   0.391  0.00  0.00    +0.417 C 
ATOM     36  F   UNL     1      -5.012   3.161   1.080  0.00  0.00    -0.166 F 
ATOM     37  F   UNL     1      -3.919   2.382  -0.769  0.00  0.00    -0.166 F 
ATOM     38  F   UNL     1      -5.734   1.257   0.044  0.00  0.00    -0.166 F 
ENDBRANCH  33  35
ENDBRANCH  28  29
ENDBRANCH   5  28
TORSDOF 5
