REMARK  Name = ZINC60211189
REMARK  13 active torsions:
REMARK  status: ('A' for Active; 'I' for Inactive)
REMARK    1  A    between atoms: C_1  and  C_2
REMARK    2  A    between atoms: C_7  and  C_9
REMARK    3  A    between atoms: C_7  and  C_10
REMARK    4  A    between atoms: N_13  and  C_17
REMARK    5  A    between atoms: C_17  and  C_18
REMARK    6  A    between atoms: N_20  and  C_21
REMARK    7  A    between atoms: C_21  and  C_22
REMARK    8  A    between atoms: C_21  and  C_23
REMARK    9  A    between atoms: C_21  and  C_24
REMARK   10  A    between atoms: C_26  and  C_29
REMARK   11  A    between atoms: C_29  and  C_30
REMARK   12  A    between atoms: C_29  and  C_31
REMARK   13  A    between atoms: C_29  and  C_32
REMARK                            x       y       z     vdW  Elec       q    Type
REMARK                         _______ _______ _______ _____ _____    ______ ____
ROOT
ATOM      1  C   UNL     1      -2.031  -4.134  -3.043  0.00  0.00    +0.213 C 
ENDROOT
BRANCH   1  13
ATOM      2  C   UNL     1      -0.019   1.528   0.010  0.00  0.00    +0.007 C 
ATOM      3  C   UNL     1       0.002  -0.004   0.002  0.00  0.00    -0.011 C 
ATOM      4  C   UNL     1      -1.435  -0.529   0.021  0.00  0.00    +0.038 C 
ATOM      5  C   UNL     1      -1.427  -2.050  -0.036  0.00  0.00    +0.113 C 
ATOM      6  C   UNL     1      -0.575  -2.676   1.049  0.00  0.00    +0.041 C 
ATOM      7  C   UNL     1       0.782  -2.031   1.270  0.00  0.00    -0.032 C 
ATOM      8  C   UNL     1       0.719  -0.508   1.253  0.00  0.00    +0.009 C 
ATOM      9  C   UNL     1       1.296  -2.464   2.661  0.00  0.00    +0.011 C 
ATOM     10  C   UNL     1       1.795  -2.526   0.234  0.00  0.00    +0.011 C 
ATOM     11  C   UNL     1      -1.044  -2.534  -1.413  0.00  0.00    +0.247 C 
ATOM     12  O   UNL     1      -0.058  -2.253  -2.060  0.00  0.00    -0.273 OA
ATOM     13  N   UNL     1      -2.050  -3.344  -1.810  0.00  0.00    -0.215 N 
ATOM     14  C   UNL     1      -3.063  -3.331  -0.937  0.00  0.00    +0.310 C 
ATOM     15  O   UNL     1      -4.088  -3.969  -1.082  0.00  0.00    -0.252 OA
ATOM     16  N   UNL     1      -2.817  -2.537   0.119  0.00  0.00    -0.285 N 
ATOM     17  H   UNL     1      -3.418  -2.318   0.845  0.00  0.00    +0.151 HD
ENDBRANCH   1  13
BRANCH   1  18
ATOM     18  C   UNL     1      -1.431  -5.488  -2.763  0.00  0.00    +0.232 C 
ATOM     19  O   UNL     1      -1.057  -5.765  -1.643  0.00  0.00    -0.274 OA
ATOM     20  N   UNL     1      -1.311  -6.390  -3.757  0.00  0.00    -0.302 N 
ATOM     21  H   UNL     1      -1.611  -6.169  -4.652  0.00  0.00    +0.150 HD
BRANCH  20  22
ATOM     22  C   UNL     1      -0.728  -7.706  -3.484  0.00  0.00    +0.092 C 
ATOM     23  C   UNL     1       0.702  -7.534  -2.967  0.00  0.00    +0.040 C 
ATOM     24  C   UNL     1      -1.568  -8.428  -2.429  0.00  0.00    +0.040 C 
BRANCH  22  25
ATOM     25  C   UNL     1      -0.708  -8.520  -4.753  0.00  0.00    +0.194 A 
ATOM     26  N   UNL     1      -0.248  -9.771  -4.868  0.00  0.00    -0.193 NA
ATOM     27  C   UNL     1      -0.376 -10.183  -6.098  0.00  0.00    +0.233 A 
ATOM     28  O   UNL     1      -0.927  -9.197  -6.816  0.00  0.00    -0.337 OA
ATOM     29  N   UNL     1      -1.141  -8.121  -5.914  0.00  0.00    -0.059 NA
BRANCH  27  30
ATOM     30  C   UNL     1       0.029 -11.537  -6.622  0.00  0.00    +0.041 C 
ATOM     31  C   UNL     1      -0.745 -12.625  -5.875  0.00  0.00    +0.020 C 
ATOM     32  C   UNL     1      -0.288 -11.621  -8.117  0.00  0.00    +0.020 C 
ATOM     33  C   UNL     1       1.530 -11.740  -6.407  0.00  0.00    +0.020 C 
ENDBRANCH  27  30
ENDBRANCH  22  25
ENDBRANCH  20  22
ENDBRANCH   1  18
TORSDOF 5
