REMARK  Name = ZINC14008244
REMARK  8 active torsions:
REMARK  status: ('A' for Active; 'I' for Inactive)
REMARK    1  A    between atoms: C_4  and  C_7
REMARK    2  A    between atoms: C_7  and  C_8
REMARK    3  A    between atoms: C_7  and  C_34
REMARK    4  A    between atoms: C_8  and  C_9
REMARK    5  A    between atoms: C_9  and  N_10
REMARK    6  A    between atoms: C_11  and  C_13
REMARK    7  A    between atoms: C_13  and  C_14
REMARK    8  A    between atoms: N_25  and  C_28
REMARK                            x       y       z     vdW  Elec       q    Type
REMARK                         _______ _______ _______ _____ _____    ______ ____
ROOT
ATOM      1  C   UNL     1      -1.108   2.089  -1.712  0.00  0.00    +0.121 C 
ENDROOT
BRANCH   1   2
ATOM      2  C   UNL     1      -2.259   1.108  -1.942  0.00  0.00    +0.112 C 
ATOM      3  C   UNL     1      -1.881   0.178  -3.104  0.00  0.00    +0.103 C 
ATOM      4  S   UNL     1      -3.250   0.503  -4.275  0.00  0.00    -0.085 S 
ATOM      5  C   UNL     1      -4.165   1.700  -3.326  0.00  0.00    +0.174 A 
ATOM      6  N   UNL     1      -3.487   1.874  -2.154  0.00  0.00    -0.283 N 
ATOM      7  C   UNL     1      -4.010   2.764  -1.250  0.00  0.00    +0.266 A 
ATOM      8  O   UNL     1      -3.446   2.958  -0.187  0.00  0.00    -0.267 OA
ATOM      9  C   UNL     1      -5.203   3.454  -1.553  0.00  0.00    +0.103 A 
ATOM     10  C   UNL     1      -5.989   4.408  -0.871  0.00  0.00    +0.150 A 
ATOM     11  N   UNL     1      -7.008   4.719  -1.623  0.00  0.00    -0.172 NA
ATOM     12  N   UNL     1      -6.945   3.996  -2.821  0.00  0.00    -0.214 N 
ATOM     13  C   UNL     1      -5.832   3.211  -2.785  0.00  0.00    +0.171 A 
ATOM     14  N   UNL     1      -5.276   2.334  -3.626  0.00  0.00    -0.203 NA
BRANCH  12  15
ATOM     15  C   UNL     1      -7.867   4.066  -3.872  0.00  0.00    +0.068 A 
ATOM     16  C   UNL     1      -7.434   3.950  -5.186  0.00  0.00    +0.028 A 
ATOM     17  C   UNL     1      -8.347   4.014  -6.221  0.00  0.00    +0.002 A 
ATOM     18  C   UNL     1      -9.689   4.205  -5.949  0.00  0.00    +0.000 A 
ATOM     19  C   UNL     1     -10.123   4.327  -4.642  0.00  0.00    +0.002 A 
ATOM     20  C   UNL     1      -9.216   4.258  -3.603  0.00  0.00    +0.028 A 
ENDBRANCH  12  15
ENDBRANCH   1   2
BRANCH   1  22
ATOM     21  N   UNL     1       1.320   1.966  -1.256  0.00  0.00    -0.315 N 
ATOM     22  C   UNL     1       0.138   1.325  -1.347  0.00  0.00    +0.215 C 
ATOM     23  O   UNL     1       0.079   0.131  -1.141  0.00  0.00    -0.276 OA
ATOM     24  H   UNL     1       1.367   2.921  -1.421  0.00  0.00    +0.149 HD
BRANCH  21  25
ATOM     25  C   UNL     1       2.533   1.222  -0.907  0.00  0.00    +0.105 C 
BRANCH  25  26
ATOM     26  C   UNL     1       3.726   2.179  -0.871  0.00  0.00    +0.031 C 
BRANCH  26  27
ATOM     27  C   UNL     1       4.992   1.402  -0.506  0.00  0.00    +0.050 C 
BRANCH  27  31
ATOM     28  C   UNL     1       8.375   4.000  -0.744  0.00  0.00    +0.000 A 
ATOM     29  C   UNL     1       7.280   4.359   0.019  0.00  0.00    +0.000 A 
ATOM     30  C   UNL     1       6.185   3.519   0.096  0.00  0.00    +0.004 A 
ATOM     31  C   UNL     1       6.186   2.319  -0.590  0.00  0.00    -0.040 A 
ATOM     32  C   UNL     1       7.283   1.956  -1.349  0.00  0.00    +0.004 A 
ATOM     33  C   UNL     1       8.376   2.799  -1.430  0.00  0.00    +0.000 A 
ENDBRANCH  27  31
BRANCH  27  34
ATOM     34  C   UNL     1       4.867   0.868   0.897  0.00  0.00    -0.040 A 
ATOM     35  C   UNL     1       4.549   1.722   1.936  0.00  0.00    +0.004 A 
ATOM     36  C   UNL     1       4.429   1.230   3.223  0.00  0.00    +0.000 A 
ATOM     37  C   UNL     1       4.639  -0.114   3.472  0.00  0.00    +0.000 A 
ATOM     38  C   UNL     1       4.963  -0.967   2.433  0.00  0.00    +0.000 A 
ATOM     39  C   UNL     1       5.077  -0.476   1.146  0.00  0.00    +0.004 A 
ENDBRANCH  27  34
ENDBRANCH  26  27
ENDBRANCH  25  26
ENDBRANCH  21  25
ENDBRANCH   1  22
TORSDOF 8
