REMARK  Name = ZINC10913206
REMARK  7 active torsions:
REMARK  status: ('A' for Active; 'I' for Inactive)
REMARK    1  A    between atoms: C_7  and  C_13
REMARK    2  A    between atoms: C_13  and  C_14
REMARK    3  A    between atoms: C_14  and  O_16
REMARK    4  A    between atoms: O_16  and  C_17
REMARK    5  A    between atoms: C_17  and  C_18
REMARK    6  A    between atoms: N_20  and  C_21
REMARK    7  A    between atoms: C_22  and  C_30
REMARK                            x       y       z     vdW  Elec       q    Type
REMARK                         _______ _______ _______ _____ _____    ______ ____
ROOT
ATOM      1  C   UNL     1      -8.596   4.077   0.103  0.00  0.00    +0.255 C 
ATOM      2  O   UNL     1      -8.680   2.867   0.097  0.00  0.00    -0.272 OA
ATOM      3  N   UNL     1      -9.714   4.830   0.117  0.00  0.00    -0.277 N 
ATOM      4  H   UNL     1      -9.647   5.798   0.122  0.00  0.00    +0.155 HD
ENDROOT
BRANCH   3   5
ATOM      5  C   UNL     1     -10.960   4.221   0.125  0.00  0.00    +0.084 A 
ATOM      6  C   UNL     1     -12.212   4.819   0.146  0.00  0.00    +0.068 A 
ATOM      7  C   UNL     1     -13.373   3.946   0.145  0.00  0.00    -0.023 A 
ATOM      8  C   UNL     1     -13.099   2.623   0.137  0.00  0.00    -0.004 A 
ATOM      9  S   UNL     1     -11.331   2.528   0.120  0.00  0.00    -0.077 S 
ATOM     10  C   UNL     1     -14.085   1.496   0.141  0.00  0.00    +0.043 C 
ATOM     11  C   UNL     1     -15.459   2.057   0.534  0.00  0.00    +0.005 C 
ATOM     12  C   UNL     1     -15.734   3.315  -0.294  0.00  0.00    +0.005 C 
ATOM     13  C   UNL     1     -14.812   4.448   0.160  0.00  0.00    +0.037 C 
BRANCH   6  14
ATOM     14  C   UNL     1     -12.357   6.278   0.162  0.00  0.00    +0.244 C 
ATOM     15  O   UNL     1     -12.430   6.894  -0.885  0.00  0.00    -0.270 OA
ATOM     16  N   UNL     1     -12.411   6.936   1.337  0.00  0.00    -0.325 N 
ATOM     17  H   UNL     1     -12.353   6.445   2.171  0.00  0.00    +0.145 HD
ATOM     18  H   UNL     1     -12.507   7.902   1.348  0.00  0.00    +0.145 HD
ENDBRANCH   6  14
ENDBRANCH   3   5
BRANCH   1  19
ATOM     19  C   UNL     1      -7.242   4.739   0.094  0.00  0.00    +0.328 C 
BRANCH  19  20
ATOM     20  O   UNL     1      -6.207   3.722   0.079  0.00  0.00    -0.455 OA
BRANCH  20  21
ATOM     21  C   UNL     1      -4.934   4.148   0.070  0.00  0.00    +0.313 C 
ATOM     22  O   UNL     1      -4.693   5.332   0.074  0.00  0.00    -0.250 OA
BRANCH  21  23
ATOM     23  C   UNL     1      -3.805   3.150   0.054  0.00  0.00    +0.178 C 
BRANCH  23  30
ATOM     24  C   UNL     1      -0.013   1.076   0.008  0.00  0.00    +0.001 A 
ATOM     25  C   UNL     1       1.186   1.777   0.000  0.00  0.00    +0.001 A 
ATOM     26  C   UNL     1       1.195   3.155   0.008  0.00  0.00    +0.014 A 
ATOM     27  C   UNL     1      -0.015   3.847   0.023  0.00  0.00    +0.050 A 
ATOM     28  C   UNL     1      -1.233   3.130   0.031  0.00  0.00    +0.011 A 
ATOM     29  C   UNL     1      -1.211   1.734   0.017  0.00  0.00    +0.010 A 
ATOM     30  C   UNL     1      -2.487   3.882   0.046  0.00  0.00    +0.080 A 
ATOM     31  N   UNL     1      -2.466   5.181   0.052  0.00  0.00    -0.175 NA
ATOM     32  N   UNL     1      -1.280   5.916   0.045  0.00  0.00    -0.242 N 
ATOM     33  H   UNL     1      -1.324   6.885   0.050  0.00  0.00    +0.192 HD
ATOM     34  C   UNL     1      -0.072   5.314   0.031  0.00  0.00    +0.272 A 
ATOM     35  O   UNL     1       0.951   5.975   0.025  0.00  0.00    -0.266 OA
ENDBRANCH  23  30
ENDBRANCH  21  23
ENDBRANCH  20  21
ENDBRANCH  19  20
ENDBRANCH   1  19
TORSDOF 7
