REMARK  Name = ZINC17193873
REMARK  3 active torsions:
REMARK  status: ('A' for Active; 'I' for Inactive)
REMARK    1  A    between atoms: C_5  and  N_7
REMARK    2  A    between atoms: C_8  and  C_10
REMARK    3  A    between atoms: C_10  and  N_11
REMARK                            x       y       z     vdW  Elec       q    Type
REMARK                         _______ _______ _______ _____ _____    ______ ____
ROOT
ATOM      1  N   UNL     1      -2.670   3.268   1.700  0.00  0.00    -0.282 N 
ATOM      2  C   UNL     1      -1.599   2.492   1.444  0.00  0.00    +0.239 C 
ATOM      3  O   UNL     1      -0.961   2.018   2.361  0.00  0.00    -0.273 OA
ATOM      4  H   UNL     1      -3.141   3.701   0.971  0.00  0.00    +0.155 HD
ENDROOT
BRANCH   1   9
ATOM      5  C   UNL     1      -2.596   3.687   5.352  0.00  0.00    +0.004 A 
ATOM      6  C   UNL     1      -3.902   3.815   5.689  0.00  0.00    +0.031 A 
ATOM      7  C   UNL     1      -4.905   3.768   4.685  0.00  0.00    +0.102 A 
ATOM      8  C   UNL     1      -4.493   3.584   3.297  0.00  0.00    +0.121 A 
ATOM      9  C   UNL     1      -3.103   3.450   3.015  0.00  0.00    +0.062 A 
ATOM     10  C   UNL     1      -2.197   3.506   4.030  0.00  0.00    +0.025 A 
ATOM     11  N   UNL     1      -5.531   3.564   2.465  0.00  0.00    -0.189 NA
ATOM     12  S   UNL     1      -6.808   3.759   3.353  0.00  0.00    +0.117 S 
ATOM     13  N   UNL     1      -6.227   3.872   4.804  0.00  0.00    -0.191 NA
ENDBRANCH   1   9
BRANCH   2  14
ATOM     14  C   UNL     1      -1.193   2.212   0.020  0.00  0.00    +0.242 C 
BRANCH  14  15
ATOM     15  N   UNL     1      -0.008   1.351   0.010  0.00  0.00    -0.230 N 
ATOM     16  C   UNL     1       0.011   0.006  -0.005  0.00  0.00    +0.197 A 
ATOM     17  N   UNL     1       1.261  -0.382  -0.016  0.00  0.00    -0.194 NA
ATOM     18  C   UNL     1       2.064   0.682  -0.008  0.00  0.00    +0.218 A 
ATOM     19  N   UNL     1       1.333   1.766   0.007  0.00  0.00    -0.141 NA
ATOM     20 BR   UNL     1       3.955   0.631  -0.019  0.00  0.00    -0.005 Br
ATOM     21 BR   UNL     1      -1.504  -1.125  -0.009  0.00  0.00    -0.007 Br
ENDBRANCH  14  15
ENDBRANCH   2  14
TORSDOF 3
