REMARK  Name = ZINC64430298
REMARK  5 active torsions:
REMARK  status: ('A' for Active; 'I' for Inactive)
REMARK    1  A    between atoms: C_3  and  C_13
REMARK    2  A    between atoms: N_14  and  O_15
REMARK    3  A    between atoms: O_15  and  C_16
REMARK    4  A    between atoms: C_16  and  C_17
REMARK    5  A    between atoms: C_20  and  C_23
REMARK                            x       y       z     vdW  Elec       q    Type
REMARK                         _______ _______ _______ _____ _____    ______ ____
ROOT
ATOM      1  C   UNL     1       3.827   1.989  -0.053  0.00  0.00    +0.166 C 
ATOM      2  N   UNL     1       4.211   2.740  -1.045  0.00  0.00    -0.069 NA
ATOM      3  N   UNL     1       4.681   1.760   1.013  0.00  0.00    -0.340 N 
ATOM      4  H   UNL     1       4.395   1.201   1.752  0.00  0.00    +0.144 HD
ATOM      5  H   UNL     1       5.564   2.160   1.021  0.00  0.00    +0.144 HD
ENDROOT
BRANCH   1   8
ATOM      6  C   UNL     1       0.101   1.558  -0.199  0.00  0.00    +0.020 A 
ATOM      7  C   UNL     1       1.341   2.177  -0.192  0.00  0.00    +0.016 A 
ATOM      8  C   UNL     1       2.480   1.379  -0.065  0.00  0.00    +0.058 A 
ATOM      9  C   UNL     1       2.324  -0.011   0.050  0.00  0.00    +0.132 A 
ATOM     10  N   UNL     1       1.117  -0.552   0.038  0.00  0.00    -0.240 NA
ATOM     11  C   UNL     1       0.027   0.183  -0.081  0.00  0.00    +0.113 A 
ATOM     12  N   UNL     1       3.441  -0.822   0.177  0.00  0.00    -0.315 N 
ATOM     13  C   UNL     1       3.904  -1.256   1.502  0.00  0.00    +0.106 C 
ATOM     14  C   UNL     1       4.026  -2.783   1.506  0.00  0.00    +0.019 C 
ATOM     15  C   UNL     1       4.928  -3.221   0.349  0.00  0.00    +0.003 C 
ATOM     16  C   UNL     1       4.303  -2.790  -0.979  0.00  0.00    +0.019 C 
ATOM     17  C   UNL     1       4.181  -1.268  -1.011  0.00  0.00    +0.106 C 
ENDBRANCH   1   8
BRANCH   2  18
ATOM     18  O   UNL     1       3.304   3.055  -2.086  0.00  0.00    -0.388 OA
BRANCH  18  19
ATOM     19  C   UNL     1       3.822   3.976  -3.048  0.00  0.00    +0.298 C 
BRANCH  19  20
ATOM     20  C   UNL     1       2.740   4.332  -4.035  0.00  0.00    -0.008 A 
ATOM     21  C   UNL     1       2.509   3.516  -5.128  0.00  0.00    +0.008 A 
ATOM     22  C   UNL     1       1.521   3.837  -6.035  0.00  0.00    +0.013 A 
ATOM     23  C   UNL     1       0.753   4.987  -5.848  0.00  0.00    +0.037 A 
ATOM     24  C   UNL     1       0.991   5.806  -4.744  0.00  0.00    +0.013 A 
ATOM     25  C   UNL     1       1.979   5.471  -3.841  0.00  0.00    +0.008 A 
BRANCH  23  26
ATOM     26  C   UNL     1      -0.308   5.337  -6.817  0.00  0.00    +0.242 C 
ATOM     27  O   UNL     1      -0.513   4.622  -7.778  0.00  0.00    -0.270 OA
ATOM     28  N   UNL     1      -1.048   6.449  -6.633  0.00  0.00    -0.325 N 
ATOM     29  H   UNL     1      -0.884   7.019  -5.866  0.00  0.00    +0.145 HD
ATOM     30  H   UNL     1      -1.744   6.678  -7.269  0.00  0.00    +0.145 HD
ENDBRANCH  23  26
ENDBRANCH  19  20
ENDBRANCH  18  19
ENDBRANCH   2  18
TORSDOF 5
