REMARK  Name = ZINC04730149
REMARK  4 active torsions:
REMARK  status: ('A' for Active; 'I' for Inactive)
REMARK    1  A    between atoms: C_4  and  O_31
REMARK    2  A    between atoms: C_5  and  C_7
REMARK    3  A    between atoms: C_10  and  C_22
REMARK    4  A    between atoms: C_12  and  C_15
REMARK                            x       y       z     vdW  Elec       q    Type
REMARK                         _______ _______ _______ _____ _____    ______ ____
ROOT
ATOM      1  C   UNL     1       1.227  -2.187  -0.022  0.00  0.00    -0.028 C 
ATOM      2  C   UNL     1       1.360  -2.710   1.412  0.00  0.00    +0.044 C 
ATOM      3  C   UNL     1       1.077  -4.187   1.432  0.00  0.00    +0.040 C 
ATOM      4  N   UNL     1       0.508  -4.797   0.459  0.00  0.00    -0.299 NA
ATOM      5  C   UNL     1       0.080  -4.147  -0.773  0.00  0.00    +0.081 C 
ATOM      6  N   UNL     1      -0.034  -2.696  -0.585  0.00  0.00    +0.401 N 
ATOM      7  H   UNL     1      -0.793  -2.497   0.050  0.00  0.00    -0.081 HD
ATOM      8  H   UNL     1      -0.210  -2.253  -1.474  0.00  0.00    -0.081 HD
ENDROOT
BRANCH   3   9
ATOM      9  C   UNL     1       1.470  -4.965   2.621  0.00  0.00    -0.001 A 
ATOM     10  C   UNL     1       2.087  -4.330   3.701  0.00  0.00    +0.013 A 
ATOM     11  C   UNL     1       2.454  -5.059   4.811  0.00  0.00    +0.050 A 
ATOM     12  C   UNL     1       2.213  -6.425   4.861  0.00  0.00    +0.166 A 
ATOM     13  C   UNL     1       1.597  -7.066   3.785  0.00  0.00    +0.167 A 
ATOM     14  C   UNL     1       1.222  -6.339   2.672  0.00  0.00    +0.059 A 
ATOM     15  O   UNL     1       1.476  -8.393   4.081  0.00  0.00    -0.453 OA
ATOM     16  C   UNL     1       2.389  -8.630   5.169  0.00  0.00    +0.466 C 
ATOM     17  O   UNL     1       2.475  -7.352   5.827  0.00  0.00    -0.453 OA
ENDBRANCH   3   9
BRANCH   5  18
ATOM     18  C   UNL     1      -1.260  -4.699  -1.185  0.00  0.00    -0.039 A 
ATOM     19  C   UNL     1      -2.148  -3.906  -1.889  0.00  0.00    +0.004 A 
ATOM     20  C   UNL     1      -3.377  -4.413  -2.267  0.00  0.00    +0.002 A 
ATOM     21  C   UNL     1      -3.719  -5.712  -1.943  0.00  0.00    +0.020 A 
ATOM     22  C   UNL     1      -2.832  -6.506  -1.239  0.00  0.00    +0.041 A 
ATOM     23  C   UNL     1      -1.599  -6.000  -0.865  0.00  0.00    +0.023 A 
ATOM     24 CL   UNL     1      -3.261  -8.138  -0.831  0.00  0.00    -0.084 Cl
ENDBRANCH   5  18
BRANCH   1  29
ATOM     25  C   UNL     1      -0.017   1.378   0.010  0.00  0.00    +0.000 A 
ATOM     26  C   UNL     1       1.170   2.088   0.002  0.00  0.00    +0.004 A 
ATOM     27  C   UNL     1       2.377   1.417  -0.013  0.00  0.00    +0.045 A 
ATOM     28  C   UNL     1       2.399   0.030  -0.021  0.00  0.00    +0.118 A 
ATOM     29  C   UNL     1       1.207  -0.680  -0.013  0.00  0.00    -0.019 A 
ATOM     30  C   UNL     1       0.002  -0.004   0.002  0.00  0.00    +0.005 A 
BRANCH  28  31
ATOM     31  O   UNL     1       3.586  -0.632  -0.037  0.00  0.00    -0.507 OA
ATOM     32  H   UNL     1       3.938  -0.829   0.842  0.00  0.00    +0.292 HD
ENDBRANCH  28  31
ENDBRANCH   1  29
TORSDOF 4
