REMARK  Name = ZINC39711247
REMARK  13 active torsions:
REMARK  status: ('A' for Active; 'I' for Inactive)
REMARK    1  A    between atoms: C_1  and  C_2
REMARK    2  A    between atoms: C_6  and  C_15
REMARK    3  A    between atoms: C_13  and  C_14
REMARK    4  A    between atoms: C_15  and  C_17
REMARK    5  A    between atoms: C_15  and  N_27
REMARK    6  A    between atoms: N_22  and  C_23
REMARK    7  A    between atoms: C_23  and  C_24
REMARK    8  A    between atoms: C_23  and  C_25
REMARK    9  A    between atoms: C_23  and  C_26
REMARK   10  A    between atoms: N_27  and  C_28
REMARK   11  A    between atoms: N_27  and  C_36
REMARK   12  A    between atoms: C_28  and  C_29
REMARK   13  A    between atoms: C_36  and  C_37
REMARK                            x       y       z     vdW  Elec       q    Type
REMARK                         _______ _______ _______ _____ _____    ______ ____
ROOT
ATOM      1  C   UNL     1       1.428  -5.043  -3.069  0.00  0.00    -0.008 C 
ENDROOT
BRANCH   1   7
ATOM      2  C   UNL     1       0.769   1.930  -1.677  0.00  0.00    +0.044 C 
ATOM      3  C   UNL     1       0.480   0.474  -1.421  0.00  0.00    -0.047 A 
ATOM      4  C   UNL     1       0.633  -0.422  -2.431  0.00  0.00    +0.013 A 
ATOM      5  C   UNL     1       0.350  -1.834  -2.170  0.00  0.00    -0.007 A 
ATOM      6  C   UNL     1       0.491  -2.768  -3.153  0.00  0.00    -0.006 C 
ATOM      7  C   UNL     1       0.176  -4.207  -2.794  0.00  0.00    +0.088 C 
ATOM      8  C   UNL     1      -0.267  -4.489  -1.376  0.00  0.00    +0.223 C 
ATOM      9  O   UNL     1      -0.531  -5.626  -1.034  0.00  0.00    -0.275 OA
ATOM     10  N   UNL     1      -0.365  -3.495  -0.510  0.00  0.00    -0.285 N 
ATOM     11  C   UNL     1      -0.090  -2.228  -0.821  0.00  0.00    +0.041 A 
ATOM     12  C   UNL     1      -0.217  -1.221   0.153  0.00  0.00    +0.027 A 
ATOM     13  C   UNL     1       0.066   0.072  -0.151  0.00  0.00    -0.046 A 
ATOM     14  C   UNL     1      -0.078   1.117   0.926  0.00  0.00    +0.044 C 
ATOM     15  H   UNL     1      -0.652  -3.697   0.395  0.00  0.00    +0.155 HD
ENDBRANCH   1   7
BRANCH   1  16
ATOM     16  C   UNL     1       1.734  -5.026  -4.568  0.00  0.00    +0.205 C 
ATOM     17  N   UNL     1       3.061  -5.601  -4.827  0.00  0.00    -0.152 NA
ATOM     18  N   UNL     1       3.772  -4.742  -5.351  0.00  0.00    -0.070 NA
ATOM     19  N   UNL     1       3.113  -3.526  -5.529  0.00  0.00    -0.179 N 
ATOM     20  N   UNL     1       1.827  -3.636  -5.059  0.00  0.00    -0.183 NA
ATOM     21  H   UNL     1       3.501  -2.729  -5.922  0.00  0.00    +0.191 HD
BRANCH  20  22
ATOM     22  C   UNL     1       0.851  -3.389  -6.129  0.00  0.00    +0.035 C 
ATOM     23  C   UNL     1      -0.544  -3.793  -5.650  0.00  0.00    +0.029 C 
ATOM     24  C   UNL     1       0.856  -1.902  -6.491  0.00  0.00    +0.029 C 
ATOM     25  C   UNL     1       1.226  -4.214  -7.362  0.00  0.00    +0.029 C 
ENDBRANCH  20  22
ENDBRANCH   1  16
BRANCH   1  26
ATOM     26  N   UNL     1       1.198  -6.427  -2.632  0.00  0.00    +0.392 N 
ATOM     27  H   UNL     1       0.885  -6.429  -1.673  0.00  0.00    -0.080 HD
BRANCH  26  28
ATOM     28  C   UNL     1       0.172  -7.045  -3.483  0.00  0.00    -0.040 C 
BRANCH  28  29
ATOM     29  C   UNL     1      -0.055  -8.468  -3.042  0.00  0.00    -0.046 A 
ATOM     30  C   UNL     1       0.709  -9.488  -3.578  0.00  0.00    +0.003 A 
ATOM     31  C   UNL     1       0.501 -10.793  -3.175  0.00  0.00    +0.000 A 
ATOM     32  C   UNL     1      -0.471 -11.080  -2.234  0.00  0.00    +0.001 A 
ATOM     33  C   UNL     1      -1.236 -10.062  -1.698  0.00  0.00    +0.020 A 
ATOM     34  C   UNL     1      -1.024  -8.754  -2.097  0.00  0.00    +0.042 A 
ATOM     35 CL   UNL     1      -1.980  -7.473  -1.419  0.00  0.00    -0.083 Cl
ENDBRANCH  28  29
ENDBRANCH  26  28
BRANCH  26  36
ATOM     36  C   UNL     1       2.449  -7.189  -2.741  0.00  0.00    -0.002 C 
BRANCH  36  37
ATOM     37  C   UNL     1       3.496  -6.565  -1.856  0.00  0.00    +0.089 A 
ATOM     38  C   UNL     1       3.783  -6.935  -0.595  0.00  0.00    +0.042 A 
ATOM     39  C   UNL     1       4.822  -6.088  -0.145  0.00  0.00    +0.041 A 
ATOM     40  C   UNL     1       5.108  -5.250  -1.158  0.00  0.00    +0.195 A 
ATOM     41  O   UNL     1       4.306  -5.548  -2.194  0.00  0.00    -0.470 OA
ENDBRANCH  36  37
ENDBRANCH  26  36
ENDBRANCH   1  26
TORSDOF 8
