REMARK  Name = ZINC39261273
REMARK  10 active torsions:
REMARK  status: ('A' for Active; 'I' for Inactive)
REMARK    1  A    between atoms: C_1  and  C_2
REMARK    2  A    between atoms: C_5  and  C_33
REMARK    3  A    between atoms: C_6  and  C_8
REMARK    4  A    between atoms: C_8  and  N_9
REMARK    5  A    between atoms: C_10  and  C_32
REMARK    6  A    between atoms: C_11  and  C_18
REMARK    7  A    between atoms: C_18  and  C_19
REMARK    8  A    between atoms: C_19  and  N_20
REMARK    9  A    between atoms: C_21  and  C_23
REMARK   10  A    between atoms: C_28  and  C_31
REMARK                            x       y       z     vdW  Elec       q    Type
REMARK                         _______ _______ _______ _____ _____    ______ ____
ROOT
ATOM      1  N   UNL     1       1.226  -2.589   3.156  0.00  0.00    -0.339 N 
ATOM      2  C   UNL     1       2.083  -3.457   2.538  0.00  0.00    +0.020 A 
ATOM      3  C   UNL     1       3.323  -3.304   3.030  0.00  0.00    -0.018 A 
ATOM      4  C   UNL     1       3.254  -2.252   4.047  0.00  0.00    +0.003 A 
ATOM      5  C   UNL     1       1.911  -1.833   4.081  0.00  0.00    +0.050 A 
ATOM      6  C   UNL     1       1.534  -0.825   4.962  0.00  0.00    +0.026 A 
ATOM      7  C   UNL     1       2.477  -0.247   5.784  0.00  0.00    +0.002 A 
ATOM      8  C   UNL     1       3.801  -0.661   5.743  0.00  0.00    +0.001 A 
ATOM      9  C   UNL     1       4.191  -1.657   4.892  0.00  0.00    +0.010 A 
ATOM     10  C   UNL     1       1.694  -4.440   1.463  0.00  0.00    +0.064 C 
ENDROOT
BRANCH   1  11
ATOM     11  C   UNL     1      -0.207  -2.477   2.873  0.00  0.00    +0.157 C 
BRANCH  11  17
ATOM     12  C   UNL     1      -0.269  -5.960   6.465  0.00  0.00    +0.044 C 
ATOM     13  C   UNL     1      -1.006  -5.038   5.529  0.00  0.00    -0.050 A 
ATOM     14  C   UNL     1      -2.388  -5.013   5.529  0.00  0.00    +0.003 A 
ATOM     15  C   UNL     1      -3.064  -4.167   4.671  0.00  0.00    +0.004 A 
ATOM     16  C   UNL     1      -2.359  -3.346   3.811  0.00  0.00    -0.046 A 
ATOM     17  C   UNL     1      -0.977  -3.371   3.810  0.00  0.00    -0.025 A 
ATOM     18  C   UNL     1      -0.300  -4.214   4.673  0.00  0.00    +0.009 A 
ATOM     19  C   UNL     1      -3.096  -2.425   2.873  0.00  0.00    +0.044 C 
ENDBRANCH  11  17
ENDBRANCH   1  11
BRANCH   3  20
ATOM     20  C   UNL     1       4.553  -4.070   2.614  0.00  0.00    +0.056 C 
BRANCH  20  21
ATOM     21  C   UNL     1       5.247  -3.336   1.465  0.00  0.00    +0.109 C 
BRANCH  21  22
ATOM     22  N   UNL     1       6.442  -4.081   1.062  0.00  0.00    -0.315 N 
ATOM     23  C   UNL     1       7.217  -3.620   0.060  0.00  0.00    +0.216 C 
ATOM     24  O   UNL     1       6.925  -2.588  -0.508  0.00  0.00    -0.276 OA
ATOM     25  H   UNL     1       6.676  -4.905   1.516  0.00  0.00    +0.149 HD
BRANCH  23  26
ATOM     26  C   UNL     1       8.447  -4.385  -0.355  0.00  0.00    +0.075 C 
ATOM     27  C   UNL     1       9.405  -4.494   0.833  0.00  0.00    +0.013 C 
ATOM     28  C   UNL     1      10.654  -5.272   0.411  0.00  0.00    +0.001 C 
ATOM     29  C   UNL     1      11.348  -4.538  -0.738  0.00  0.00    +0.003 C 
ATOM     30  C   UNL     1      10.390  -4.429  -1.926  0.00  0.00    -0.013 C 
ATOM     31  C   UNL     1       9.141  -3.651  -1.504  0.00  0.00    +0.016 C 
ATOM     32  C   UNL     1      11.084  -3.695  -3.075  0.00  0.00    +0.007 C 
ENDBRANCH  23  26
ENDBRANCH  21  22
ENDBRANCH  20  21
ENDBRANCH   3  20
TORSDOF 6
