REMARK  Name = ZINC47146665
REMARK  2 active torsions:
REMARK  status: ('A' for Active; 'I' for Inactive)
REMARK    1  A    between atoms: C_4  and  N_7
REMARK    2  A    between atoms: C_12  and  C_26
REMARK                            x       y       z     vdW  Elec       q    Type
REMARK                         _______ _______ _______ _____ _____    ______ ____
ROOT
ATOM      1  N   UNL     1       3.624  -0.652  -0.037  0.00  0.00    -0.209 N 
ATOM      2  C   UNL     1       3.720  -2.008  -0.051  0.00  0.00    +0.232 C 
ATOM      3  O   UNL     1       2.828  -2.803   0.153  0.00  0.00    -0.274 OA
ATOM      4  C   UNL     1       5.148  -2.319  -0.369  0.00  0.00    +0.110 C 
ATOM      5  C   UNL     1       5.780  -3.557   0.217  0.00  0.00    +0.073 C 
ATOM      6  C   UNL     1       7.233  -3.577  -0.166  0.00  0.00    +0.033 A 
ATOM      7  C   UNL     1       8.029  -2.563  -0.570  0.00  0.00    +0.088 A 
ATOM      8  N   UNL     1       9.320  -2.921  -0.867  0.00  0.00    -0.311 N 
ATOM      9  H   UNL     1       9.951  -2.251  -1.174  0.00  0.00    +0.170 HD
ATOM     10  C   UNL     1       9.712  -4.202  -0.730  0.00  0.00    +0.289 A 
ATOM     11  O   UNL     1      10.810  -4.683  -0.944  0.00  0.00    -0.260 OA
ATOM     12  S   UNL     1       8.320  -4.978  -0.192  0.00  0.00    -0.030 S 
ATOM     13  S   UNL     1       7.408  -0.890  -0.681  0.00  0.00    -0.093 S 
ATOM     14  C   UNL     1       5.856  -1.079   0.254  0.00  0.00    +0.152 C 
ATOM     15  C   UNL     1       4.827  -0.022  -0.047  0.00  0.00    +0.240 C 
ATOM     16  O   UNL     1       5.030   1.155  -0.255  0.00  0.00    -0.274 OA
ENDROOT
BRANCH   1  20
ATOM     17  C   UNL     1      -0.017   1.379   0.010  0.00  0.00    +0.000 A 
ATOM     18  C   UNL     1       1.170   2.089   0.002  0.00  0.00    +0.002 A 
ATOM     19  C   UNL     1       2.377   1.419  -0.013  0.00  0.00    +0.024 A 
ATOM     20  C   UNL     1       2.399   0.031  -0.021  0.00  0.00    +0.044 A 
ATOM     21  C   UNL     1       1.207  -0.680  -0.013  0.00  0.00    +0.024 A 
ATOM     22  C   UNL     1       0.002  -0.004   0.002  0.00  0.00    +0.002 A 
ENDBRANCH   1  20
BRANCH   5  23
ATOM     23  C   UNL     1       5.092  -4.783  -0.325  0.00  0.00    -0.021 A 
ATOM     24  C   UNL     1       4.457  -5.669   0.532  0.00  0.00    +0.007 A 
ATOM     25  C   UNL     1       3.837  -6.783  -0.012  0.00  0.00    +0.020 A 
ATOM     26  C   UNL     1       3.872  -6.973  -1.381  0.00  0.00    +0.111 A 
ATOM     27  N   UNL     1       4.486  -6.109  -2.166  0.00  0.00    -0.263 NA
ATOM     28  C   UNL     1       5.080  -5.035  -1.684  0.00  0.00    +0.115 A 
ENDBRANCH   5  23
TORSDOF 2
