REMARK  Name = ZINC41349459
REMARK  4 active torsions:
REMARK  status: ('A' for Active; 'I' for Inactive)
REMARK    1  A    between atoms: C_1  and  N_2
REMARK    2  A    between atoms: N_2  and  C_3
REMARK    3  A    between atoms: C_10  and  C_12
REMARK    4  A    between atoms: C_17  and  N_18
REMARK                            x       y       z     vdW  Elec       q    Type
REMARK                         _______ _______ _______ _____ _____    ______ ____
ROOT
ATOM      1  C   UNL     1       0.866   1.194  -0.088  0.00  0.00    +0.138 C 
ATOM      2  N   UNL     1       0.451  -0.211  -0.095  0.00  0.00    -0.269 N 
ATOM      3  C   UNL     1      -0.066  -0.755  -1.214  0.00  0.00    +0.252 C 
ATOM      4  O   UNL     1      -0.500  -1.891  -1.193  0.00  0.00    -0.270 OA
ENDROOT
BRANCH   2   5
ATOM      5  C   UNL     1       0.591  -0.987   1.061  0.00  0.00    +0.055 A 
ATOM      6  C   UNL     1      -0.443  -1.054   1.984  0.00  0.00    +0.025 A 
ATOM      7  C   UNL     1      -0.302  -1.821   3.124  0.00  0.00    +0.002 A 
ATOM      8  C   UNL     1       0.869  -2.524   3.346  0.00  0.00    +0.002 A 
ATOM      9  C   UNL     1       1.902  -2.460   2.429  0.00  0.00    +0.022 A 
ATOM     10  C   UNL     1       1.764  -1.698   1.284  0.00  0.00    +0.062 A 
ATOM     11 CL   UNL     1       3.058  -1.625   0.128  0.00  0.00    -0.082 Cl
ENDBRANCH   2   5
BRANCH   3  12
ATOM     12  C   UNL     1      -0.107   0.027  -2.463  0.00  0.00    +0.058 A 
ATOM     13  C   UNL     1       1.014   0.753  -2.874  0.00  0.00    +0.015 A 
ATOM     14  C   UNL     1       0.970   1.481  -4.043  0.00  0.00    +0.001 A 
ATOM     15  C   UNL     1      -0.182   1.498  -4.814  0.00  0.00    +0.002 A 
ATOM     16  C   UNL     1      -1.296   0.787  -4.422  0.00  0.00    +0.023 A 
ATOM     17  C   UNL     1      -1.269   0.042  -3.249  0.00  0.00    +0.037 A 
BRANCH  17  18
ATOM     18  N   UNL     1      -2.388  -0.680  -2.855  0.00  0.00    -0.357 N 
ATOM     19  H   UNL     1      -2.355  -1.227  -2.054  0.00  0.00    +0.142 HD
ATOM     20  H   UNL     1      -3.203  -0.637  -3.380  0.00  0.00    +0.142 HD
ENDBRANCH  17  18
ENDBRANCH   3  12
TORSDOF 3
