REMARK  Name = ZINC12950224
REMARK  7 active torsions:
REMARK  status: ('A' for Active; 'I' for Inactive)
REMARK    1  A    between atoms: C_6  and  C_7
REMARK    2  A    between atoms: C_10  and  C_30
REMARK    3  A    between atoms: C_15  and  C_17
REMARK    4  A    between atoms: N_19  and  C_20
REMARK    5  A    between atoms: C_20  and  C_21
REMARK    6  A    between atoms: C_21  and  C_22
REMARK    7  A    between atoms: C_22  and  N_23
REMARK                            x       y       z     vdW  Elec       q    Type
REMARK                         _______ _______ _______ _____ _____    ______ ____
ROOT
ATOM      1  C   UNL     1      -1.293  -0.775   0.011  0.00  0.00    +0.104 C 
ATOM      2  C   UNL     1      -1.616  -1.254  -1.409  0.00  0.00    +0.063 C 
ATOM      3  C   UNL     1      -0.455  -2.094  -1.954  0.00  0.00    +0.215 C 
ATOM      4  N   UNL     1      -0.099  -3.111  -0.961  0.00  0.00    -0.237 N 
ATOM      5  C   UNL     1      -0.438  -3.033   0.361  0.00  0.00    +0.137 A 
ATOM      6  C   UNL     1       0.041  -4.128   0.983  0.00  0.00    +0.112 A 
ATOM      7  C   UNL     1       0.704  -4.914   0.014  0.00  0.00    +0.167 A 
ATOM      8  N   UNL     1       0.614  -4.294  -1.151  0.00  0.00    -0.163 NA
ATOM      9 CL   UNL     1      -0.125  -4.504   2.670  0.00  0.00    -0.078 Cl
ATOM     10  N   UNL     1      -1.162  -1.954   0.890  0.00  0.00    -0.321 N 
ATOM     11  H   UNL     1      -1.555  -1.979   1.777  0.00  0.00    +0.148 HD
ENDROOT
BRANCH   1  17
ATOM     12  C   UNL     1      -0.017   1.378   0.010  0.00  0.00    +0.007 A 
ATOM     13  C   UNL     1       1.171   2.086   0.002  0.00  0.00    +0.020 A 
ATOM     14  C   UNL     1       2.378   1.410  -0.013  0.00  0.00    +0.041 A 
ATOM     15  C   UNL     1       2.396   0.027  -0.021  0.00  0.00    +0.020 A 
ATOM     16  C   UNL     1       1.208  -0.679  -0.013  0.00  0.00    +0.007 A 
ATOM     17  C   UNL     1       0.002  -0.004   0.002  0.00  0.00    -0.027 A 
ATOM     18 CL   UNL     1       3.870   2.298  -0.023  0.00  0.00    -0.084 Cl
ENDBRANCH   1  17
BRANCH   7  19
ATOM     19  C   UNL     1       1.380  -6.204   0.259  0.00  0.00    +0.266 C 
ATOM     20  O   UNL     1       1.397  -6.678   1.378  0.00  0.00    -0.268 OA
ATOM     21  N   UNL     1       1.977  -6.856  -0.759  0.00  0.00    -0.310 N 
ATOM     22  H   UNL     1       1.963  -6.478  -1.652  0.00  0.00    +0.149 HD
BRANCH  21  23
ATOM     23  C   UNL     1       2.648  -8.136  -0.516  0.00  0.00    +0.106 C 
BRANCH  23  24
ATOM     24  C   UNL     1       3.238  -8.659  -1.827  0.00  0.00    +0.040 C 
BRANCH  24  25
ATOM     25  C   UNL     1       3.938  -9.996  -1.573  0.00  0.00    +0.124 C 
BRANCH  25  26
ATOM     26  N   UNL     1       4.504 -10.497  -2.828  0.00  0.00    -0.338 N 
ATOM     27  C   UNL     1       3.874 -11.303  -3.738  0.00  0.00    +0.104 A 
ATOM     28  C   UNL     1       4.750 -11.520  -4.738  0.00  0.00    +0.101 A 
ATOM     29  N   UNL     1       5.883 -10.864  -4.447  0.00  0.00    -0.352 N 
ATOM     30  C   UNL     1       5.741 -10.245  -3.307  0.00  0.00    +0.173 A 
ATOM     31  H   UNL     1       6.681 -10.850  -4.998  0.00  0.00    +0.166 HD
ENDBRANCH  25  26
ENDBRANCH  24  25
ENDBRANCH  23  24
ENDBRANCH  21  23
ENDBRANCH   7  19
BRANCH   3  32
ATOM     32  C   UNL     1      -0.882  -2.773  -3.257  0.00  0.00    +0.412 C 
ATOM     33  F   UNL     1      -1.233  -1.799  -4.197  0.00  0.00    -0.168 F 
ATOM     34  F   UNL     1       0.179  -3.539  -3.752  0.00  0.00    -0.168 F 
ATOM     35  F   UNL     1      -1.981  -3.603  -3.012  0.00  0.00    -0.168 F 
ENDBRANCH   3  32
TORSDOF 7
