REMARK  Name = ZINC20583738
REMARK  10 active torsions:
REMARK  status: ('A' for Active; 'I' for Inactive)
REMARK    1  A    between atoms: C_1  and  O_2
REMARK    2  A    between atoms: O_2  and  C_3
REMARK    3  A    between atoms: C_7  and  C_9
REMARK    4  A    between atoms: C_9  and  C_10
REMARK    5  A    between atoms: C_10  and  N_11
REMARK    6  A    between atoms: C_14  and  C_17
REMARK    7  A    between atoms: C_17  and  N_18
REMARK    8  A    between atoms: N_18  and  S_19
REMARK    9  A    between atoms: S_19  and  C_22
REMARK   10  A    between atoms: C_25  and  C_27
REMARK                            x       y       z     vdW  Elec       q    Type
REMARK                         _______ _______ _______ _____ _____    ______ ____
ROOT
ATOM      1  C   UNL     1       0.758  11.515  -1.678  0.00  0.00    +0.109 C 
ENDROOT
BRANCH   1   5
ATOM      2  N   UNL     1      -0.100   7.337  -1.400  0.00  0.00    +0.380 N 
ATOM      3  C   UNL     1       0.886   7.869  -0.451  0.00  0.00    -0.079 C 
ATOM      4  C   UNL     1       0.742   9.390  -0.361  0.00  0.00    -0.014 C 
ATOM      5  C   UNL     1       0.961  10.001  -1.748  0.00  0.00    +0.001 C 
ATOM      6  C   UNL     1      -0.048   9.394  -2.729  0.00  0.00    -0.014 C 
ATOM      7  C   UNL     1       0.119   7.873  -2.749  0.00  0.00    -0.079 C 
ATOM      8  H   UNL     1      -1.096   7.665  -1.067  0.00  0.00    -0.082 HD
BRANCH   2   9
ATOM      9  C   UNL     1      -0.084   5.868  -1.408  0.00  0.00    -0.074 C 
BRANCH   9  10
ATOM     10  C   UNL     1      -0.065   5.351   0.032  0.00  0.00    +0.017 C 
BRANCH  10  15
ATOM     11  C   UNL     1      -1.223   1.754   0.017  0.00  0.00    +0.120 A 
ATOM     12  C   UNL     1      -0.013   1.076   0.008  0.00  0.00    +0.045 A 
ATOM     13  C   UNL     1       1.174   1.783   0.000  0.00  0.00    +0.004 A 
ATOM     14  C   UNL     1       1.156   3.166   0.008  0.00  0.00    +0.004 A 
ATOM     15  C   UNL     1      -0.049   3.844   0.023  0.00  0.00    -0.046 A 
ATOM     16  C   UNL     1      -1.239   3.141   0.031  0.00  0.00    +0.049 A 
BRANCH  11  18
ATOM     17  C   UNL     1      -2.300  -0.366   0.011  0.00  0.00    +0.277 C 
ATOM     18  O   UNL     1      -2.392   1.060   0.019  0.00  0.00    -0.495 OA
ENDBRANCH  11  18
ENDBRANCH  10  15
ENDBRANCH   9  10
ENDBRANCH   2   9
ENDBRANCH   1   5
BRANCH   1  19
ATOM     19  N   UNL     1       1.797  12.108  -0.833  0.00  0.00    -0.189 NA
ATOM     20  H   UNL     1       2.290  11.501  -0.059  0.00  0.00    +0.148 HD
BRANCH  19  21
ATOM     21  S   UNL     1       2.060  13.743  -0.868  0.00  0.00    +0.065 S 
ATOM     22  O   UNL     1       3.097  14.008   0.067  0.00  0.00    -0.153 OA
ATOM     23  O   UNL     1       2.157  14.110  -2.237  0.00  0.00    -0.153 OA
BRANCH  21  24
ATOM     24  C   UNL     1       0.607  14.518  -0.240  0.00  0.00    +0.143 A 
ATOM     25  C   UNL     1       0.300  14.845   1.041  0.00  0.00    +0.037 A 
ATOM     26  C   UNL     1      -0.906  15.455   1.307  0.00  0.00    +0.020 A 
ATOM     27  C   UNL     1      -1.762  15.704   0.267  0.00  0.00    +0.041 A 
ATOM     28  S   UNL     1      -0.843  15.068  -1.125  0.00  0.00    -0.067 S 
BRANCH  27  29
ATOM     29  C   UNL     1      -3.098  16.333   0.291  0.00  0.00    +0.098 A 
ATOM     30  C   UNL     1      -3.824  16.496  -0.914  0.00  0.00    +0.036 A 
ATOM     31  C   UNL     1      -5.053  17.081  -0.853  0.00  0.00    +0.073 A 
ATOM     32  C   UNL     1      -5.529  17.490   0.413  0.00  0.00    +0.265 A 
ATOM     33  O   UNL     1      -6.625  18.018   0.516  0.00  0.00    -0.266 OA
ATOM     34  N   UNL     1      -4.766  17.293   1.505  0.00  0.00    -0.243 N 
ATOM     35  H   UNL     1      -5.128  17.613   2.493  0.00  0.00    +0.192 HD
ATOM     36  N   UNL     1      -3.612  16.736   1.432  0.00  0.00    -0.170 NA
ENDBRANCH  27  29
ENDBRANCH  21  24
ENDBRANCH  19  21
ENDBRANCH   1  19
TORSDOF 9
