REMARK  Name = ZINC66977978
REMARK  4 active torsions:
REMARK  status: ('A' for Active; 'I' for Inactive)
REMARK    1  A    between atoms: C_9  and  N_12
REMARK    2  A    between atoms: C_18  and  N_21
REMARK    3  A    between atoms: C_22  and  C_24
REMARK    4  A    between atoms: C_24  and  C_25
REMARK                            x       y       z     vdW  Elec       q    Type
REMARK                         _______ _______ _______ _____ _____    ______ ____
ROOT
ATOM      1  N   UNL     1       4.872  -2.835   0.138  0.00  0.00    -0.296 N 
ATOM      2  C   UNL     1       5.845  -2.805   1.069  0.00  0.00    +0.302 C 
ATOM      3  O   UNL     1       5.710  -2.124   2.067  0.00  0.00    -0.253 OA
ATOM      4  N   UNL     1       6.968  -3.530   0.895  0.00  0.00    -0.286 N 
ATOM      5  C   UNL     1       7.197  -4.265  -0.357  0.00  0.00    +0.111 C 
ATOM      6  C   UNL     1       7.495  -5.730  -0.021  0.00  0.00    +0.041 C 
ATOM      7  C   UNL     1       8.660  -5.795   0.969  0.00  0.00    +0.076 C 
ATOM      8  C   UNL     1       8.275  -5.072   2.262  0.00  0.00    +0.041 C 
ATOM      9  C   UNL     1       7.989  -3.595   1.949  0.00  0.00    +0.111 C 
ATOM     10  H   UNL     1       5.009  -3.319  -0.692  0.00  0.00    +0.151 HD
ENDROOT
BRANCH   1  19
ATOM     11  C   UNL     1      -0.021   1.370   0.013  0.00  0.00    +0.000 A 
ATOM     12  C   UNL     1       1.169   2.074   0.005  0.00  0.00    +0.000 A 
ATOM     13  C   UNL     1       2.368   1.392  -0.014  0.00  0.00    +0.004 A 
ATOM     14  C   UNL     1       2.390   0.003  -0.023  0.00  0.00    -0.042 A 
ATOM     15  C   UNL     1       1.205  -0.698  -0.010  0.00  0.00    -0.044 A 
ATOM     16  C   UNL     1      -0.001  -0.009   0.005  0.00  0.00    +0.004 A 
ATOM     17  C   UNL     1       1.154  -2.203  -0.003  0.00  0.00    +0.037 C 
ATOM     18  C   UNL     1       2.492  -2.788  -0.450  0.00  0.00    +0.027 C 
ATOM     19  C   UNL     1       3.606  -2.137   0.378  0.00  0.00    +0.079 C 
ATOM     20  C   UNL     1       3.734  -0.677  -0.052  0.00  0.00    +0.057 C 
ENDBRANCH   1  19
BRANCH   7  21
ATOM     21  N   UNL     1       8.969  -7.196   1.268  0.00  0.00    -0.312 N 
ATOM     22  C   UNL     1      10.205  -7.540   1.678  0.00  0.00    +0.214 C 
ATOM     23  O   UNL     1      11.062  -6.691   1.801  0.00  0.00    -0.276 OA
ATOM     24  H   UNL     1       8.284  -7.875   1.169  0.00  0.00    +0.149 HD
BRANCH  22  25
ATOM     25  C   UNL     1      10.523  -8.981   1.985  0.00  0.00    +0.099 C 
BRANCH  25  26
ATOM     26  C   UNL     1      11.983  -9.098   2.427  0.00  0.00    -0.002 C 
ATOM     27  C   UNL     1      12.921  -8.789   1.241  0.00  0.00    +0.004 C 
ATOM     28  C   UNL     1      14.102  -9.774   1.424  0.00  0.00    +0.000 C 
ATOM     29  C   UNL     1      13.400 -11.060   1.927  0.00  0.00    +0.000 C 
ATOM     30  C   UNL     1      12.288 -10.542   2.863  0.00  0.00    +0.004 C 
ENDBRANCH  25  26
ENDBRANCH  22  25
ENDBRANCH   7  21
TORSDOF 4
