REMARK  Name = ZINC64363663
REMARK  6 active torsions:
REMARK  status: ('A' for Active; 'I' for Inactive)
REMARK    1  A    between atoms: C_1  and  C_2
REMARK    2  A    between atoms: C_2  and  C_3
REMARK    3  A    between atoms: C_2  and  C_4
REMARK    4  A    between atoms: C_7  and  C_31
REMARK    5  A    between atoms: C_10  and  C_12
REMARK    6  A    between atoms: C_14  and  C_25
REMARK                            x       y       z     vdW  Elec       q    Type
REMARK                         _______ _______ _______ _____ _____    ______ ____
ROOT
ATOM      1  C   UNL     1      -0.786  -0.617  -0.002  0.00  0.00    +0.238 C 
ATOM      2  O   UNL     1      -0.961  -1.292   0.990  0.00  0.00    -0.274 OA
ATOM      3  N   UNL     1      -1.792  -0.434  -0.879  0.00  0.00    -0.185 N 
ATOM      4  C   UNL     1      -3.175  -0.911  -0.711  0.00  0.00    +0.137 C 
ATOM      5  C   UNL     1      -3.876  -0.426  -1.996  0.00  0.00    +0.083 C 
ATOM      6  C   UNL     1      -2.780   0.286  -2.757  0.00  0.00    +0.055 C 
ATOM      7  N   UNL     1      -1.699   0.244  -2.093  0.00  0.00    -0.185 NA
ENDROOT
BRANCH   6   8
ATOM      8  C   UNL     1      -2.948   0.951  -4.099  0.00  0.00    +0.152 C 
ATOM      9  C   UNL     1      -1.730   1.820  -4.344  0.00  0.00    -0.014 C 
ATOM     10  C   UNL     1      -0.981   1.553  -5.493  0.00  0.00    +0.002 A 
ATOM     11  C   UNL     1       0.168   2.314  -5.797  0.00  0.00    +0.030 A 
ATOM     12  C   UNL     1       0.880   2.033  -6.923  0.00  0.00    +0.042 A 
ATOM     13  C   UNL     1       0.496   1.007  -7.785  0.00  0.00    +0.022 A 
ATOM     14  C   UNL     1      -0.602   0.239  -7.544  0.00  0.00    +0.025 A 
ATOM     15  C   UNL     1      -1.385   0.473  -6.400  0.00  0.00    +0.041 A 
ATOM     16  N   UNL     1      -2.464  -0.282  -6.165  0.00  0.00    -0.284 N 
ATOM     17  C   UNL     1      -3.247  -0.127  -5.117  0.00  0.00    +0.230 C 
ATOM     18  O   UNL     1      -4.212  -0.853  -4.968  0.00  0.00    -0.274 OA
ATOM     19 CL   UNL     1       2.293   2.971  -7.292  0.00  0.00    -0.084 Cl
ATOM     20  H   UNL     1      -2.681  -0.982  -6.801  0.00  0.00    +0.155 HD
BRANCH   9  21
ATOM     21  C   UNL     1      -1.367   2.857  -3.447  0.00  0.00    -0.020 A 
ATOM     22  C   UNL     1      -0.137   2.809  -2.772  0.00  0.00    +0.008 A 
ATOM     23  C   UNL     1       0.205   3.821  -1.903  0.00  0.00    +0.001 A 
ATOM     24  C   UNL     1      -0.659   4.883  -1.694  0.00  0.00    +0.000 A 
ATOM     25  C   UNL     1      -1.875   4.940  -2.356  0.00  0.00    +0.001 A 
ATOM     26  C   UNL     1      -2.234   3.941  -3.233  0.00  0.00    +0.008 A 
ENDBRANCH   9  21
ENDBRANCH   6   8
BRANCH   4  27
ATOM     27  C   UNL     1      -3.211  -2.415  -0.617  0.00  0.00    -0.021 A 
ATOM     28  C   UNL     1      -2.366  -3.175  -1.405  0.00  0.00    +0.009 A 
ATOM     29  C   UNL     1      -2.394  -4.555  -1.322  0.00  0.00    +0.050 A 
ATOM     30  C   UNL     1      -3.271  -5.179  -0.450  0.00  0.00    +0.166 A 
ATOM     31  C   UNL     1      -4.122  -4.413   0.343  0.00  0.00    +0.167 A 
ATOM     32  C   UNL     1      -4.084  -3.031   0.260  0.00  0.00    +0.055 A 
ATOM     33  O   UNL     1      -4.879  -5.253   1.108  0.00  0.00    -0.453 OA
ATOM     34  C   UNL     1      -4.771  -6.545   0.482  0.00  0.00    +0.466 C 
ATOM     35  O   UNL     1      -3.494  -6.499  -0.181  0.00  0.00    -0.453 OA
ENDBRANCH   4  27
BRANCH   1  37
ATOM     36  C   UNL     1       0.649   1.340   0.509  0.00  0.00    +0.017 C 
ATOM     37  C   UNL     1       0.558   0.017  -0.254  0.00  0.00    +0.071 C 
ATOM     38  C   UNL     1       1.665  -0.925   0.224  0.00  0.00    +0.017 C 
ENDBRANCH   1  37
TORSDOF 4
