REMARK  Name = ZINC37316369
REMARK  5 active torsions:
REMARK  status: ('A' for Active; 'I' for Inactive)
REMARK    1  A    between atoms: C_1  and  C_2
REMARK    2  A    between atoms: C_5  and  C_9
REMARK    3  A    between atoms: C_7  and  C_8
REMARK    4  A    between atoms: C_9  and  N_10
REMARK    5  A    between atoms: N_10  and  C_11
REMARK                            x       y       z     vdW  Elec       q    Type
REMARK                         _______ _______ _______ _____ _____    ______ ____
ROOT
ATOM      1  C   UNL     1       1.720  -6.118  -0.041  0.00  0.00    +0.044 A 
ATOM      2  C   UNL     1       0.677  -7.032  -0.046  0.00  0.00    +0.051 A 
ATOM      3  C   UNL     1       0.951  -8.391  -0.055  0.00  0.00    +0.069 A 
ATOM      4  C   UNL     1       2.275  -8.835  -0.059  0.00  0.00    +0.068 A 
ATOM      5  C   UNL     1       3.314  -7.917  -0.054  0.00  0.00    +0.045 A 
ATOM      6  C   UNL     1       3.038  -6.563  -0.050  0.00  0.00    +0.041 A 
ATOM      7 BR   UNL     1       4.456  -5.312  -0.051  0.00  0.00    -0.048 Br
ATOM      8  N   UNL     1       2.231 -10.229  -0.069  0.00  0.00    -0.306 N 
ATOM      9  H   UNL     1       2.999 -10.822  -0.073  0.00  0.00    +0.170 HD
ATOM     10  C   UNL     1       0.941 -10.613  -0.070  0.00  0.00    +0.325 A 
ATOM     11  O   UNL     1       0.552 -11.766  -0.077  0.00  0.00    -0.247 OA
ATOM     12  N   UNL     1       0.145  -9.527  -0.062  0.00  0.00    -0.306 N 
ATOM     13  H   UNL     1      -0.825  -9.534  -0.060  0.00  0.00    +0.170 HD
ENDROOT
BRANCH   1  14
ATOM     14  N   UNL     1       1.447  -4.746  -0.032  0.00  0.00    -0.339 N 
ATOM     15  H   UNL     1       2.176  -4.106  -0.032  0.00  0.00    +0.146 HD
BRANCH  14  16
ATOM     16  C   UNL     1       0.059  -4.275  -0.021  0.00  0.00    +0.137 C 
BRANCH  16  21
ATOM     17  C   UNL     1      -0.018   1.503   0.010  0.00  0.00    +0.044 C 
ATOM     18  C   UNL     1       0.002  -0.004   0.002  0.00  0.00    -0.048 A 
ATOM     19  C   UNL     1       0.006  -0.689  -1.199  0.00  0.00    +0.004 A 
ATOM     20  C   UNL     1       0.025  -2.071  -1.207  0.00  0.00    +0.005 A 
ATOM     21  C   UNL     1       0.040  -2.768  -0.013  0.00  0.00    -0.030 A 
ATOM     22  C   UNL     1       0.037  -2.084   1.188  0.00  0.00    +0.008 A 
ATOM     23  C   UNL     1       0.023  -0.702   1.195  0.00  0.00    -0.047 A 
ATOM     24  C   UNL     1       0.025   0.045   2.504  0.00  0.00    +0.044 C 
ENDBRANCH  16  21
ENDBRANCH  14  16
ENDBRANCH   1  14
TORSDOF 3
