REMARK  Name = ZINC13425633
REMARK  3 active torsions:
REMARK  status: ('A' for Active; 'I' for Inactive)
REMARK    1  A    between atoms: C_2  and  C_13
REMARK    2  A    between atoms: C_14  and  C_15
REMARK    3  A    between atoms: C_20  and  C_23
REMARK                            x       y       z     vdW  Elec       q    Type
REMARK                         _______ _______ _______ _____ _____    ______ ____
ROOT
ATOM      1  C   UNL     1      -0.851  -2.872   2.262  0.00  0.00    +0.013 C 
ATOM      2  C   UNL     1      -0.823  -4.221   2.242  0.00  0.00    +0.068 C 
ENDROOT
BRANCH   1   4
ATOM      3  C   UNL     1      -0.434  -0.710   1.105  0.00  0.00    +0.057 A 
ATOM      4  C   UNL     1      -0.406  -2.110   1.086  0.00  0.00    -0.020 A 
ATOM      5  C   UNL     1       0.047  -2.782  -0.055  0.00  0.00    +0.031 A 
ATOM      6  C   UNL     1       0.464  -2.066  -1.158  0.00  0.00    +0.087 A 
ATOM      7  C   UNL     1       0.434  -0.678  -1.134  0.00  0.00    +0.180 A 
ATOM      8  C   UNL     1      -0.015  -0.004  -0.004  0.00  0.00    +0.164 A 
ATOM      9  O   UNL     1      -0.039   1.361   0.002  0.00  0.00    -0.488 OA
ATOM     10  C   UNL     1       1.235   2.008  -0.007  0.00  0.00    +0.232 C 
ATOM     11  C   UNL     1       1.766   2.135  -1.426  0.00  0.00    +0.082 C 
ATOM     12  C   UNL     1       2.052   0.783  -2.060  0.00  0.00    +0.232 C 
ATOM     13  O   UNL     1       0.846   0.034  -2.222  0.00  0.00    -0.487 OA
ATOM     14 CL   UNL     1       1.027  -2.899  -2.573  0.00  0.00    -0.080 Cl
ENDBRANCH   1   4
BRANCH   2  15
ATOM     15  C   UNL     1      -1.265  -4.979   3.412  0.00  0.00    +0.239 C 
ATOM     16  O   UNL     1      -1.568  -4.396   4.436  0.00  0.00    -0.271 OA
ATOM     17  N   UNL     1      -1.338  -6.324   3.355  0.00  0.00    -0.298 N 
ATOM     18  C   UNL     1      -0.877  -7.049   2.163  0.00  0.00    +0.109 C 
ATOM     19  C   UNL     1      -1.999  -7.962   1.671  0.00  0.00    +0.034 C 
ATOM     20  C   UNL     1      -2.460  -8.864   2.818  0.00  0.00    +0.105 C 
ATOM     21  C   UNL     1      -3.002  -8.003   3.961  0.00  0.00    +0.034 C 
ATOM     22  C   UNL     1      -1.886  -7.092   4.482  0.00  0.00    +0.109 C 
BRANCH  20  23
ATOM     23  C   UNL     1      -3.545  -9.786   2.326  0.00  0.00    +0.359 C 
ATOM     24  O   UNL     1      -4.640  -9.758   2.837  0.00  0.00    -0.246 OA
ATOM     25  O   UNL     1      -3.296 -10.639   1.319  0.00  0.00    -0.246 OA
ENDBRANCH  20  23
ENDBRANCH   2  15
TORSDOF 3
