REMARK  Name = ZINC40826612
REMARK  11 active torsions:
REMARK  status: ('A' for Active; 'I' for Inactive)
REMARK    1  A    between atoms: C_1  and  C_2
REMARK    2  A    between atoms: C_2  and  O_3
REMARK    3  A    between atoms: O_3  and  C_4
REMARK    4  A    between atoms: C_9  and  N_10
REMARK    5  A    between atoms: C_11  and  C_13
REMARK    6  A    between atoms: C_14  and  C_38
REMARK    7  A    between atoms: N_22  and  N_23
REMARK    8  A    between atoms: C_24  and  C_26
REMARK    9  A    between atoms: C_26  and  C_27
REMARK   10  A    between atoms: C_34  and  C_37
REMARK   11  A    between atoms: C_35  and  C_36
REMARK                            x       y       z     vdW  Elec       q    Type
REMARK                         _______ _______ _______ _____ _____    ______ ____
ROOT
ATOM      1  C   UNL     1      -6.309  -1.220  -0.158  0.00  0.00    +0.193 A 
ATOM      2  C   UNL     1      -7.609  -1.631  -0.251  0.00  0.00    +0.009 A 
ATOM      3  C   UNL     1      -8.384  -0.467  -0.319  0.00  0.00    +0.042 A 
ATOM      4  C   UNL     1      -7.524   0.605  -0.267  0.00  0.00    +0.115 A 
ATOM      5  O   UNL     1      -6.284   0.132  -0.162  0.00  0.00    -0.454 OA
ATOM      6  C   UNL     1      -7.993   2.037  -0.321  0.00  0.00    +0.075 C 
ATOM      7  C   UNL     1      -9.392   2.090  -0.940  0.00  0.00    +0.014 C 
ATOM      8  C   UNL     1     -10.343   1.135  -0.209  0.00  0.00    +0.058 C 
ATOM      9  C   UNL     1      -9.849  -0.287  -0.426  0.00  0.00    +0.070 C 
ATOM     10  N   UNL     1     -10.653  -1.271  -0.688  0.00  0.00    -0.184 NA
ATOM     11  C   UNL     1      -8.109  -3.053  -0.275  0.00  0.00    +0.048 C 
ENDROOT
BRANCH   1  13
ATOM     12  N   UNL     1      -3.902  -1.566   0.030  0.00  0.00    -0.276 N 
ATOM     13  C   UNL     1      -5.137  -2.098  -0.062  0.00  0.00    +0.284 C 
ATOM     14  O   UNL     1      -5.280  -3.307  -0.067  0.00  0.00    -0.266 OA
ATOM     15  H   UNL     1      -3.793  -0.606   0.115  0.00  0.00    +0.155 HD
BRANCH  12  21
ATOM     16  C   UNL     1      -1.584  -1.981   0.590  0.00  0.00    +0.142 A 
ATOM     17  C   UNL     1      -0.476  -2.812   0.565  0.00  0.00    +0.047 A 
ATOM     18  C   UNL     1      -0.554  -4.052  -0.043  0.00  0.00    +0.004 A 
ATOM     19  C   UNL     1      -1.736  -4.466  -0.628  0.00  0.00    +0.002 A 
ATOM     20  C   UNL     1      -2.846  -3.643  -0.608  0.00  0.00    +0.027 A 
ATOM     21  C   UNL     1      -2.777  -2.400   0.004  0.00  0.00    +0.076 A 
BRANCH  16  22
ATOM     22  O   UNL     1      -1.509  -0.762   1.188  0.00  0.00    -0.490 OA
BRANCH  22  24
ATOM     23  C   UNL     1      -0.362   0.994   2.387  0.00  0.00    +0.048 C 
ATOM     24  C   UNL     1      -0.254  -0.400   1.766  0.00  0.00    +0.226 C 
ENDBRANCH  22  24
ENDBRANCH  16  22
ENDBRANCH  12  21
ENDBRANCH   1  13
BRANCH  10  25
ATOM     25  N   UNL     1     -12.033  -1.043  -0.778  0.00  0.00    -0.206 N 
ATOM     26  C   UNL     1     -12.868  -2.065  -1.049  0.00  0.00    +0.237 C 
ATOM     27  O   UNL     1     -12.426  -3.183  -1.215  0.00  0.00    -0.274 OA
ATOM     28  H   UNL     1     -12.386  -0.150  -0.645  0.00  0.00    +0.177 HD
BRANCH  26  29
ATOM     29  C   UNL     1     -14.352  -1.820  -1.146  0.00  0.00    +0.136 C 
BRANCH  29  30
ATOM     30  C   UNL     1     -15.056  -3.116  -1.456  0.00  0.00    +0.007 A 
ATOM     31  C   UNL     1     -15.409  -3.570  -2.666  0.00  0.00    +0.200 A 
ATOM     32  O   UNL     1     -16.018  -4.763  -2.553  0.00  0.00    -0.462 OA
ATOM     33  C   UNL     1     -16.093  -5.145  -1.262  0.00  0.00    +0.138 A 
ATOM     34  C   UNL     1     -15.488  -4.136  -0.493  0.00  0.00    +0.024 A 
ATOM     35  C   UNL     1     -15.413  -4.262   0.893  0.00  0.00    +0.012 A 
ATOM     36  C   UNL     1     -15.933  -5.382   1.504  0.00  0.00    +0.004 A 
ATOM     37  C   UNL     1     -16.527  -6.380   0.745  0.00  0.00    -0.044 A 
ATOM     38  C   UNL     1     -16.614  -6.264  -0.626  0.00  0.00    -0.005 A 
ATOM     39  C   UNL     1     -17.261  -7.359  -1.435  0.00  0.00    +0.048 C 
ATOM     40  C   UNL     1     -17.091  -7.599   1.428  0.00  0.00    +0.044 C 
ENDBRANCH  29  30
ENDBRANCH  26  29
ENDBRANCH  10  25
TORSDOF 7
