REMARK  Name = ZINC39894087
REMARK  7 active torsions:
REMARK  status: ('A' for Active; 'I' for Inactive)
REMARK    1  A    between atoms: C_1  and  C_2
REMARK    2  A    between atoms: C_4  and  N_27
REMARK    3  A    between atoms: C_7  and  N_8
REMARK    4  A    between atoms: N_8  and  C_9
REMARK    5  A    between atoms: C_11  and  C_26
REMARK    6  A    between atoms: C_12  and  C_24
REMARK    7  A    between atoms: N_15  and  C_18
REMARK                            x       y       z     vdW  Elec       q    Type
REMARK                         _______ _______ _______ _____ _____    ______ ____
ROOT
ATOM      1  C   UNL     1       0.134  -0.695   3.568  0.00  0.00    +0.085 C 
ATOM      2  C   UNL     1       0.198  -0.012   4.779  0.00  0.00    +0.055 C 
ATOM      3  C   UNL     1       0.130   1.399   4.809  0.00  0.00    -0.015 C 
ATOM      4  C   UNL     1       0.196   2.044   6.036  0.00  0.00    +0.118 C 
ATOM      5  C   UNL     1       0.333   1.254   7.261  0.00  0.00    +0.264 C 
ATOM      6  O   UNL     1       0.391   1.820   8.338  0.00  0.00    -0.269 OA
ATOM      7  N   UNL     1       0.396  -0.088   7.212  0.00  0.00    -0.230 N 
ATOM      8  C   UNL     1       0.330  -0.749   6.043  0.00  0.00    +0.255 C 
ATOM      9  O   UNL     1       0.384  -1.965   6.031  0.00  0.00    -0.269 OA
ATOM     10  C   UNL     1      -0.010   2.188   3.533  0.00  0.00    +0.046 C 
ENDROOT
BRANCH   7  11
ATOM     11  C   UNL     1       0.533  -0.845   8.458  0.00  0.00    +0.085 C 
ATOM     12  C   UNL     1      -0.663  -0.554   9.367  0.00  0.00    +0.023 C 
ATOM     13  C   UNL     1      -0.519  -1.346  10.668  0.00  0.00    +0.002 C 
ATOM     14  C   UNL     1       0.772  -0.932  11.377  0.00  0.00    +0.000 C 
ATOM     15  C   UNL     1       1.968  -1.223  10.469  0.00  0.00    +0.002 C 
ATOM     16  C   UNL     1       1.825  -0.431   9.167  0.00  0.00    +0.023 C 
ENDBRANCH   7  11
BRANCH   1  17
ATOM     17  N   UNL     1      -0.237  -0.046   2.449  0.00  0.00    -0.320 N 
ATOM     18  H   UNL     1      -0.418   0.906   2.477  0.00  0.00    +0.152 HD
BRANCH  17  25
ATOM     19  C   UNL     1      -1.026   1.402   0.131  0.00  0.00    +0.046 C 
ATOM     20  C   UNL     1      -0.743  -0.077   0.089  0.00  0.00    -0.027 A 
ATOM     21  C   UNL     1      -0.858  -0.770  -1.101  0.00  0.00    +0.038 A 
ATOM     22  C   UNL     1      -0.599  -2.128  -1.140  0.00  0.00    +0.127 A 
ATOM     23  C   UNL     1      -0.224  -2.797   0.011  0.00  0.00    +0.034 A 
ATOM     24  C   UNL     1      -0.107  -2.111   1.204  0.00  0.00    +0.026 A 
ATOM     25  C   UNL     1      -0.360  -0.745   1.245  0.00  0.00    +0.034 A 
BRANCH  22  26
ATOM     26  N   UNL     1      -0.724  -2.867  -2.416  0.00  0.00    +0.056 N 
ATOM     27  O   UNL     1      -1.052  -2.283  -3.423  0.00  0.00    -0.126 OA
ATOM     28  O   UNL     1      -0.497  -4.054  -2.452  0.00  0.00    -0.126 OA
ENDBRANCH  22  26
ENDBRANCH  17  25
ENDBRANCH   1  17
BRANCH   4  29
ATOM     29  C   UNL     1       0.132   3.473   6.103  0.00  0.00    +0.105 C 
ATOM     30  N   UNL     1       0.080   4.606   6.156  0.00  0.00    -0.191 NA
ENDBRANCH   4  29
TORSDOF 5
