REMARK  Name = ZINC67043081
REMARK  3 active torsions:
REMARK  status: ('A' for Active; 'I' for Inactive)
REMARK    1  A    between atoms: C_6  and  C_7
REMARK    2  A    between atoms: N_16  and  C_17
REMARK    3  A    between atoms: C_17  and  C_18
REMARK                            x       y       z     vdW  Elec       q    Type
REMARK                         _______ _______ _______ _____ _____    ______ ____
ROOT
ATOM      1  C   UNL     1      -1.297  -0.772   0.013  0.00  0.00    +0.166 C 
ATOM      2  C   UNL     1      -1.619  -1.244  -1.409  0.00  0.00    +0.145 C 
ATOM      3  N   UNL     1      -2.779  -2.148  -1.347  0.00  0.00    -0.281 N 
ATOM      4  C   UNL     1      -2.742  -3.255  -0.379  0.00  0.00    +0.137 C 
ATOM      5  C   UNL     1      -2.365  -2.686   0.994  0.00  0.00    +0.179 C 
ATOM      6  O   UNL     1      -1.170  -1.910   0.871  0.00  0.00    -0.369 OA
ATOM      7  C   UNL     1      -3.844  -1.966  -2.153  0.00  0.00    +0.302 C 
ATOM      8  O   UNL     1      -4.752  -2.774  -2.151  0.00  0.00    -0.253 OA
ATOM      9  N   UNL     1      -3.902  -0.888  -2.960  0.00  0.00    -0.299 N 
ATOM     10  H   UNL     1      -3.146  -0.283  -3.016  0.00  0.00    +0.150 HD
ENDROOT
BRANCH   1  16
ATOM     11  C   UNL     1      -0.022   1.381   0.015  0.00  0.00    +0.009 A 
ATOM     12  C   UNL     1       1.164   2.091   0.009  0.00  0.00    +0.041 A 
ATOM     13  C   UNL     1       2.373   1.419  -0.005  0.00  0.00    +0.158 A 
ATOM     14  C   UNL     1       2.393   0.032  -0.013  0.00  0.00    +0.159 A 
ATOM     15  C   UNL     1       1.204  -0.676  -0.007  0.00  0.00    +0.047 A 
ATOM     16  C   UNL     1      -0.002  -0.001   0.007  0.00  0.00    -0.015 A 
ATOM     17  F   UNL     1       3.572  -0.627  -0.027  0.00  0.00    -0.202 F 
ATOM     18  F   UNL     1       3.532   2.112  -0.011  0.00  0.00    -0.202 F 
ENDBRANCH   1  16
BRANCH   9  19
ATOM     19  C   UNL     1      -5.106  -0.631  -3.753  0.00  0.00    +0.111 C 
BRANCH  19  20
ATOM     20  C   UNL     1      -4.912   0.644  -4.576  0.00  0.00    +0.029 C 
ATOM     21  C   UNL     1      -3.797   0.419  -5.611  0.00  0.00    +0.029 C 
ATOM     22  C   UNL     1      -3.834   1.596  -6.626  0.00  0.00    +0.166 C 
ATOM     23  S   UNL     1      -5.652   1.794  -6.847  0.00  0.00    -0.031 S 
ATOM     24  O   UNL     1      -5.975   3.177  -6.806  0.00  0.00    -0.174 OA
ATOM     25  O   UNL     1      -6.071   1.011  -7.957  0.00  0.00    -0.174 OA
ATOM     26  C   UNL     1      -6.236   0.996  -5.297  0.00  0.00    +0.171 C 
ENDBRANCH  19  20
ENDBRANCH   9  19
TORSDOF 3
