REMARK  Name = ZINC08442765
REMARK  14 active torsions:
REMARK  status: ('A' for Active; 'I' for Inactive)
REMARK    1  A    between atoms: C_1  and  C_2
REMARK    2  A    between atoms: C_2  and  O_3
REMARK    3  A    between atoms: O_3  and  C_4
REMARK    4  A    between atoms: C_4  and  C_6
REMARK    5  A    between atoms: C_9  and  O_32
REMARK    6  A    between atoms: N_13  and  C_30
REMARK    7  A    between atoms: C_14  and  C_15
REMARK    8  A    between atoms: C_15  and  S_16
REMARK    9  A    between atoms: S_16  and  C_17
REMARK   10  A    between atoms: C_18  and  C_28
REMARK   11  A    between atoms: C_19  and  C_27
REMARK   12  A    between atoms: C_20  and  C_24
REMARK   13  A    between atoms: C_21  and  C_23
REMARK   14  A    between atoms: C_24  and  C_25
REMARK                            x       y       z     vdW  Elec       q    Type
REMARK                         _______ _______ _______ _____ _____    ______ ____
ROOT
ATOM      1  C   UNL     1      -1.295   1.928   0.019  0.00  0.00    +0.088 A 
ATOM      2  C   UNL     1      -2.068   2.371  -1.157  0.00  0.00    +0.018 A 
ATOM      3  C   UNL     1      -1.881   2.263  -2.533  0.00  0.00    +0.057 A 
ATOM      4  C   UNL     1      -2.824   2.792  -3.394  0.00  0.00    +0.131 A 
ATOM      5  C   UNL     1      -3.956   3.425  -2.888  0.00  0.00    +0.061 A 
ATOM      6  C   UNL     1      -4.152   3.530  -1.529  0.00  0.00    +0.045 A 
ATOM      7  C   UNL     1      -3.213   3.003  -0.648  0.00  0.00    +0.051 A 
ATOM      8  N   UNL     1      -3.134   2.955   0.731  0.00  0.00    -0.345 N 
ATOM      9  C   UNL     1      -2.003   2.321   1.117  0.00  0.00    +0.044 A 
ATOM     10  C   UNL     1      -4.135   3.511   1.645  0.00  0.00    +0.149 C 
ATOM     11 BR   UNL     1      -5.238   4.145  -4.078  0.00  0.00    -0.046 Br
ENDROOT
BRANCH   1  12
ATOM     12  C   UNL     1      -0.014   1.212   0.009  0.00  0.00    +0.342 C 
ATOM     13  O   UNL     1       0.002  -0.004   0.002  0.00  0.00    -0.245 OA
BRANCH  12  14
ATOM     14  O   UNL     1       1.144   1.902   0.001  0.00  0.00    -0.461 OA
BRANCH  14  16
ATOM     15  C   UNL     1       3.573   2.076  -0.021  0.00  0.00    +0.048 C 
ATOM     16  C   UNL     1       2.372   1.128  -0.015  0.00  0.00    +0.229 C 
ENDBRANCH  14  16
ENDBRANCH  12  14
ENDBRANCH   1  12
BRANCH   4  17
ATOM     17  O   UNL     1      -2.644   2.695  -4.738  0.00  0.00    -0.506 OA
ATOM     18  H   UNL     1      -2.160   3.438  -5.125  0.00  0.00    +0.292 HD
ENDBRANCH   4  17
BRANCH   9  19
ATOM     19  C   UNL     1      -1.587   2.084   2.547  0.00  0.00    +0.130 C 
BRANCH  19  20
ATOM     20  S   UNL     1      -2.254   0.501   3.115  0.00  0.00    -0.098 S 
BRANCH  20  21
ATOM     21  C   UNL     1      -1.633   0.481   4.764  0.00  0.00    +0.115 A 
ATOM     22  C   UNL     1      -1.919  -0.609   5.606  0.00  0.00    +0.087 A 
ATOM     23  C   UNL     1      -1.414  -0.601   6.911  0.00  0.00    -0.025 A 
ATOM     24  C   UNL     1      -0.653   0.482   7.316  0.00  0.00    -0.018 A 
ATOM     25  C   UNL     1      -0.415   1.516   6.430  0.00  0.00    +0.043 A 
ATOM     26  N   UNL     1      -0.895   1.490   5.202  0.00  0.00    -0.244 NA
ATOM     27  C   UNL     1       0.414   2.694   6.874  0.00  0.00    +0.066 C 
ATOM     28  C   UNL     1      -1.693  -1.744   7.853  0.00  0.00    +0.045 C 
BRANCH  22  29
ATOM     29  C   UNL     1      -2.713  -1.704   5.137  0.00  0.00    +0.102 C 
ATOM     30  N   UNL     1      -3.342  -2.574   4.765  0.00  0.00    -0.191 NA
ENDBRANCH  22  29
BRANCH  24  31
ATOM     31  C   UNL     1      -0.088   0.533   8.712  0.00  0.00    +0.063 C 
BRANCH  31  32
ATOM     32  C   UNL     1       1.276  -0.108   8.726  0.00  0.00    -0.030 C 
ATOM     33  C   UNL     1       2.308   0.558   9.182  0.00  0.00    +0.004 C 
ENDBRANCH  31  32
ENDBRANCH  24  31
ENDBRANCH  20  21
ENDBRANCH  19  20
ENDBRANCH   9  19
TORSDOF 10
