REMARK  Name = ZINC04942327
REMARK  5 active torsions:
REMARK  status: ('A' for Active; 'I' for Inactive)
REMARK    1  A    between atoms: C_1  and  C_2
REMARK    2  A    between atoms: C_5  and  C_21
REMARK    3  A    between atoms: C_6  and  C_7
REMARK    4  A    between atoms: C_10  and  C_13
REMARK    5  A    between atoms: C_18  and  C_20
REMARK                            x       y       z     vdW  Elec       q    Type
REMARK                         _______ _______ _______ _____ _____    ______ ____
ROOT
ATOM      1  C   UNL     1       3.236   4.580   1.164  0.00  0.00    +0.072 C 
ATOM      2  N   UNL     1       3.535   4.474  -0.085  0.00  0.00    -0.181 NA
ATOM      3  N   UNL     1       2.540   3.881  -0.860  0.00  0.00    -0.185 N 
ATOM      4  C   UNL     1       1.402   3.539   0.007  0.00  0.00    +0.143 C 
ATOM      5  C   UNL     1       1.856   4.010   1.403  0.00  0.00    +0.087 C 
ATOM      6  C   UNL     1       2.610   3.658  -2.187  0.00  0.00    +0.232 C 
ATOM      7  O   UNL     1       1.680   3.132  -2.763  0.00  0.00    -0.274 OA
ATOM      8  C   UNL     1       3.841   4.061  -2.956  0.00  0.00    +0.111 C 
ENDROOT
BRANCH   1  14
ATOM      9  C   UNL     1       3.334   7.714   2.082  0.00  0.00    +0.048 C 
ATOM     10  C   UNL     1       4.159   6.574   2.621  0.00  0.00    -0.004 A 
ATOM     11  C   UNL     1       5.091   6.637   3.585  0.00  0.00    +0.199 A 
ATOM     12  O   UNL     1       5.602   5.412   3.783  0.00  0.00    -0.467 OA
ATOM     13  C   UNL     1       5.022   4.518   2.970  0.00  0.00    +0.111 A 
ATOM     14  C   UNL     1       4.105   5.168   2.200  0.00  0.00    +0.041 A 
ATOM     15  C   UNL     1       5.335   3.045   2.914  0.00  0.00    +0.087 C 
ENDBRANCH   1  14
BRANCH   4  16
ATOM     16  C   UNL     1       1.160   2.051   0.002  0.00  0.00    +0.013 A 
ATOM     17  C   UNL     1      -0.017   1.378   0.010  0.00  0.00    +0.013 A 
ATOM     18  C   UNL     1       0.002  -0.004   0.002  0.00  0.00    +0.008 A 
ATOM     19  C   UNL     1       1.196  -0.645  -0.013  0.00  0.00    +0.045 A 
ATOM     20  S   UNL     1       2.348   0.719  -0.017  0.00  0.00    -0.100 S 
ENDBRANCH   4  16
TORSDOF 2
