REMARK  Name = ZINC58006016
REMARK  7 active torsions:
REMARK  status: ('A' for Active; 'I' for Inactive)
REMARK    1  A    between atoms: C_1  and  C_2
REMARK    2  A    between atoms: C_2  and  C_3
REMARK    3  A    between atoms: C_3  and  C_21
REMARK    4  A    between atoms: N_5  and  C_14
REMARK    5  A    between atoms: C_7  and  N_13
REMARK    6  A    between atoms: C_14  and  C_15
REMARK    7  A    between atoms: C_21  and  C_22
REMARK                            x       y       z     vdW  Elec       q    Type
REMARK                         _______ _______ _______ _____ _____    ______ ____
ROOT
ATOM      1  C   UNL     1       0.775  -0.423  -2.083  0.00  0.00    +0.126 C 
ATOM      2  C   UNL     1       0.689  -1.898  -2.498  0.00  0.00    +0.153 C 
ATOM      3  N   UNL     1      -0.697  -2.343  -2.274  0.00  0.00    -0.322 N 
ATOM      4  C   UNL     1      -1.733  -1.464  -2.641  0.00  0.00    +0.093 A 
ATOM      5  C   UNL     1      -3.043  -1.925  -2.725  0.00  0.00    +0.049 A 
ATOM      6  C   UNL     1      -4.060  -1.051  -3.085  0.00  0.00    +0.025 A 
ATOM      7  C   UNL     1      -3.768   0.272  -3.358  0.00  0.00    +0.005 A 
ATOM      8  C   UNL     1      -2.468   0.732  -3.277  0.00  0.00    +0.048 A 
ATOM      9  C   UNL     1      -1.442  -0.134  -2.921  0.00  0.00    +0.144 A 
ATOM     10  O   UNL     1      -0.166   0.329  -2.853  0.00  0.00    -0.482 OA
ENDROOT
BRANCH   5  11
ATOM     11  N   UNL     1      -3.335  -3.266  -2.446  0.00  0.00    -0.356 N 
ATOM     12  H   UNL     1      -4.074  -3.490  -1.859  0.00  0.00    +0.142 HD
ATOM     13  H   UNL     1      -2.797  -3.971  -2.840  0.00  0.00    +0.142 HD
ENDBRANCH   5  11
BRANCH   1  15
ATOM     14  C   UNL     1       1.496  -1.030   0.231  0.00  0.00    +0.008 C 
ATOM     15  C   UNL     1       0.444  -0.288  -0.595  0.00  0.00    +0.046 C 
ENDBRANCH   1  15
BRANCH   1  16
ATOM     16  C   UNL     1       2.188   0.104  -2.343  0.00  0.00    +0.046 C 
ATOM     17  C   UNL     1       2.258   1.585  -1.964  0.00  0.00    +0.008 C 
ENDBRANCH   1  16
BRANCH   3  18
ATOM     18  C   UNL     1      -0.988  -3.654  -1.689  0.00  0.00    +0.108 C 
BRANCH  18  19
ATOM     19  C   UNL     1      -0.445  -4.753  -2.605  0.00  0.00    +0.003 C 
ATOM     20  C   UNL     1      -0.984  -4.549  -4.024  0.00  0.00    -0.014 C 
ATOM     21  C   UNL     1      -0.502  -5.694  -4.917  0.00  0.00    -0.082 C 
ATOM     22  N   UNL     1      -0.991  -6.972  -4.385  0.00  0.00    +0.379 N 
ATOM     23  C   UNL     1      -0.421  -7.209  -3.054  0.00  0.00    -0.082 C 
ATOM     24  C   UNL     1      -0.899  -6.121  -2.089  0.00  0.00    -0.014 C 
ATOM     25  H   UNL     1      -1.998  -6.945  -4.319  0.00  0.00    -0.086 HD
ATOM     26  H   UNL     1      -0.717  -7.720  -5.005  0.00  0.00    -0.086 HD
ENDBRANCH  18  19
ENDBRANCH   3  18
TORSDOF 5
