REMARK  Name = ZINC38687520
REMARK  13 active torsions:
REMARK  status: ('A' for Active; 'I' for Inactive)
REMARK    1  A    between atoms: C_1  and  C_2
REMARK    2  A    between atoms: C_2  and  C_3
REMARK    3  A    between atoms: C_3  and  O_4
REMARK    4  A    between atoms: O_4  and  C_5
REMARK    5  A    between atoms: C_8  and  C_11
REMARK    6  A    between atoms: C_16  and  O_25
REMARK    7  A    between atoms: C_20  and  N_24
REMARK    8  A    between atoms: C_21  and  C_22
REMARK    9  A    between atoms: O_25  and  C_26
REMARK   10  A    between atoms: C_26  and  C_28
REMARK   11  A    between atoms: C_29  and  C_39
REMARK   12  A    between atoms: C_31  and  C_38
REMARK   13  A    between atoms: C_33  and  C_37
REMARK                            x       y       z     vdW  Elec       q    Type
REMARK                         _______ _______ _______ _____ _____    ______ ____
ROOT
ATOM      1  C   UNL     1      -6.349  -4.375  -0.045  0.00  0.00    +0.098 C 
ATOM      2  C   UNL     1      -6.480  -5.248  -1.265  0.00  0.00    +0.008 A 
ATOM      3  C   UNL     1      -6.802  -4.674  -2.482  0.00  0.00    +0.012 A 
ATOM      4  C   UNL     1      -6.928  -5.459  -3.611  0.00  0.00    +0.047 A 
ATOM      5  C   UNL     1      -6.730  -6.830  -3.527  0.00  0.00    +0.136 A 
ATOM      6  C   UNL     1      -6.407  -7.409  -2.310  0.00  0.00    +0.093 A 
ATOM      7  C   UNL     1      -6.281  -6.617  -1.176  0.00  0.00    +0.138 A 
ATOM      8  O   UNL     1      -5.965  -7.198   0.008  0.00  0.00    -0.441 OA
ATOM      9  C   UNL     1      -6.212  -6.552   1.159  0.00  0.00    +0.199 C 
ATOM     10  C   UNL     1      -6.402  -5.215   1.200  0.00  0.00    +0.098 C 
ENDROOT
BRANCH   1  14
ATOM     11  C   UNL     1      -2.619  -2.294  -0.189  0.00  0.00    +0.121 A 
ATOM     12  C   UNL     1      -3.810  -1.584  -0.161  0.00  0.00    +0.046 A 
ATOM     13  C   UNL     1      -5.014  -2.259  -0.115  0.00  0.00    +0.008 A 
ATOM     14  C   UNL     1      -5.033  -3.641  -0.096  0.00  0.00    -0.034 A 
ATOM     15  C   UNL     1      -3.847  -4.352  -0.124  0.00  0.00    +0.008 A 
ATOM     16  C   UNL     1      -2.640  -3.682  -0.176  0.00  0.00    +0.046 A 
BRANCH  11  17
ATOM     17  O   UNL     1      -1.432  -1.633  -0.235  0.00  0.00    -0.492 OA
BRANCH  17  18
ATOM     18  C   UNL     1      -1.486  -0.205  -0.246  0.00  0.00    +0.229 C 
BRANCH  18  20
ATOM     19  C   UNL     1      -0.122   1.887  -0.310  0.00  0.00    +0.007 C 
ATOM     20  C   UNL     1      -0.064   0.358  -0.299  0.00  0.00    +0.038 C 
ENDBRANCH  18  20
ENDBRANCH  17  18
ENDBRANCH  11  17
ENDBRANCH   1  14
BRANCH   9  21
ATOM     21  N   UNL     1      -6.273  -7.271   2.327  0.00  0.00    -0.328 N 
ATOM     22  H   UNL     1      -6.138  -8.231   2.313  0.00  0.00    +0.145 HD
ATOM     23  H   UNL     1      -6.451  -6.818   3.166  0.00  0.00    +0.145 HD
ENDBRANCH   9  21
BRANCH  10  24
ATOM     24  C   UNL     1      -6.661  -4.586   2.460  0.00  0.00    +0.101 C 
ATOM     25  N   UNL     1      -6.866  -4.087   3.459  0.00  0.00    -0.191 NA
ENDBRANCH  10  24
BRANCH   5  26
ATOM     26  O   UNL     1      -6.854  -7.605  -4.637  0.00  0.00    -0.420 OA
BRANCH  26  27
ATOM     27  C   UNL     1      -7.876  -8.484  -4.685  0.00  0.00    +0.380 C 
ATOM     28  O   UNL     1      -8.707  -8.498  -3.798  0.00  0.00    -0.241 OA
BRANCH  27  29
ATOM     29  C   UNL     1      -7.984  -9.423  -5.808  0.00  0.00    +0.216 A 
ATOM     30  C   UNL     1      -8.970 -10.345  -5.964  0.00  0.00    +0.010 A 
ATOM     31  C   UNL     1      -8.672 -11.048  -7.211  0.00  0.00    +0.027 A 
ATOM     32  C   UNL     1      -9.289 -12.086  -7.915  0.00  0.00    -0.039 A 
ATOM     33  C   UNL     1      -8.743 -12.528  -9.087  0.00  0.00    +0.007 A 
ATOM     34  C   UNL     1      -7.580 -11.953  -9.581  0.00  0.00    -0.047 A 
ATOM     35  C   UNL     1      -6.956 -10.929  -8.902  0.00  0.00    +0.050 A 
ATOM     36  C   UNL     1      -7.493 -10.462  -7.708  0.00  0.00    +0.137 A 
ATOM     37  O   UNL     1      -7.123  -9.497  -6.845  0.00  0.00    -0.448 OA
ATOM     38  C   UNL     1      -6.992 -12.455 -10.875  0.00  0.00    +0.044 C 
ATOM     39  C   UNL     1     -10.552 -12.714  -7.384  0.00  0.00    +0.044 C 
ATOM     40  C   UNL     1     -10.133 -10.594  -5.038  0.00  0.00    +0.048 C 
ENDBRANCH  27  29
ENDBRANCH  26  27
ENDBRANCH   5  26
TORSDOF 9
