REMARK  Name = ZINC25775397
REMARK  8 active torsions:
REMARK  status: ('A' for Active; 'I' for Inactive)
REMARK    1  A    between atoms: C_1  and  N_2
REMARK    2  A    between atoms: N_2  and  S_3
REMARK    3  A    between atoms: S_3  and  C_6
REMARK    4  A    between atoms: C_9  and  C_12
REMARK    5  A    between atoms: C_13  and  C_14
REMARK    6  A    between atoms: N_16  and  C_17
REMARK    7  A    between atoms: C_17  and  C_19
REMARK    8  A    between atoms: C_17  and  C_25
REMARK                            x       y       z     vdW  Elec       q    Type
REMARK                         _______ _______ _______ _____ _____    ______ ____
ROOT
ATOM      1  C   UNL     1      -5.658  -0.381   6.582  0.00  0.00    +0.238 C 
ATOM      2  O   UNL     1      -5.465   0.321   7.557  0.00  0.00    -0.271 OA
ATOM      3  N   UNL     1      -6.481  -1.444   6.670  0.00  0.00    -0.300 N 
ATOM      4  H   UNL     1      -6.656  -2.079   5.789  0.00  0.00    +0.150 HD
ENDROOT
BRANCH   1   6
ATOM      5  C   UNL     1      -4.173   0.994   5.225  0.00  0.00    +0.013 C 
ATOM      6  C   UNL     1      -4.997  -0.070   5.313  0.00  0.00    +0.068 C 
BRANCH   5  10
ATOM      7  C   UNL     1      -2.258   1.894   1.549  0.00  0.00    +0.105 A 
ATOM      8  C   UNL     1      -3.106   0.804   1.634  0.00  0.00    +0.029 A 
ATOM      9  C   UNL     1      -3.728   0.502   2.827  0.00  0.00    +0.010 A 
ATOM     10  C   UNL     1      -3.508   1.306   3.949  0.00  0.00    -0.025 A 
ATOM     11  C   UNL     1      -2.654   2.409   3.854  0.00  0.00    +0.010 A 
ATOM     12  C   UNL     1      -2.035   2.695   2.655  0.00  0.00    +0.029 A 
BRANCH   7  13
ATOM     13  S   UNL     1      -1.463   2.269   0.021  0.00  0.00    +0.058 S 
ATOM     14  O   UNL     1      -1.153   3.655   0.054  0.00  0.00    -0.153 OA
ATOM     15  O   UNL     1      -2.260   1.691  -1.004  0.00  0.00    -0.153 OA
BRANCH  13  17
ATOM     16  C   UNL     1       0.002  -0.004   0.002  0.00  0.00    +0.127 C 
ATOM     17  N   UNL     1      -0.018   1.461   0.010  0.00  0.00    -0.193 NA
ATOM     18  H   UNL     1       0.914   2.023   0.174  0.00  0.00    +0.148 HD
ENDBRANCH  13  17
ENDBRANCH   7  13
ENDBRANCH   5  10
ENDBRANCH   1   6
BRANCH   3  19
ATOM     19  C   UNL     1      -7.143  -1.755   7.940  0.00  0.00    +0.140 C 
BRANCH  19  20
ATOM     20  C   UNL     1      -8.407  -2.531   7.670  0.00  0.00    -0.022 A 
ATOM     21  C   UNL     1      -8.425  -3.502   6.687  0.00  0.00    +0.006 A 
ATOM     22  C   UNL     1      -9.583  -4.217   6.443  0.00  0.00    +0.000 A 
ATOM     23  C   UNL     1     -10.725  -3.954   7.176  0.00  0.00    +0.000 A 
ATOM     24  C   UNL     1     -10.708  -2.979   8.156  0.00  0.00    +0.000 A 
ATOM     25  C   UNL     1      -9.549  -2.267   8.403  0.00  0.00    +0.006 A 
ENDBRANCH  19  20
BRANCH  19  26
ATOM     26  C   UNL     1      -6.220  -2.581   8.798  0.00  0.00    +0.014 A 
ATOM     27  C   UNL     1      -6.004  -2.508  10.135  0.00  0.00    +0.013 A 
ATOM     28  C   UNL     1      -5.101  -3.377  10.716  0.00  0.00    +0.008 A 
ATOM     29  C   UNL     1      -4.457  -4.277   9.934  0.00  0.00    +0.045 A 
ATOM     30  S   UNL     1      -5.133  -3.914   8.321  0.00  0.00    -0.099 S 
ENDBRANCH  19  26
ENDBRANCH   3  19
TORSDOF 7
