REMARK  Name = ZINC63726123
REMARK  7 active torsions:
REMARK  status: ('A' for Active; 'I' for Inactive)
REMARK    1  A    between atoms: C_1  and  C_2
REMARK    2  A    between atoms: C_7  and  C_10
REMARK    3  A    between atoms: C_11  and  C_13
REMARK    4  A    between atoms: C_13  and  S_14
REMARK    5  A    between atoms: S_14  and  C_15
REMARK    6  A    between atoms: C_21  and  O_25
REMARK    7  A    between atoms: O_25  and  C_26
REMARK                            x       y       z     vdW  Elec       q    Type
REMARK                         _______ _______ _______ _____ _____    ______ ____
ROOT
ATOM      1  C   UNL     1      -2.837  -6.901  -1.298  0.00  0.00    +0.236 C 
ATOM      2  N   UNL     1      -3.272  -7.166   0.079  0.00  0.00    -0.355 N 
ATOM      3  C   UNL     1      -2.250  -7.645   0.728  0.00  0.00    +0.061 A 
ATOM      4  C   UNL     1      -2.082  -8.088   2.120  0.00  0.00    +0.031 A 
ATOM      5  C   UNL     1      -0.888  -8.550   2.535  0.00  0.00    +0.048 A 
ATOM      6  C   UNL     1       0.261  -8.627   1.642  0.00  0.00    +0.122 A 
ATOM      7  C   UNL     1       0.185  -8.238   0.346  0.00  0.00    +0.073 A 
ATOM      8  C   UNL     1      -1.079  -7.724  -0.186  0.00  0.00    +0.064 A 
ATOM      9  N   UNL     1      -1.424  -7.289  -1.369  0.00  0.00    -0.355 N 
ATOM     10  H   UNL     1      -4.160  -7.012   0.440  0.00  0.00    +0.162 HD
ATOM     11  H   UNL     1      -0.852  -7.234  -2.150  0.00  0.00    +0.162 HD
ENDROOT
BRANCH   6  12
ATOM     12  O   UNL     1       1.438  -9.101   2.120  0.00  0.00    -0.495 OA
ATOM     13  C   UNL     1       1.468  -9.498   3.493  0.00  0.00    +0.277 C 
ENDBRANCH   6  12
BRANCH   1  14
ATOM     14  S   UNL     1      -3.018  -5.137  -1.679  0.00  0.00    -0.106 S 
BRANCH  14  15
ATOM     15  C   UNL     1      -2.006  -4.310  -0.421  0.00  0.00    +0.168 C 
BRANCH  15  24
ATOM     16  C   UNL     1      -0.019   1.526   0.010  0.00  0.00    +0.039 C 
ATOM     17  C   UNL     1       0.002  -0.004   0.002  0.00  0.00    +0.133 C 
ATOM     18  C   UNL     1      -1.436  -0.536   0.015  0.00  0.00    +0.139 C 
ATOM     19  N   UNL     1      -1.389  -1.995   0.196  0.00  0.00    -0.296 N 
ATOM     20  C   UNL     1      -0.578  -2.530   1.302  0.00  0.00    +0.139 C 
ATOM     21  C   UNL     1       0.818  -1.901   1.226  0.00  0.00    +0.133 C 
ATOM     22  O   UNL     1       0.691  -0.479   1.161  0.00  0.00    -0.371 OA
ATOM     23  C   UNL     1       1.539  -2.407  -0.025  0.00  0.00    +0.039 C 
ATOM     24  C   UNL     1      -2.069  -2.818  -0.627  0.00  0.00    +0.226 C 
ATOM     25  O   UNL     1      -2.732  -2.358  -1.532  0.00  0.00    -0.275 OA
ENDBRANCH  15  24
ENDBRANCH  14  15
ENDBRANCH   1  14
TORSDOF 4
