REMARK  Name = ZINC15947297
REMARK  6 active torsions:
REMARK  status: ('A' for Active; 'I' for Inactive)
REMARK    1  A    between atoms: C_1  and  C_2
REMARK    2  A    between atoms: C_2  and  N_3
REMARK    3  A    between atoms: C_11  and  O_25
REMARK    4  A    between atoms: C_13  and  C_16
REMARK    5  A    between atoms: C_20  and  C_23
REMARK    6  A    between atoms: C_21  and  O_22
REMARK                            x       y       z     vdW  Elec       q    Type
REMARK                         _______ _______ _______ _____ _____    ______ ____
ROOT
ATOM      1  N   UNL     1      -1.376  -0.512   0.012  0.00  0.00    +0.383 N 
ATOM      2  C   UNL     1      -1.356  -1.976   0.129  0.00  0.00    -0.074 C 
ATOM      3  C   UNL     1      -2.759  -2.500   0.455  0.00  0.00    +0.018 C 
ATOM      4  C   UNL     1      -3.725  -1.918  -0.568  0.00  0.00    -0.027 A 
ATOM      5  C   UNL     1      -3.360  -0.845  -1.311  0.00  0.00    -0.021 A 
ATOM      6  S   UNL     1      -4.759  -0.517  -2.345  0.00  0.00    -0.080 S 
ATOM      7  C   UNL     1      -5.770  -1.727  -1.830  0.00  0.00    +0.080 A 
ATOM      8  C   UNL     1      -5.058  -2.416  -0.840  0.00  0.00    +0.067 A 
ATOM      9  C   UNL     1      -5.738  -3.561  -0.181  0.00  0.00    +0.220 C 
ATOM     10  N   UNL     1      -6.836  -4.009  -0.725  0.00  0.00    -0.223 NA
ATOM     11  C   UNL     1      -7.408  -3.506  -1.968  0.00  0.00    +0.227 C 
ATOM     12  N   UNL     1      -7.043  -2.097  -2.202  0.00  0.00    -0.313 N 
ATOM     13  C   UNL     1      -2.052  -0.124  -1.239  0.00  0.00    -0.035 C 
ATOM     14  H   UNL     1      -7.665  -1.466  -2.596  0.00  0.00    +0.149 HD
ATOM     15  H   UNL     1      -1.873  -0.120   0.798  0.00  0.00    -0.081 HD
ENDROOT
BRANCH  11  16
ATOM     16  C   UNL     1      -6.902  -4.341  -3.116  0.00  0.00    +0.037 A 
ATOM     17  C   UNL     1      -6.650  -3.753  -4.340  0.00  0.00    +0.025 A 
ATOM     18  C   UNL     1      -6.186  -4.519  -5.394  0.00  0.00    +0.014 A 
ATOM     19  C   UNL     1      -5.971  -5.875  -5.224  0.00  0.00    +0.021 A 
ATOM     20  C   UNL     1      -6.221  -6.467  -4.002  0.00  0.00    -0.008 A 
ATOM     21  C   UNL     1      -6.682  -5.700  -2.942  0.00  0.00    +0.127 A 
ATOM     22  C   UNL     1      -5.989  -7.945  -3.818  0.00  0.00    +0.047 C 
ATOM     23  I   UNL     1      -5.806  -3.624  -7.250  0.00  0.00    -0.044 I 
BRANCH  21  24
ATOM     24  O   UNL     1      -6.923  -6.279  -1.736  0.00  0.00    -0.506 OA
ATOM     25  H   UNL     1      -7.825  -6.613  -1.634  0.00  0.00    +0.292 HD
ENDBRANCH  21  24
ENDBRANCH  11  16
BRANCH   1  27
ATOM     26  C   UNL     1      -0.019   1.526   0.010  0.00  0.00    -0.017 C 
ATOM     27  C   UNL     1       0.002  -0.004   0.002  0.00  0.00    -0.082 C 
ENDBRANCH   1  27
BRANCH   9  28
ATOM     28  O   UNL     1      -5.235  -4.120   0.944  0.00  0.00    -0.492 OA
ATOM     29  H   UNL     1      -5.760  -4.858   1.285  0.00  0.00    +0.294 HD
ENDBRANCH   9  28
TORSDOF 4
