REMARK  Name = ZINC25782435
REMARK  6 active torsions:
REMARK  status: ('A' for Active; 'I' for Inactive)
REMARK    1  A    between atoms: C_1  and  C_2
REMARK    2  A    between atoms: C_2  and  C_24
REMARK    3  A    between atoms: N_3  and  N_4
REMARK    4  A    between atoms: C_5  and  C_7
REMARK    5  A    between atoms: C_8  and  C_18
REMARK    6  A    between atoms: C_18  and  N_19
REMARK                            x       y       z     vdW  Elec       q    Type
REMARK                         _______ _______ _______ _____ _____    ______ ____
ROOT
ATOM      1  C   UNL     1      -1.355   5.202   0.616  0.00  0.00    +0.154 A 
ATOM      2  C   UNL     1       0.006   5.064   0.697  0.00  0.00    +0.079 A 
ATOM      3  N   UNL     1       0.244   3.761   0.845  0.00  0.00    -0.135 NA
ATOM      4  N   UNL     1      -0.870   3.120   0.864  0.00  0.00    -0.058 NA
ATOM      5  N   UNL     1      -1.861   3.930   0.734  0.00  0.00    -0.183 N 
ATOM      6  C   UNL     1      -3.214   3.578   0.711  0.00  0.00    +0.241 A 
ATOM      7  C   UNL     1      -3.745   2.211   0.707  0.00  0.00    +0.206 A 
ATOM      8  N   UNL     1      -5.048   2.277   0.690  0.00  0.00    -0.032 NA
ATOM      9  O   UNL     1      -5.413   3.646   0.675  0.00  0.00    -0.239 OA
ATOM     10  N   UNL     1      -4.218   4.408   0.686  0.00  0.00    -0.027 NA
ATOM     11  N   UNL     1      -2.989   1.045   0.726  0.00  0.00    -0.337 N 
ATOM     12  H   UNL     1      -3.489   0.065   0.721  0.00  0.00    +0.144 HD
ATOM     13  H   UNL     1      -1.891   1.101   0.745  0.00  0.00    +0.144 HD
ENDROOT
BRANCH   1  15
ATOM     14  N   UNL     1      -2.528   6.822  -0.784  0.00  0.00    -0.201 N 
ATOM     15  C   UNL     1      -2.115   6.449   0.443  0.00  0.00    +0.284 C 
ATOM     16  O   UNL     1      -2.370   7.145   1.408  0.00  0.00    -0.267 OA
ATOM     17  H   UNL     1      -2.367   6.155  -1.645  0.00  0.00    +0.178 HD
BRANCH  14  20
ATOM     18  C   UNL     1      -3.479   7.437  -3.294  0.00  0.00    +0.068 C 
ATOM     19  C   UNL     1      -3.633   8.382  -2.130  0.00  0.00    +0.063 C 
ATOM     20  N   UNL     1      -3.163   8.058  -0.965  0.00  0.00    -0.184 NA
BRANCH  19  21
ATOM     21  C   UNL     1      -4.317   9.675  -2.316  0.00  0.00    -0.002 A 
ATOM     22  C   UNL     1      -4.819  10.029  -3.570  0.00  0.00    +0.011 A 
ATOM     23  C   UNL     1      -5.464  11.237  -3.735  0.00  0.00    +0.016 A 
ATOM     24  C   UNL     1      -5.604  12.103  -2.664  0.00  0.00    +0.018 A 
ATOM     25  C   UNL     1      -5.103  11.760  -1.419  0.00  0.00    +0.016 A 
ATOM     26  C   UNL     1      -4.462  10.553  -1.239  0.00  0.00    +0.011 A 
ATOM     27 BR   UNL     1      -6.481  13.761  -2.901  0.00  0.00    -0.050 Br
ENDBRANCH  19  21
ENDBRANCH  14  20
ENDBRANCH   1  15
BRANCH   2  28
ATOM     28  C   UNL     1       1.031   6.167   0.625  0.00  0.00    -0.018 C 
BRANCH  28  29
ATOM     29  N   UNL     1       1.543   6.271  -0.748  0.00  0.00    +0.383 N 
ATOM     30  C   UNL     1       0.439   6.518  -1.711  0.00  0.00    -0.078 C 
ATOM     31  C   UNL     1       1.169   7.110  -2.943  0.00  0.00    -0.020 C 
ATOM     32  C   UNL     1       2.270   7.987  -2.304  0.00  0.00    -0.020 C 
ATOM     33  C   UNL     1       2.463   7.421  -0.885  0.00  0.00    -0.078 C 
ATOM     34  H   UNL     1       2.056   5.319  -0.949  0.00  0.00    -0.081 HD
ENDBRANCH  28  29
ENDBRANCH   2  28
TORSDOF 5
