REMARK  Name = ZINC36919827
REMARK  5 active torsions:
REMARK  status: ('A' for Active; 'I' for Inactive)
REMARK    1  A    between atoms: C_1  and  C_2
REMARK    2  A    between atoms: C_2  and  C_4
REMARK    3  A    between atoms: C_2  and  N_11
REMARK    4  A    between atoms: N_11  and  C_12
REMARK    5  A    between atoms: C_12  and  C_13
REMARK                            x       y       z     vdW  Elec       q    Type
REMARK                         _______ _______ _______ _____ _____    ______ ____
ROOT
ATOM      1  N   UNL     1       0.690  -0.478  -1.207  0.00  0.00    +0.386 N 
ATOM      2  H   UNL     1       0.632  -1.484  -1.254  0.00  0.00    -0.085 HD
ATOM      3  H   UNL     1       0.251  -0.077  -2.022  0.00  0.00    -0.085 HD
ENDROOT
BRANCH   1   5
ATOM      4  C   UNL     1      -0.019   1.526   0.010  0.00  0.00    -0.009 C 
ATOM      5  C   UNL     1       0.002  -0.004   0.002  0.00  0.00    -0.044 C 
BRANCH   5   6
ATOM      6  C   UNL     1      -1.412  -0.526   0.013  0.00  0.00    -0.061 A 
ATOM      7  C   UNL     1      -2.141  -0.569  -1.161  0.00  0.00    +0.002 A 
ATOM      8  C   UNL     1      -3.438  -1.047  -1.152  0.00  0.00    +0.001 A 
ATOM      9  C   UNL     1      -4.006  -1.483   0.031  0.00  0.00    +0.015 A 
ATOM     10  C   UNL     1      -3.276  -1.440   1.205  0.00  0.00    +0.018 A 
ATOM     11  C   UNL     1      -1.977  -0.966   1.194  0.00  0.00    +0.017 A 
ATOM     12 BR   UNL     1      -4.053  -2.035   2.824  0.00  0.00    -0.050 Br
ENDBRANCH   5   6
ENDBRANCH   1   5
BRANCH   1  13
ATOM     13  C   UNL     1       2.100  -0.070  -1.159  0.00  0.00    -0.046 C 
BRANCH  13  14
ATOM     14  C   UNL     1       2.806  -0.556  -2.399  0.00  0.00    -0.059 A 
ATOM     15  C   UNL     1       3.400  -1.804  -2.410  0.00  0.00    +0.051 A 
ATOM     16  C   UNL     1       4.049  -2.254  -3.548  0.00  0.00    +0.168 A 
ATOM     17  C   UNL     1       4.101  -1.446  -4.681  0.00  0.00    +0.184 A 
ATOM     18  C   UNL     1       3.503  -0.195  -4.663  0.00  0.00    +0.087 A 
ATOM     19  C   UNL     1       2.852   0.244  -3.525  0.00  0.00    +0.025 A 
ATOM     20 CL   UNL     1       3.564   0.816  -6.073  0.00  0.00    -0.080 Cl
ATOM     21  O   UNL     1       4.787  -2.107  -5.658  0.00  0.00    -0.451 OA
ATOM     22  C   UNL     1       5.506  -3.155  -4.981  0.00  0.00    +0.466 C 
ATOM     23  O   UNL     1       4.704  -3.422  -3.815  0.00  0.00    -0.453 OA
ENDBRANCH  13  14
ENDBRANCH   1  13
TORSDOF 4
