REMARK  Name = ZINC64360475
REMARK  5 active torsions:
REMARK  status: ('A' for Active; 'I' for Inactive)
REMARK    1  A    between atoms: C_8  and  C_13
REMARK    2  A    between atoms: N_15  and  C_16
REMARK    3  A    between atoms: C_16  and  C_17
REMARK    4  A    between atoms: C_17  and  N_18
REMARK    5  A    between atoms: N_18  and  C_19
REMARK                            x       y       z     vdW  Elec       q    Type
REMARK                         _______ _______ _______ _____ _____    ______ ____
ROOT
ATOM      1  C   UNL     1       2.858  -3.571   1.172  0.00  0.00    +0.229 C 
ATOM      2  O   UNL     1       1.985  -3.566   2.014  0.00  0.00    -0.275 OA
ATOM      3  N   UNL     1       3.932  -4.372   1.318  0.00  0.00    -0.313 N 
ATOM      4  H   UNL     1       4.629  -4.376   0.644  0.00  0.00    +0.149 HD
ENDROOT
BRANCH   1  12
ATOM      5  C   UNL     1      -0.016   1.354   0.009  0.00  0.00    +0.001 A 
ATOM      6  C   UNL     1       1.165   2.097   0.002  0.00  0.00    +0.002 A 
ATOM      7  C   UNL     1       2.394   1.518  -0.013  0.00  0.00    +0.024 A 
ATOM      8  C   UNL     1       2.524   0.117  -0.021  0.00  0.00    +0.040 A 
ATOM      9  N   UNL     1       3.736  -0.439  -0.035  0.00  0.00    -0.284 N 
ATOM     10  C   UNL     1       3.929  -1.747  -0.045  0.00  0.00    +0.233 C 
ATOM     11  O   UNL     1       5.060  -2.197  -0.058  0.00  0.00    -0.274 OA
ATOM     12  C   UNL     1       2.741  -2.681  -0.039  0.00  0.00    +0.184 C 
ATOM     13  C   UNL     1       1.361  -2.054  -0.022  0.00  0.00    +0.004 C 
ATOM     14  C   UNL     1       1.294  -0.692  -0.014  0.00  0.00    -0.007 A 
ATOM     15  C   UNL     1       0.002  -0.004   0.002  0.00  0.00    +0.009 A 
ATOM     16  H   UNL     1       4.511   0.143  -0.039  0.00  0.00    +0.155 HD
ENDBRANCH   1  12
BRANCH   3  17
ATOM     17  C   UNL     1       4.045  -5.237   2.495  0.00  0.00    +0.119 C 
BRANCH  17  18
ATOM     18  C   UNL     1       5.348  -6.036   2.417  0.00  0.00    +0.102 C 
BRANCH  18  19
ATOM     19  N   UNL     1       5.462  -6.903   3.597  0.00  0.00    -0.288 NA
ATOM     20  H   UNL     1       5.402  -6.365   4.449  0.00  0.00    +0.125 HD
BRANCH  19  21
ATOM     21  C   UNL     1       6.703  -7.688   3.556  0.00  0.00    +0.204 C 
ATOM     22  N   UNL     1       6.957  -8.342   4.847  0.00  0.00    -0.319 N 
ATOM     23  C   UNL     1       6.992  -9.736   4.866  0.00  0.00    +0.043 A 
ATOM     24  C   UNL     1       7.221 -10.533   6.002  0.00  0.00    +0.024 A 
ATOM     25  C   UNL     1       7.236 -11.906   5.918  0.00  0.00    +0.002 A 
ATOM     26  C   UNL     1       7.027 -12.550   4.712  0.00  0.00    +0.001 A 
ATOM     27  C   UNL     1       6.798 -11.790   3.577  0.00  0.00    +0.016 A 
ATOM     28  C   UNL     1       6.783 -10.416   3.663  0.00  0.00    +0.032 A 
ATOM     29  S   UNL     1       6.529  -9.142   2.446  0.00  0.00    -0.085 S 
ATOM     30  H   UNL     1       7.096  -7.824   5.655  0.00  0.00    +0.148 HD
ENDBRANCH  19  21
ENDBRANCH  18  19
ENDBRANCH  17  18
ENDBRANCH   3  17
TORSDOF 5
