REMARK  Name = ZINC00252481
REMARK  8 active torsions:
REMARK  status: ('A' for Active; 'I' for Inactive)
REMARK    1  A    between atoms: C_1  and  C_2
REMARK    2  A    between atoms: C_2  and  C_3
REMARK    3  A    between atoms: C_3  and  C_5
REMARK    4  A    between atoms: C_3  and  N_21
REMARK    5  A    between atoms: N_7  and  N_8
REMARK    6  A    between atoms: C_9  and  C_10
REMARK    7  A    between atoms: C_19  and  O_20
REMARK    8  A    between atoms: N_21  and  C_22
REMARK                            x       y       z     vdW  Elec       q    Type
REMARK                         _______ _______ _______ _____ _____    ______ ____
ROOT
ATOM      1  C   UNL     1       1.169  -1.954   1.047  0.00  0.00    +0.252 C 
ATOM      2  O   UNL     1       0.845  -2.721   1.929  0.00  0.00    -0.272 OA
ATOM      3  N   UNL     1       1.817  -2.414  -0.042  0.00  0.00    -0.205 N 
ATOM      4  H   UNL     1       2.076  -1.800  -0.747  0.00  0.00    +0.177 HD
ENDROOT
BRANCH   3   5
ATOM      5  N   UNL     1       2.116  -3.778  -0.155  0.00  0.00    -0.188 NA
ATOM      6  C   UNL     1       2.740  -4.221  -1.205  0.00  0.00    +0.142 C 
BRANCH   6   7
ATOM      7  C   UNL     1       3.054  -5.652  -1.323  0.00  0.00    +0.044 A 
ATOM      8  C   UNL     1       3.761  -6.167  -2.494  0.00  0.00    -0.006 A 
ATOM      9  C   UNL     1       4.162  -5.322  -3.536  0.00  0.00    +0.009 A 
ATOM     10  C   UNL     1       4.820  -5.842  -4.611  0.00  0.00    +0.001 A 
ATOM     11  C   UNL     1       5.099  -7.205  -4.687  0.00  0.00    +0.001 A 
ATOM     12  C   UNL     1       4.724  -8.055  -3.692  0.00  0.00    +0.008 A 
ATOM     13  C   UNL     1       4.044  -7.553  -2.569  0.00  0.00    -0.017 A 
ATOM     14  C   UNL     1       3.642  -8.400  -1.521  0.00  0.00    +0.012 A 
ATOM     15  C   UNL     1       2.985  -7.904  -0.439  0.00  0.00    +0.046 A 
ATOM     16  C   UNL     1       2.688  -6.548  -0.318  0.00  0.00    +0.126 A 
BRANCH  16  17
ATOM     17  O   UNL     1       2.035  -6.095   0.783  0.00  0.00    -0.506 OA
ATOM     18  H   UNL     1       1.072  -6.101   0.699  0.00  0.00    +0.292 HD
ENDBRANCH  16  17
ENDBRANCH   6   7
ENDBRANCH   3   5
BRANCH   1  19
ATOM     19  C   UNL     1       0.848  -0.486   1.168  0.00  0.00    +0.158 C 
BRANCH  19  21
ATOM     20  C   UNL     1      -0.263   1.452   0.050  0.00  0.00    +0.006 C 
ATOM     21  C   UNL     1      -0.044  -0.061   0.000  0.00  0.00    +0.028 C 
ENDBRANCH  19  21
BRANCH  19  22
ATOM     22  N   UNL     1       0.147  -0.243   2.432  0.00  0.00    -0.333 N 
ATOM     23  H   UNL     1      -0.823  -0.243   2.456  0.00  0.00    +0.147 HD
BRANCH  22  24
ATOM     24  C   UNL     1       0.875  -0.011   3.601  0.00  0.00    +0.028 A 
ATOM     25  C   UNL     1       2.259  -0.128   3.594  0.00  0.00    +0.023 A 
ATOM     26  C   UNL     1       2.976   0.102   4.751  0.00  0.00    +0.002 A 
ATOM     27  C   UNL     1       2.318   0.450   5.916  0.00  0.00    +0.000 A 
ATOM     28  C   UNL     1       0.940   0.568   5.927  0.00  0.00    +0.002 A 
ATOM     29  C   UNL     1       0.217   0.344   4.772  0.00  0.00    +0.023 A 
ENDBRANCH  22  24
ENDBRANCH  19  22
ENDBRANCH   1  19
TORSDOF 7
