REMARK  Name = ZINC00344144
REMARK  4 active torsions:
REMARK  status: ('A' for Active; 'I' for Inactive)
REMARK    1  A    between atoms: C_9  and  O_21
REMARK    2  A    between atoms: C_10  and  S_11
REMARK    3  A    between atoms: S_11  and  C_12
REMARK    4  A    between atoms: C_17  and  N_18
REMARK                            x       y       z     vdW  Elec       q    Type
REMARK                         _______ _______ _______ _____ _____    ______ ____
ROOT
ATOM      1  C   UNL     1      -0.013   1.076   0.008  0.00  0.00    +0.001 A 
ATOM      2  C   UNL     1      -1.222   1.743   0.017  0.00  0.00    +0.001 A 
ATOM      3  C   UNL     1      -1.261   3.133   0.030  0.00  0.00    +0.010 A 
ATOM      4  C   UNL     1      -0.073   3.857   0.024  0.00  0.00    -0.001 A 
ATOM      5  C   UNL     1       1.167   3.178   0.008  0.00  0.00    -0.017 A 
ATOM      6  C   UNL     1       1.184   1.779   0.000  0.00  0.00    +0.008 A 
ATOM      7  C   UNL     1       2.411   3.940  -0.000  0.00  0.00    +0.012 A 
ATOM      8  C   UNL     1       2.401   5.320   0.007  0.00  0.00    +0.047 A 
ATOM      9  C   UNL     1       1.218   6.038   0.023  0.00  0.00    +0.131 A 
ATOM     10  C   UNL     1      -0.079   5.327   0.031  0.00  0.00    +0.062 A 
ENDROOT
BRANCH   9  11
ATOM     11  O   UNL     1       1.248   7.385   0.030  0.00  0.00    -0.506 OA
ATOM     12  H   UNL     1       1.266   7.820   0.893  0.00  0.00    +0.292 HD
ENDBRANCH   9  11
BRANCH  10  13
ATOM     13  S   UNL     1      -1.553   6.196   0.050  0.00  0.00    -0.083 S 
BRANCH  13  14
ATOM     14  C   UNL     1      -1.801   6.342   1.788  0.00  0.00    +0.043 A 
ATOM     15  C   UNL     1      -0.874   5.789   2.679  0.00  0.00    +0.017 A 
ATOM     16  C   UNL     1      -1.072   5.912   4.037  0.00  0.00    +0.001 A 
ATOM     17  C   UNL     1      -2.190   6.572   4.521  0.00  0.00    +0.002 A 
ATOM     18  C   UNL     1      -3.115   7.117   3.644  0.00  0.00    +0.034 A 
ATOM     19  C   UNL     1      -2.928   7.007   2.284  0.00  0.00    +0.140 A 
BRANCH  19  20
ATOM     20  N   UNL     1      -3.917   7.589   1.349  0.00  0.00    +0.058 N 
ATOM     21  O   UNL     1      -4.977   8.214   1.818  0.00  0.00    -0.126 OA
ATOM     22  O   UNL     1      -3.737   7.482   0.049  0.00  0.00    -0.126 OA
ENDBRANCH  19  20
ENDBRANCH  13  14
ENDBRANCH  10  13
TORSDOF 4
