REMARK  Name = ZINC54065000
REMARK  8 active torsions:
REMARK  status: ('A' for Active; 'I' for Inactive)
REMARK    1  A    between atoms: C_1  and  C_2
REMARK    2  A    between atoms: C_2  and  C_4
REMARK    3  A    between atoms: C_2  and  N_11
REMARK    4  A    between atoms: N_14  and  N_15
REMARK    5  A    between atoms: C_16  and  C_18
REMARK    6  A    between atoms: C_18  and  C_20
REMARK    7  A    between atoms: C_18  and  O_21
REMARK    8  A    between atoms: O_21  and  C_22
REMARK                            x       y       z     vdW  Elec       q    Type
REMARK                         _______ _______ _______ _____ _____    ______ ____
ROOT
ATOM      1  N   UNL     1      -1.740   0.118  -0.383  0.00  0.00    -0.292 N 
ATOM      2  C   UNL     1      -2.404  -0.243  -1.499  0.00  0.00    +0.316 C 
ATOM      3  O   UNL     1      -1.933   0.001  -2.593  0.00  0.00    -0.251 OA
ATOM      4  N   UNL     1      -3.591  -0.875  -1.401  0.00  0.00    -0.218 N 
ATOM      5  H   UNL     1      -2.115  -0.076   0.490  0.00  0.00    +0.151 HD
ATOM      6  H   UNL     1      -4.069  -1.135  -2.204  0.00  0.00    +0.174 HD
ENDROOT
BRANCH   4   7
ATOM      7  N   UNL     1      -4.134  -1.155  -0.141  0.00  0.00    -0.230 N 
ATOM      8  C   UNL     1      -5.320  -1.786  -0.043  0.00  0.00    +0.270 C 
ATOM      9  O   UNL     1      -5.918  -2.112  -1.047  0.00  0.00    -0.270 OA
ATOM     10  H   UNL     1      -3.655  -0.895   0.662  0.00  0.00    +0.173 HD
BRANCH   8  11
ATOM     11  C   UNL     1      -5.904  -2.088   1.313  0.00  0.00    +0.257 C 
ATOM     12  C   UNL     1      -5.004  -3.085   2.046  0.00  0.00    +0.062 C 
BRANCH  11  13
ATOM     13  O   UNL     1      -7.208  -2.651   1.155  0.00  0.00    -0.480 OA
BRANCH  13  14
ATOM     14  C   UNL     1      -8.072  -2.509   2.196  0.00  0.00    +0.122 A 
ATOM     15  C   UNL     1      -7.639  -1.938   3.384  0.00  0.00    +0.048 A 
ATOM     16  C   UNL     1      -8.517  -1.795   4.441  0.00  0.00    +0.042 A 
ATOM     17  C   UNL     1      -9.828  -2.221   4.315  0.00  0.00    +0.124 A 
ATOM     18  C   UNL     1     -10.261  -2.791   3.130  0.00  0.00    +0.042 A 
ATOM     19  C   UNL     1      -9.387  -2.930   2.069  0.00  0.00    +0.048 A 
ATOM     20  F   UNL     1     -10.686  -2.080   5.349  0.00  0.00    -0.205 F 
ENDBRANCH  13  14
ENDBRANCH  11  13
ENDBRANCH   8  11
ENDBRANCH   4   7
BRANCH   1  22
ATOM     21  C   UNL     1      -0.684   2.307  -0.660  0.00  0.00    +0.033 C 
ATOM     22  C   UNL     1      -0.450   0.805  -0.489  0.00  0.00    +0.102 C 
BRANCH  22  23
ATOM     23  C   UNL     1       0.353   0.561   0.763  0.00  0.00    -0.026 A 
ATOM     24  C   UNL     1      -0.271   0.563   1.996  0.00  0.00    +0.005 A 
ATOM     25  C   UNL     1       0.465   0.339   3.145  0.00  0.00    +0.002 A 
ATOM     26  C   UNL     1       1.826   0.113   3.061  0.00  0.00    +0.020 A 
ATOM     27  C   UNL     1       2.451   0.111   1.827  0.00  0.00    +0.041 A 
ATOM     28  C   UNL     1       1.713   0.329   0.677  0.00  0.00    +0.025 A 
ATOM     29 CL   UNL     1       4.161  -0.173   1.720  0.00  0.00    -0.084 Cl
ENDBRANCH  22  23
ENDBRANCH   1  22
TORSDOF 6
