REMARK  Name = ZINC25456588
REMARK  7 active torsions:
REMARK  status: ('A' for Active; 'I' for Inactive)
REMARK    1  A    between atoms: C_1  and  C_2
REMARK    2  A    between atoms: C_2  and  C_26
REMARK    3  A    between atoms: N_5  and  C_9
REMARK    4  A    between atoms: C_9  and  C_10
REMARK    5  A    between atoms: C_16  and  C_18
REMARK    6  A    between atoms: C_21  and  O_24
REMARK    7  A    between atoms: O_24  and  C_25
REMARK                            x       y       z     vdW  Elec       q    Type
REMARK                         _______ _______ _______ _____ _____    ______ ____
ROOT
ATOM      1  C   UNL     1      -1.816   2.368  -1.409  0.00  0.00    +0.047 C 
ATOM      2  C   UNL     1      -1.332   2.113   0.020  0.00  0.00    +0.135 C 
ATOM      3  C   UNL     1      -1.208   3.418   0.781  0.00  0.00    +0.251 C 
ATOM      4  O   UNL     1      -0.486   4.355   0.515  0.00  0.00    -0.272 OA
ATOM      5  N   UNL     1      -2.066   3.320   1.815  0.00  0.00    -0.215 N 
ATOM      6  C   UNL     1      -2.709   2.146   1.813  0.00  0.00    +0.310 C 
ATOM      7  O   UNL     1      -3.533   1.826   2.647  0.00  0.00    -0.252 OA
ATOM      8  N   UNL     1      -2.342   1.359   0.782  0.00  0.00    -0.281 N 
ATOM      9  H   UNL     1      -2.641   0.353   0.453  0.00  0.00    +0.152 HD
ENDROOT
BRANCH   2  10
ATOM     10  C   UNL     1      -0.017   1.378   0.010  0.00  0.00    -0.015 A 
ATOM     11  C   UNL     1       1.170   2.087   0.002  0.00  0.00    +0.009 A 
ATOM     12  C   UNL     1       2.377   1.414  -0.013  0.00  0.00    +0.039 A 
ATOM     13  C   UNL     1       2.397   0.029  -0.021  0.00  0.00    +0.123 A 
ATOM     14  C   UNL     1       1.208  -0.679  -0.013  0.00  0.00    +0.039 A 
ATOM     15  C   UNL     1       0.002  -0.004   0.002  0.00  0.00    +0.009 A 
ATOM     16  F   UNL     1       3.577  -0.630  -0.035  0.00  0.00    -0.205 F 
ENDBRANCH   2  10
BRANCH   5  17
ATOM     17  C   UNL     1      -2.270   4.368   2.818  0.00  0.00    +0.213 C 
BRANCH  17  18
ATOM     18  C   UNL     1      -3.369   5.293   2.362  0.00  0.00    +0.234 C 
ATOM     19  O   UNL     1      -3.927   5.096   1.304  0.00  0.00    -0.274 OA
ATOM     20  N   UNL     1      -3.731   6.339   3.131  0.00  0.00    -0.293 N 
ATOM     21  C   UNL     1      -3.140   6.694   4.434  0.00  0.00    +0.108 C 
ATOM     22  C   UNL     1      -3.412   8.211   4.593  0.00  0.00    +0.021 C 
ATOM     23  C   UNL     1      -4.823   8.342   3.960  0.00  0.00    +0.029 C 
ATOM     24  C   UNL     1      -4.778   7.319   2.806  0.00  0.00    +0.106 C 
BRANCH  24  25
ATOM     25  C   UNL     1      -6.111   6.625   2.687  0.00  0.00    -0.027 A 
ATOM     26  C   UNL     1      -6.444   5.614   3.570  0.00  0.00    +0.009 A 
ATOM     27  C   UNL     1      -7.667   4.981   3.467  0.00  0.00    +0.046 A 
ATOM     28  C   UNL     1      -8.557   5.351   2.470  0.00  0.00    +0.120 A 
ATOM     29  C   UNL     1      -8.218   6.362   1.582  0.00  0.00    +0.046 A 
ATOM     30  C   UNL     1      -6.996   6.996   1.692  0.00  0.00    +0.009 A 
BRANCH  28  31
ATOM     31  O   UNL     1      -9.759   4.726   2.364  0.00  0.00    -0.495 OA
ATOM     32  C   UNL     1     -10.040   3.695   3.312  0.00  0.00    +0.277 C 
ENDBRANCH  28  31
ENDBRANCH  24  25
ENDBRANCH  17  18
ENDBRANCH   5  17
TORSDOF 5
