REMARK  Name = ZINC21949825
REMARK  2 active torsions:
REMARK  status: ('A' for Active; 'I' for Inactive)
REMARK    1  A    between atoms: C_2  and  C_3
REMARK    2  A    between atoms: C_3  and  N_4
REMARK                            x       y       z     vdW  Elec       q    Type
REMARK                         _______ _______ _______ _____ _____    ______ ____
ROOT
ATOM      1  N   UNL     1       7.233  -0.531  -0.069  0.00  0.00    -0.320 N 
ATOM      2  C   UNL     1       6.139   0.305  -0.055  0.00  0.00    +0.161 A 
ATOM      3  N   UNL     1       4.861  -0.016  -0.044  0.00  0.00    -0.205 NA
ATOM      4  C   UNL     1       3.893   0.902  -0.031  0.00  0.00    +0.177 A 
ATOM      5  C   UNL     1       4.342   2.237  -0.028  0.00  0.00    +0.124 A 
ATOM      6  S   UNL     1       6.105   2.042  -0.046  0.00  0.00    -0.045 S 
ATOM      7  C   UNL     1       3.459   3.304  -0.015  0.00  0.00    +0.268 A 
ATOM      8  O   UNL     1       3.866   4.454  -0.013  0.00  0.00    -0.267 OA
ATOM      9  N   UNL     1       2.130   3.035  -0.008  0.00  0.00    -0.300 N 
ATOM     10  H   UNL     1       1.402   3.860  -0.004  0.00  0.00    +0.171 HD
ATOM     11  C   UNL     1       1.714   1.735  -0.005  0.00  0.00    +0.182 A 
ATOM     12  N   UNL     1       2.542   0.724  -0.018  0.00  0.00    -0.202 NA
ATOM     13  S   UNL     1      -0.017   1.406   0.010  0.00  0.00    -0.011 S 
ATOM     14  H   UNL     1       8.249  -0.108  -0.076  0.00  0.00    +0.148 HD
ENDROOT
BRANCH   1  15
ATOM     15  C   UNL     1       7.045  -1.984  -0.074  0.00  0.00    +0.130 C 
BRANCH  15  17
ATOM     16  C   UNL     1       8.688  -3.546   0.833  0.00  0.00    +0.005 C 
ATOM     17  C   UNL     1       8.389  -2.665  -0.090  0.00  0.00    -0.016 C 
ENDBRANCH  15  17
ENDBRANCH   1  15
TORSDOF 2
