REMARK  Name = ZINC09308741
REMARK  11 active torsions:
REMARK  status: ('A' for Active; 'I' for Inactive)
REMARK    1  A    between atoms: C_1  and  C_2
REMARK    2  A    between atoms: C_2  and  C_3
REMARK    3  A    between atoms: C_3  and  O_4
REMARK    4  A    between atoms: O_4  and  C_5
REMARK    5  A    between atoms: C_8  and  C_11
REMARK    6  A    between atoms: C_18  and  N_34
REMARK    7  A    between atoms: C_19  and  C_32
REMARK    8  A    between atoms: C_20  and  C_22
REMARK    9  A    between atoms: C_25  and  C_28
REMARK   10  A    between atoms: C_28  and  O_30
REMARK   11  A    between atoms: O_30  and  C_31
REMARK                            x       y       z     vdW  Elec       q    Type
REMARK                         _______ _______ _______ _____ _____    ______ ____
ROOT
ATOM      1  C   UNL     1       3.173  -4.376  -5.596  0.00  0.00    +0.074 A 
ATOM      2  C   UNL     1       2.776  -5.490  -6.258  0.00  0.00    +0.054 A 
ATOM      3  C   UNL     1       3.714  -5.751  -7.275  0.00  0.00    +0.245 A 
ATOM      4  N   UNL     1       4.638  -4.834  -7.228  0.00  0.00    -0.135 NA
ATOM      5  N   UNL     1       4.328  -3.945  -6.186  0.00  0.00    -0.273 N 
ATOM      6  H   UNL     1       4.843  -3.164  -5.929  0.00  0.00    +0.189 HD
ATOM      7  O   UNL     1       3.586  -6.812  -8.118  0.00  0.00    -0.421 OA
ATOM      8  C   UNL     1       2.401  -7.453  -8.134  0.00  0.00    +0.201 C 
ATOM      9  C   UNL     1       1.432  -7.292  -7.209  0.00  0.00    +0.098 C 
ATOM     10  C   UNL     1       1.570  -6.364  -6.028  0.00  0.00    +0.102 C 
ENDROOT
BRANCH   1  14
ATOM     11  C   UNL     1       1.187  -2.550  -2.313  0.00  0.00    +0.121 A 
ATOM     12  C   UNL     1       2.558  -2.764  -2.261  0.00  0.00    +0.046 A 
ATOM     13  C   UNL     1       3.205  -3.356  -3.324  0.00  0.00    +0.013 A 
ATOM     14  C   UNL     1       2.481  -3.740  -4.453  0.00  0.00    +0.000 A 
ATOM     15  C   UNL     1       1.104  -3.524  -4.502  0.00  0.00    +0.013 A 
ATOM     16  C   UNL     1       0.462  -2.936  -3.432  0.00  0.00    +0.046 A 
BRANCH  11  17
ATOM     17  O   UNL     1       0.551  -1.966  -1.263  0.00  0.00    -0.492 OA
BRANCH  17  18
ATOM     18  C   UNL     1       1.357  -1.593  -0.143  0.00  0.00    +0.229 C 
BRANCH  18  20
ATOM     19  C   UNL     1       1.336  -0.557   2.131  0.00  0.00    +0.007 C 
ATOM     20  C   UNL     1       0.474  -0.956   0.932  0.00  0.00    +0.038 C 
ENDBRANCH  18  20
ENDBRANCH  17  18
ENDBRANCH  11  17
ENDBRANCH   1  14
BRANCH  10  21
ATOM     21  C   UNL     1       1.758  -7.169  -4.768  0.00  0.00    -0.035 A 
ATOM     22  C   UNL     1       2.866  -7.986  -4.631  0.00  0.00    +0.005 A 
ATOM     23  C   UNL     1       3.044  -8.725  -3.480  0.00  0.00    +0.015 A 
ATOM     24  C   UNL     1       2.103  -8.647  -2.451  0.00  0.00    +0.059 A 
ATOM     25  C   UNL     1       0.987  -7.821  -2.596  0.00  0.00    +0.015 A 
ATOM     26  C   UNL     1       0.824  -7.083  -3.751  0.00  0.00    +0.005 A 
BRANCH  24  27
ATOM     27  C   UNL     1       2.287  -9.436  -1.216  0.00  0.00    +0.339 C 
ATOM     28  O   UNL     1       3.258 -10.154  -1.093  0.00  0.00    -0.245 OA
BRANCH  27  29
ATOM     29  O   UNL     1       1.376  -9.359  -0.226  0.00  0.00    -0.464 OA
ATOM     30  C   UNL     1       1.618 -10.149   0.940  0.00  0.00    +0.280 C 
ENDBRANCH  27  29
ENDBRANCH  24  27
ENDBRANCH  10  21
BRANCH   8  31
ATOM     31  N   UNL     1       2.163  -8.330  -9.163  0.00  0.00    -0.328 N 
ATOM     32  H   UNL     1       2.836  -8.470  -9.846  0.00  0.00    +0.145 HD
ATOM     33  H   UNL     1       1.320  -8.809  -9.207  0.00  0.00    +0.145 HD
ENDBRANCH   8  31
BRANCH   9  34
ATOM     34  C   UNL     1       0.217  -8.037  -7.354  0.00  0.00    +0.101 C 
ATOM     35  N   UNL     1      -0.746  -8.628  -7.469  0.00  0.00    -0.191 NA
ENDBRANCH   9  34
TORSDOF 9
