REMARK  Name = ZINC10000570
REMARK  13 active torsions:
REMARK  status: ('A' for Active; 'I' for Inactive)
REMARK    1  A    between atoms: C_1  and  C_2
REMARK    2  A    between atoms: C_2  and  C_3
REMARK    3  A    between atoms: C_2  and  C_4
REMARK    4  A    between atoms: C_4  and  C_6
REMARK    5  A    between atoms: C_4  and  N_24
REMARK    6  A    between atoms: N_8  and  N_9
REMARK    7  A    between atoms: C_10  and  C_11
REMARK    8  A    between atoms: C_13  and  O_22
REMARK    9  A    between atoms: C_14  and  O_18
REMARK   10  A    between atoms: O_18  and  C_19
REMARK   11  A    between atoms: C_19  and  C_20
REMARK   12  A    between atoms: O_22  and  C_23
REMARK   13  A    between atoms: C_25  and  C_27
REMARK                            x       y       z     vdW  Elec       q    Type
REMARK                         _______ _______ _______ _____ _____    ______ ____
ROOT
ATOM      1  C   UNL     1      -2.149   1.498   1.280  0.00  0.00    +0.253 C 
ATOM      2  O   UNL     1      -2.527   0.790   2.190  0.00  0.00    -0.272 OA
ATOM      3  N   UNL     1      -2.992   1.817   0.279  0.00  0.00    -0.205 N 
ATOM      4  H   UNL     1      -2.690   2.383  -0.449  0.00  0.00    +0.177 HD
ENDROOT
BRANCH   3   5
ATOM      5  N   UNL     1      -4.307   1.332   0.289  0.00  0.00    -0.188 NA
ATOM      6  C   UNL     1      -5.119   1.640  -0.675  0.00  0.00    +0.138 C 
BRANCH   6   7
ATOM      7  C   UNL     1      -6.503   1.130  -0.665  0.00  0.00    -0.001 A 
ATOM      8  C   UNL     1      -7.381   1.465  -1.699  0.00  0.00    +0.059 A 
ATOM      9  C   UNL     1      -8.675   0.980  -1.688  0.00  0.00    +0.163 A 
ATOM     10  C   UNL     1      -9.105   0.167  -0.640  0.00  0.00    +0.177 A 
ATOM     11  C   UNL     1      -8.235  -0.161   0.390  0.00  0.00    +0.064 A 
ATOM     12  C   UNL     1      -6.940   0.315   0.382  0.00  0.00    +0.028 A 
ATOM     13 BR   UNL     1      -8.826  -1.264   1.807  0.00  0.00    -0.046 Br
BRANCH   9  14
ATOM     14  O   UNL     1      -9.530   1.299  -2.696  0.00  0.00    -0.491 OA
ATOM     15  C   UNL     1      -9.021   2.136  -3.737  0.00  0.00    +0.277 C 
ENDBRANCH   9  14
BRANCH  10  16
ATOM     16  O   UNL     1     -10.380  -0.304  -0.628  0.00  0.00    -0.475 OA
BRANCH  16  17
ATOM     17  C   UNL     1     -11.364   0.501   0.023  0.00  0.00    +0.317 C 
BRANCH  17  18
ATOM     18  C   UNL     1     -12.675  -0.161  -0.061  0.00  0.00    -0.065 C 
ATOM     19  C   UNL     1     -13.722  -0.690  -0.129  0.00  0.00    +0.007 C 
ENDBRANCH  17  18
ENDBRANCH  16  17
ENDBRANCH  10  16
ENDBRANCH   6   7
ENDBRANCH   3   5
BRANCH   1  20
ATOM     20  C   UNL     1      -0.735   2.019   1.269  0.00  0.00    +0.163 C 
BRANCH  20  21
ATOM     21  N   UNL     1      -0.026   1.534   2.456  0.00  0.00    -0.300 N 
ATOM     22  C   UNL     1       1.026   2.222   2.941  0.00  0.00    +0.245 C 
ATOM     23  O   UNL     1       1.387   3.246   2.394  0.00  0.00    -0.270 OA
ATOM     24  H   UNL     1      -0.314   0.717   2.893  0.00  0.00    +0.150 HD
BRANCH  22  25
ATOM     25  C   UNL     1       1.741   1.733   4.139  0.00  0.00    +0.037 A 
ATOM     26  C   UNL     1       1.325   0.560   4.773  0.00  0.00    +0.014 A 
ATOM     27  C   UNL     1       2.000   0.105   5.885  0.00  0.00    +0.021 A 
ATOM     28  C   UNL     1       3.080   0.815   6.382  0.00  0.00    +0.041 A 
ATOM     29  C   UNL     1       3.494   1.982   5.761  0.00  0.00    +0.021 A 
ATOM     30  C   UNL     1       2.831   2.444   4.644  0.00  0.00    +0.014 A 
ATOM     31 CL   UNL     1       3.921   0.240   7.788  0.00  0.00    -0.084 Cl
ENDBRANCH  22  25
ENDBRANCH  20  21
BRANCH  20  33
ATOM     32  C   UNL     1       0.002  -0.004   0.002  0.00  0.00    +0.009 C 
ATOM     33  C   UNL     1      -0.019   1.526   0.010  0.00  0.00    +0.012 C 
ATOM     34  C   UNL     1       1.417   2.055  -0.000  0.00  0.00    +0.009 C 
ENDBRANCH  20  33
ENDBRANCH   1  20
TORSDOF 10
