REMARK  Name = ZINC04761476
REMARK  11 active torsions:
REMARK  status: ('A' for Active; 'I' for Inactive)
REMARK    1  A    between atoms: C_1  and  C_2
REMARK    2  A    between atoms: C_2  and  C_3
REMARK    3  A    between atoms: C_8  and  N_9
REMARK    4  A    between atoms: C_10  and  C_12
REMARK    5  A    between atoms: C_12  and  S_13
REMARK    6  A    between atoms: S_13  and  C_14
REMARK    7  A    between atoms: C_15  and  C_35
REMARK    8  A    between atoms: C_16  and  C_26
REMARK    9  A    between atoms: C_29  and  O_34
REMARK   10  A    between atoms: C_30  and  O_32
REMARK   11  A    between atoms: O_32  and  C_33
REMARK                            x       y       z     vdW  Elec       q    Type
REMARK                         _______ _______ _______ _____ _____    ______ ____
ROOT
ATOM      1  C   UNL     1      -1.621  -0.310  -7.677  0.00  0.00    +0.112 C 
ATOM      2  C   UNL     1      -2.196  -0.505  -8.921  0.00  0.00    +0.073 C 
ATOM      3  C   UNL     1      -1.347  -0.180 -10.137  0.00  0.00    +0.097 C 
ATOM      4  C   UNL     1       0.053   0.328  -9.851  0.00  0.00    +0.029 C 
ATOM      5  C   UNL     1       0.873   0.643 -10.866  0.00  0.00    +0.162 C 
ATOM      6  C   UNL     1       2.269   1.149 -10.616  0.00  0.00    +0.080 C 
ATOM      7  C   UNL     1       2.304   1.897  -9.280  0.00  0.00    +0.014 C 
ATOM      8  C   UNL     1       1.830   0.954  -8.172  0.00  0.00    +0.056 C 
ATOM      9  C   UNL     1       0.444   0.453  -8.505  0.00  0.00    +0.050 C 
ATOM     10  N   UNL     1      -0.376   0.148  -7.530  0.00  0.00    -0.244 NA
ATOM     11  O   UNL     1       0.438   0.503 -12.134  0.00  0.00    -0.292 OA
ENDROOT
BRANCH   3  12
ATOM     12  C   UNL     1      -2.067   0.866 -10.948  0.00  0.00    -0.031 A 
ATOM     13  C   UNL     1      -2.356   2.096 -10.387  0.00  0.00    +0.008 A 
ATOM     14  C   UNL     1      -3.016   3.059 -11.126  0.00  0.00    +0.049 A 
ATOM     15  C   UNL     1      -3.390   2.793 -12.434  0.00  0.00    +0.158 A 
ATOM     16  C   UNL     1      -3.099   1.556 -12.999  0.00  0.00    +0.162 A 
ATOM     17  C   UNL     1      -2.432   0.596 -12.254  0.00  0.00    +0.054 A 
BRANCH  16  18
ATOM     18  O   UNL     1      -3.463   1.290 -14.282  0.00  0.00    -0.491 OA
ATOM     19  C   UNL     1      -3.132  -0.001 -14.797  0.00  0.00    +0.277 C 
ENDBRANCH  16  18
BRANCH  15  20
ATOM     20  O   UNL     1      -4.040   3.740 -13.163  0.00  0.00    -0.503 OA
ATOM     21  H   UNL     1      -3.452   4.327 -13.659  0.00  0.00    +0.292 HD
ENDBRANCH  15  20
ENDBRANCH   3  12
BRANCH   2  22
ATOM     22  C   UNL     1      -3.535  -0.992  -9.055  0.00  0.00    +0.098 C 
ATOM     23  N   UNL     1      -4.598  -1.379  -9.161  0.00  0.00    -0.191 NA
ENDBRANCH   2  22
BRANCH   1  24
ATOM     24  S   UNL     1      -2.568  -0.672  -6.236  0.00  0.00    -0.096 S 
BRANCH  24  25
ATOM     25  C   UNL     1      -1.451  -0.272  -4.864  0.00  0.00    +0.172 C 
BRANCH  25  27
ATOM     26  N   UNL     1      -1.505  -0.315  -2.391  0.00  0.00    -0.285 N 
ATOM     27  C   UNL     1      -2.147  -0.541  -3.555  0.00  0.00    +0.227 C 
ATOM     28  O   UNL     1      -3.285  -0.961  -3.548  0.00  0.00    -0.275 OA
ATOM     29  H   UNL     1      -0.620   0.082  -2.395  0.00  0.00    +0.155 HD
BRANCH  26  35
ATOM     30  C   UNL     1      -1.349  -1.119  -0.119  0.00  0.00    -0.026 A 
ATOM     31  C   UNL     1      -1.954  -1.445   1.079  0.00  0.00    +0.005 A 
ATOM     32  C   UNL     1      -3.322  -1.313   1.222  0.00  0.00    +0.000 A 
ATOM     33  C   UNL     1      -4.090  -0.854   0.168  0.00  0.00    +0.002 A 
ATOM     34  C   UNL     1      -3.491  -0.525  -1.033  0.00  0.00    +0.023 A 
ATOM     35  C   UNL     1      -2.116  -0.652  -1.178  0.00  0.00    +0.037 A 
BRANCH  30  37
ATOM     36  C   UNL     1       0.819   0.078   0.019  0.00  0.00    +0.009 C 
ATOM     37  C   UNL     1       0.143  -1.263  -0.275  0.00  0.00    +0.033 C 
ENDBRANCH  30  37
ENDBRANCH  26  35
ENDBRANCH  25  27
ENDBRANCH  24  25
ENDBRANCH   1  24
TORSDOF 9
