REMARK  Name = ZINC09376871
REMARK  10 active torsions:
REMARK  status: ('A' for Active; 'I' for Inactive)
REMARK    1  A    between atoms: C_1  and  C_2
REMARK    2  A    between atoms: C_3  and  S_22
REMARK    3  A    between atoms: C_4  and  C_21
REMARK    4  A    between atoms: N_5  and  C_7
REMARK    5  A    between atoms: C_7  and  C_8
REMARK    6  A    between atoms: C_18  and  C_20
REMARK    7  A    between atoms: S_22  and  N_25
REMARK    8  A    between atoms: N_25  and  C_26
REMARK    9  A    between atoms: N_25  and  C_27
REMARK   10  A    between atoms: C_27  and  C_28
REMARK                            x       y       z     vdW  Elec       q    Type
REMARK                         _______ _______ _______ _____ _____    ______ ____
ROOT
ATOM      1  C   UNL     1      -2.540   1.039  -4.159  0.00  0.00    +0.069 C 
ATOM      2  C   UNL     1      -1.613   1.416  -3.032  0.00  0.00    +0.087 A 
ATOM      3  C   UNL     1      -0.875   2.600  -2.938  0.00  0.00    +0.149 A 
ATOM      4  C   UNL     1      -0.170   2.562  -1.784  0.00  0.00    +0.063 A 
ATOM      5  N   UNL     1      -0.451   1.394  -1.169  0.00  0.00    -0.258 N 
ATOM      6  N   UNL     1      -1.355   0.689  -1.975  0.00  0.00    -0.174 NA
ATOM      7  C   UNL     1       0.762   3.631  -1.276  0.00  0.00    +0.067 C 
ENDROOT
BRANCH   3   8
ATOM      8  S   UNL     1      -0.866   3.912  -4.115  0.00  0.00    +0.064 S 
ATOM      9  O   UNL     1      -2.108   3.849  -4.803  0.00  0.00    -0.153 OA
ATOM     10  O   UNL     1      -0.437   5.076  -3.423  0.00  0.00    -0.153 OA
BRANCH   8  11
ATOM     11  N   UNL     1       0.310   3.562  -5.228  0.00  0.00    -0.172 NA
ATOM     12  C   UNL     1       1.705   3.913  -4.954  0.00  0.00    +0.132 C 
BRANCH  11  13
ATOM     13  C   UNL     1      -0.046   2.903  -6.487  0.00  0.00    +0.183 C 
BRANCH  13  14
ATOM     14  C   UNL     1      -0.228   3.941  -7.564  0.00  0.00    +0.120 A 
ATOM     15  C   UNL     1       0.709   4.331  -8.447  0.00  0.00    +0.046 A 
ATOM     16  C   UNL     1       0.113   5.317  -9.268  0.00  0.00    +0.041 A 
ATOM     17  C   UNL     1      -1.152   5.470  -8.837  0.00  0.00    +0.195 A 
ATOM     18  O   UNL     1      -1.355   4.630  -7.808  0.00  0.00    -0.466 OA
ENDBRANCH  13  14
ENDBRANCH  11  13
ENDBRANCH   8  11
ENDBRANCH   3   8
BRANCH   5  19
ATOM     19  C   UNL     1       0.097   0.940   0.111  0.00  0.00    +0.239 C 
BRANCH  19  20
ATOM     20  C   UNL     1      -0.797   1.404   1.233  0.00  0.00    +0.242 C 
ATOM     21  O   UNL     1      -1.793   2.051   0.986  0.00  0.00    -0.273 OA
ATOM     22  N   UNL     1      -0.488   1.101   2.509  0.00  0.00    -0.267 N 
ATOM     23  C   UNL     1       0.627   0.360   2.910  0.00  0.00    +0.040 A 
ATOM     24  C   UNL     1       1.642  -0.203   2.133  0.00  0.00    +0.024 A 
ATOM     25  C   UNL     1       2.670  -0.899   2.731  0.00  0.00    +0.002 A 
ATOM     26  C   UNL     1       2.708  -1.041   4.106  0.00  0.00    +0.000 A 
ATOM     27  C   UNL     1       1.710  -0.481   4.883  0.00  0.00    +0.005 A 
ATOM     28  C   UNL     1       0.677   0.218   4.288  0.00  0.00    -0.024 A 
ATOM     29  C   UNL     1      -0.521   0.918   4.888  0.00  0.00    +0.059 C 
ATOM     30  C   UNL     1      -1.277   1.496   3.680  0.00  0.00    +0.083 C 
ATOM     31  C   UNL     1      -2.683   0.898   3.599  0.00  0.00    +0.029 C 
ENDBRANCH  19  20
ENDBRANCH   5  19
TORSDOF 6
