REMARK  Name = ZINC27230185
REMARK  6 active torsions:
REMARK  status: ('A' for Active; 'I' for Inactive)
REMARK    1  A    between atoms: C_3  and  C_6
REMARK    2  A    between atoms: C_7  and  C_8
REMARK    3  A    between atoms: C_13  and  N_15
REMARK    4  A    between atoms: N_15  and  C_16
REMARK    5  A    between atoms: C_19  and  C_23
REMARK    6  A    between atoms: C_20  and  O_22
REMARK                            x       y       z     vdW  Elec       q    Type
REMARK                         _______ _______ _______ _____ _____    ______ ____
ROOT
ATOM      1  C   UNL     1      -1.236   1.759   0.025  0.00  0.00    +0.020 C 
ATOM      2  C   UNL     1      -2.420   1.054   0.028  0.00  0.00    +0.079 C 
ATOM      3  C   UNL     1      -2.653  -0.403   0.036  0.00  0.00    +0.276 C 
ATOM      4  O   UNL     1      -1.728  -1.202   0.043  0.00  0.00    -0.267 OA
ATOM      5  N   UNL     1      -3.909  -0.797   0.038  0.00  0.00    -0.152 NA
ATOM      6  C   UNL     1      -4.919   0.058   0.032  0.00  0.00    +0.175 C 
ATOM      7  S   UNL     1      -4.107   1.648   0.030  0.00  0.00    -0.050 S 
ENDROOT
BRANCH   1   9
ATOM      8  C   UNL     1       1.158   1.770   0.022  0.00  0.00    +0.046 C 
ATOM      9  C   UNL     1      -0.012   1.074   0.030  0.00  0.00    +0.005 C 
BRANCH   8  12
ATOM     10  C   UNL     1       4.571   0.600   0.016  0.00  0.00    +0.042 A 
ATOM     11  C   UNL     1       3.647   1.656   0.008  0.00  0.00    +0.049 A 
ATOM     12  C   UNL     1       2.392   1.080   0.022  0.00  0.00    +0.128 A 
ATOM     13  O   UNL     1       2.553  -0.260   0.029  0.00  0.00    -0.464 OA
ATOM     14  C   UNL     1       3.862  -0.552   0.026  0.00  0.00    +0.195 A 
ENDBRANCH   8  12
ENDBRANCH   1   9
BRANCH   6  15
ATOM     15  N   UNL     1      -6.265  -0.213   0.031  0.00  0.00    -0.192 NA
BRANCH  15  16
ATOM     16  C   UNL     1      -6.711  -1.528  -0.079  0.00  0.00    +0.059 A 
ATOM     17  C   UNL     1      -5.910  -2.483  -0.702  0.00  0.00    +0.026 A 
ATOM     18  C   UNL     1      -6.335  -3.775  -0.811  0.00  0.00    +0.020 A 
ATOM     19  C   UNL     1      -7.585  -4.147  -0.307  0.00  0.00    +0.105 A 
ATOM     20  C   UNL     1      -8.399  -3.188   0.317  0.00  0.00    +0.133 A 
ATOM     21  C   UNL     1      -7.955  -1.881   0.427  0.00  0.00    +0.071 A 
BRANCH  19  22
ATOM     22  C   UNL     1      -8.047  -5.539  -0.430  0.00  0.00    +0.390 C 
ATOM     23  O   UNL     1      -9.134  -5.860   0.009  0.00  0.00    -0.240 OA
ATOM     24  O   UNL     1      -7.264  -6.458  -1.029  0.00  0.00    -0.240 OA
ENDBRANCH  19  22
BRANCH  20  25
ATOM     25  O   UNL     1      -9.613  -3.540   0.810  0.00  0.00    -0.506 OA
ATOM     26  H   UNL     1     -10.248  -2.786   1.298  0.00  0.00    +0.292 HD
ENDBRANCH  20  25
ENDBRANCH  15  16
ENDBRANCH   6  15
TORSDOF 6
