REMARK  Name = ZINC60154856
REMARK  11 active torsions:
REMARK  status: ('A' for Active; 'I' for Inactive)
REMARK    1  A    between atoms: C_1  and  C_2
REMARK    2  A    between atoms: C_2  and  C_3
REMARK    3  A    between atoms: C_2  and  C_4
REMARK    4  A    between atoms: C_2  and  O_5
REMARK    5  A    between atoms: O_5  and  C_6
REMARK    6  A    between atoms: C_11  and  C_14
REMARK    7  A    between atoms: C_14  and  C_15
REMARK    8  A    between atoms: N_17  and  C_18
REMARK    9  A    between atoms: C_18  and  C_19
REMARK   10  A    between atoms: C_19  and  C_21
REMARK   11  A    between atoms: C_19  and  N_28
REMARK                            x       y       z     vdW  Elec       q    Type
REMARK                         _______ _______ _______ _____ _____    ______ ____
ROOT
ATOM      1  C   UNL     1       6.598  -2.943  -4.521  0.00  0.00    +0.213 C 
ATOM      2  O   UNL     1       6.927  -1.782  -4.401  0.00  0.00    -0.276 OA
ATOM      3  N   UNL     1       7.492  -3.857  -4.949  0.00  0.00    -0.317 N 
ATOM      4  H   UNL     1       7.228  -4.785  -5.045  0.00  0.00    +0.149 HD
ENDROOT
BRANCH   1   5
ATOM      5  C   UNL     1       5.189  -3.365  -4.192  0.00  0.00    +0.099 C 
BRANCH   5  11
ATOM      6  C   UNL     1       2.046  -0.483  -0.795  0.00  0.00    +0.403 C 
ATOM      7  O   UNL     1       2.585   0.019   0.171  0.00  0.00    -0.226 OA
ATOM      8  N   UNL     1       2.756  -0.717  -1.917  0.00  0.00    -0.267 N 
ATOM      9  C   UNL     1       2.117  -1.318  -3.095  0.00  0.00    +0.111 C 
ATOM     10  C   UNL     1       2.925  -2.548  -3.520  0.00  0.00    +0.023 C 
ATOM     11  C   UNL     1       4.385  -2.146  -3.734  0.00  0.00    +0.001 C 
ATOM     12  C   UNL     1       4.968  -1.615  -2.422  0.00  0.00    +0.023 C 
ATOM     13  C   UNL     1       4.182  -0.369  -1.987  0.00  0.00    +0.111 C 
BRANCH   6  14
ATOM     14  O   UNL     1       0.740  -0.807  -0.745  0.00  0.00    -0.445 OA
BRANCH  14  16
ATOM     15  C   UNL     1       0.113   0.968   0.770  0.00  0.00    +0.055 C 
ATOM     16  C   UNL     1       0.050  -0.532   0.476  0.00  0.00    +0.107 C 
ATOM     17  C   UNL     1       0.709  -1.305   1.620  0.00  0.00    +0.055 C 
ATOM     18  C   UNL     1      -1.412  -0.965   0.344  0.00  0.00    +0.055 C 
ENDBRANCH  14  16
ENDBRANCH   6  14
ENDBRANCH   5  11
ENDBRANCH   1   5
BRANCH   3  19
ATOM     19  C   UNL     1       8.861  -3.447  -5.268  0.00  0.00    +0.093 C 
BRANCH  19  20
ATOM     20  C   UNL     1       9.700  -4.684  -5.596  0.00  0.00    -0.020 C 
BRANCH  20  21
ATOM     21  C   UNL     1       9.829  -5.544  -4.366  0.00  0.00    -0.058 A 
ATOM     22  C   UNL     1      10.749  -5.216  -3.387  0.00  0.00    +0.002 A 
ATOM     23  C   UNL     1      10.868  -6.005  -2.258  0.00  0.00    +0.002 A 
ATOM     24  C   UNL     1      10.068  -7.122  -2.108  0.00  0.00    +0.020 A 
ATOM     25  C   UNL     1       9.148  -7.451  -3.087  0.00  0.00    +0.041 A 
ATOM     26  C   UNL     1       9.025  -6.657  -4.214  0.00  0.00    +0.022 A 
ATOM     27 CL   UNL     1       8.143  -8.854  -2.899  0.00  0.00    -0.084 Cl
ENDBRANCH  20  21
BRANCH  20  28
ATOM     28  N   UNL     1      11.035  -4.265  -6.044  0.00  0.00    +0.385 N 
ATOM     29  C   UNL     1      11.859  -5.455  -6.381  0.00  0.00    -0.078 C 
ATOM     30  C   UNL     1      12.943  -4.879  -7.326  0.00  0.00    -0.020 C 
ATOM     31  C   UNL     1      12.162  -3.830  -8.150  0.00  0.00    -0.020 C 
ATOM     32  C   UNL     1      10.932  -3.479  -7.292  0.00  0.00    -0.078 C 
ATOM     33  H   UNL     1      11.488  -3.720  -5.326  0.00  0.00    -0.081 HD
ENDBRANCH  20  28
ENDBRANCH  19  20
ENDBRANCH   3  19
TORSDOF 8
