REMARK  Name = ZINC40040988
REMARK  9 active torsions:
REMARK  status: ('A' for Active; 'I' for Inactive)
REMARK    1  A    between atoms: C_1  and  C_2
REMARK    2  A    between atoms: C_2  and  C_3
REMARK    3  A    between atoms: C_17  and  C_19
REMARK    4  A    between atoms: C_22  and  O_25
REMARK    5  A    between atoms: O_25  and  C_26
REMARK    6  A    between atoms: C_26  and  C_27
REMARK    7  A    between atoms: C_33  and  C_35
REMARK    8  A    between atoms: C_35  and  C_36
REMARK    9  A    between atoms: C_35  and  C_37
REMARK                            x       y       z     vdW  Elec       q    Type
REMARK                         _______ _______ _______ _____ _____    ______ ____
ROOT
ATOM      1  C   UNL     1      -1.412  -0.526   0.013  0.00  0.00    -0.047 A 
ATOM      2  C   UNL     1      -2.051  -0.766   1.221  0.00  0.00    +0.007 A 
ATOM      3  C   UNL     1      -3.341  -1.245   1.253  0.00  0.00    +0.047 A 
ATOM      4  C   UNL     1      -4.024  -1.495   0.062  0.00  0.00    +0.139 A 
ATOM      5  C   UNL     1      -3.369  -1.242  -1.154  0.00  0.00    +0.065 A 
ATOM      6  C   UNL     1      -2.062  -0.755  -1.168  0.00  0.00    +0.019 A 
ATOM      7  C   UNL     1      -4.093  -1.490  -2.426  0.00  0.00    +0.199 A 
ATOM      8  O   UNL     1      -3.552  -1.460  -3.518  0.00  0.00    -0.287 OA
ATOM      9  C   UNL     1      -5.520  -1.774  -2.244  0.00  0.00    +0.072 A 
ATOM     10  C   UNL     1      -6.041  -1.994  -1.000  0.00  0.00    +0.199 A 
ATOM     11  O   UNL     1      -5.288  -1.972   0.117  0.00  0.00    -0.450 OA
ATOM     12  C   UNL     1      -7.486  -2.241  -1.142  0.00  0.00    +0.289 C 
ATOM     13  O   UNL     1      -8.246  -2.467  -0.222  0.00  0.00    -0.266 OA
ATOM     14  N   UNL     1      -7.842  -2.179  -2.441  0.00  0.00    -0.230 N 
ATOM     15  C   UNL     1      -6.635  -1.883  -3.231  0.00  0.00    +0.151 C 
ATOM     16  C   UNL     1      -9.123  -2.362  -2.945  0.00  0.00    +0.191 A 
ATOM     17  N   UNL     1      -9.560  -2.325  -4.197  0.00  0.00    -0.125 NA
ATOM     18  N   UNL     1     -10.774  -2.516  -4.483  0.00  0.00    -0.144 NA
ATOM     19  C   UNL     1     -11.682  -2.764  -3.560  0.00  0.00    +0.106 A 
ATOM     20  S   UNL     1     -10.656  -2.722  -2.093  0.00  0.00    -0.035 S 
ENDROOT
BRANCH  15  21
ATOM     21  C   UNL     1      -6.804  -0.581  -3.971  0.00  0.00    -0.022 A 
ATOM     22  C   UNL     1      -7.482   0.467  -3.377  0.00  0.00    +0.009 A 
ATOM     23  C   UNL     1      -7.639   1.661  -4.053  0.00  0.00    +0.046 A 
ATOM     24  C   UNL     1      -7.115   1.808  -5.329  0.00  0.00    +0.121 A 
ATOM     25  C   UNL     1      -6.434   0.755  -5.923  0.00  0.00    +0.046 A 
ATOM     26  C   UNL     1      -6.276  -0.435  -5.240  0.00  0.00    +0.009 A 
BRANCH  24  27
ATOM     27  O   UNL     1      -7.268   2.982  -5.997  0.00  0.00    -0.483 OA
BRANCH  27  28
ATOM     28  C   UNL     1      -6.702   3.062  -7.307  0.00  0.00    +0.324 C 
BRANCH  28  29
ATOM     29  C   UNL     1      -6.969   4.427  -7.887  0.00  0.00    +0.248 C 
ATOM     30  O   UNL     1      -7.584   5.250  -7.242  0.00  0.00    -0.272 OA
ATOM     31  N   UNL     1      -6.526   4.733  -9.122  0.00  0.00    -0.327 N 
ATOM     32  H   UNL     1      -6.034   4.075  -9.638  0.00  0.00    +0.145 HD
ATOM     33  H   UNL     1      -6.698   5.612  -9.496  0.00  0.00    +0.145 HD
ENDBRANCH  28  29
ENDBRANCH  27  28
ENDBRANCH  24  27
ENDBRANCH  15  21
BRANCH  19  34
ATOM     34  C   UNL     1     -13.162  -3.015  -3.700  0.00  0.00    +0.040 C 
ATOM     35  C   UNL     1     -13.826  -1.801  -4.351  0.00  0.00    +0.014 C 
ATOM     36  C   UNL     1     -13.388  -4.250  -4.574  0.00  0.00    +0.014 C 
ENDBRANCH  19  34
BRANCH   1  38
ATOM     37  C   UNL     1      -0.019   1.526   0.010  0.00  0.00    +0.009 C 
ATOM     38  C   UNL     1       0.002  -0.004   0.002  0.00  0.00    +0.032 C 
ENDBRANCH   1  38
TORSDOF 6
