REMARK  Name = ZINC48690075
REMARK  4 active torsions:
REMARK  status: ('A' for Active; 'I' for Inactive)
REMARK    1  A    between atoms: C_1  and  C_2
REMARK    2  A    between atoms: C_8  and  N_10
REMARK    3  A    between atoms: C_11  and  C_13
REMARK    4  A    between atoms: N_15  and  C_16
REMARK                            x       y       z     vdW  Elec       q    Type
REMARK                         _______ _______ _______ _____ _____    ______ ____
ROOT
ATOM      1  C   UNL     1       4.194   0.650   2.378  0.00  0.00    +0.303 C 
ATOM      2  O   UNL     1       4.724   0.947   1.327  0.00  0.00    -0.265 OA
ATOM      3  N   UNL     1       4.874   0.776   3.535  0.00  0.00    -0.277 N 
ATOM      4  H   UNL     1       4.431   0.601   4.380  0.00  0.00    +0.155 HD
ENDROOT
BRANCH   3   5
ATOM      5  C   UNL     1       6.219   1.160   3.517  0.00  0.00    +0.052 A 
ATOM      6  C   UNL     1       6.673   2.058   2.560  0.00  0.00    +0.073 A 
ATOM      7  C   UNL     1       8.005   2.439   2.543  0.00  0.00    +0.164 A 
ATOM      8  C   UNL     1       8.886   1.922   3.486  0.00  0.00    +0.163 A 
ATOM      9  C   UNL     1       8.431   1.024   4.440  0.00  0.00    +0.066 A 
ATOM     10  C   UNL     1       7.101   0.647   4.460  0.00  0.00    +0.043 A 
ATOM     11 BR   UNL     1       6.484  -0.571   5.768  0.00  0.00    -0.048 Br
ATOM     12  O   UNL     1      10.197   2.291   3.490  0.00  0.00    -0.485 OA
ATOM     13  C   UNL     1      10.698   2.901   2.296  0.00  0.00    +0.270 C 
ATOM     14  C   UNL     1       9.689   3.965   1.841  0.00  0.00    +0.270 C 
ATOM     15  O   UNL     1       8.436   3.318   1.596  0.00  0.00    -0.485 OA
ENDBRANCH   3   5
BRANCH   1  17
ATOM     16  N   UNL     1       2.110   0.017   1.232  0.00  0.00    -0.304 N 
ATOM     17  C   UNL     1       2.790   0.143   2.389  0.00  0.00    +0.300 C 
ATOM     18  O   UNL     1       2.260  -0.155   3.440  0.00  0.00    -0.265 OA
ATOM     19  H   UNL     1       2.533   0.254   0.393  0.00  0.00    +0.149 HD
BRANCH  16  26
ATOM     20  C   UNL     1      -0.015   1.562   0.012  0.00  0.00    +0.009 C 
ATOM     21  C   UNL     1      -0.005   0.032   0.004  0.00  0.00    +0.006 C 
ATOM     22  C   UNL     1       0.707  -0.467  -1.255  0.00  0.00    +0.005 C 
ATOM     23  C   UNL     1       0.717  -1.997  -1.264  0.00  0.00    +0.000 C 
ATOM     24  C   UNL     1       1.453  -2.509  -0.024  0.00  0.00    +0.002 C 
ATOM     25  C   UNL     1       0.741  -2.010   1.235  0.00  0.00    +0.022 C 
ATOM     26  C   UNL     1       0.732  -0.480   1.243  0.00  0.00    +0.076 C 
ENDBRANCH  16  26
ENDBRANCH   1  17
TORSDOF 3
