REMARK  Name = ZINC28814042
REMARK  7 active torsions:
REMARK  status: ('A' for Active; 'I' for Inactive)
REMARK    1  A    between atoms: C_1  and  C_2
REMARK    2  A    between atoms: C_2  and  C_4
REMARK    3  A    between atoms: C_2  and  O_18
REMARK    4  A    between atoms: N_6  and  N_7
REMARK    5  A    between atoms: C_8  and  C_10
REMARK    6  A    between atoms: C_15  and  O_16
REMARK    7  A    between atoms: O_18  and  C_19
REMARK                            x       y       z     vdW  Elec       q    Type
REMARK                         _______ _______ _______ _____ _____    ______ ____
ROOT
ATOM      1  C   UNL     1       0.173  -0.617  -6.067  0.00  0.00    +0.270 C 
ATOM      2  O   UNL     1       0.359  -1.815  -6.100  0.00  0.00    -0.270 OA
ATOM      3  N   UNL     1       0.221   0.040  -4.891  0.00  0.00    -0.231 N 
ATOM      4  H   UNL     1       0.052   1.127  -4.861  0.00  0.00    +0.173 HD
ENDROOT
BRANCH   3   5
ATOM      5  N   UNL     1       0.485  -0.661  -3.707  0.00  0.00    -0.230 N 
ATOM      6  C   UNL     1       0.533  -0.004  -2.531  0.00  0.00    +0.264 C 
ATOM      7  O   UNL     1       0.347   1.197  -2.498  0.00  0.00    -0.269 OA
ATOM      8  H   UNL     1       0.654  -1.748  -3.737  0.00  0.00    +0.173 HD
BRANCH   6   9
ATOM      9  C   UNL     1       0.812  -0.743  -1.285  0.00  0.00    +0.081 A 
ATOM     10  C   UNL     1       1.031  -2.122  -1.319  0.00  0.00    +0.032 A 
ATOM     11  C   UNL     1       1.285  -2.807  -0.150  0.00  0.00    +0.019 A 
ATOM     12  C   UNL     1       1.329  -2.132   1.060  0.00  0.00    +0.019 A 
ATOM     13  C   UNL     1       1.119  -0.768   1.107  0.00  0.00    +0.047 A 
ATOM     14  C   UNL     1       0.863  -0.063  -0.060  0.00  0.00    +0.129 A 
ATOM     15 BR   UNL     1       1.576  -4.675  -0.197  0.00  0.00    -0.050 Br
BRANCH  14  16
ATOM     16  O   UNL     1       0.656   1.277  -0.015  0.00  0.00    -0.506 OA
ATOM     17  H   UNL     1       0.696   1.807   0.948  0.00  0.00    +0.292 HD
ENDBRANCH  14  16
ENDBRANCH   6   9
ENDBRANCH   3   5
BRANCH   1  19
ATOM     18  C   UNL     1       1.032   1.115  -7.620  0.00  0.00    +0.062 C 
ATOM     19  C   UNL     1      -0.112   0.137  -7.340  0.00  0.00    +0.257 C 
BRANCH  19  20
ATOM     20  O   UNL     1      -0.225  -0.786  -8.425  0.00  0.00    -0.480 OA
BRANCH  20  21
ATOM     21  C   UNL     1      -0.960  -0.390  -9.498  0.00  0.00    +0.122 A 
ATOM     22  C   UNL     1      -1.471   0.899  -9.552  0.00  0.00    +0.048 A 
ATOM     23  C   UNL     1      -2.212   1.302 -10.646  0.00  0.00    +0.042 A 
ATOM     24  C   UNL     1      -2.456   0.417 -11.682  0.00  0.00    +0.124 A 
ATOM     25  C   UNL     1      -1.952  -0.872 -11.627  0.00  0.00    +0.042 A 
ATOM     26  C   UNL     1      -1.205  -1.275 -10.537  0.00  0.00    +0.048 A 
ATOM     27  F   UNL     1      -3.185   0.811 -12.749  0.00  0.00    -0.205 F 
ENDBRANCH  20  21
ENDBRANCH  19  20
ENDBRANCH   1  19
TORSDOF 6
