REMARK  Name = ZINC19319707
REMARK  6 active torsions:
REMARK  status: ('A' for Active; 'I' for Inactive)
REMARK    1  A    between atoms: C_3  and  C_10
REMARK    2  A    between atoms: C_5  and  N_7
REMARK    3  A    between atoms: C_10  and  C_16
REMARK    4  A    between atoms: N_11  and  N_12
REMARK    5  A    between atoms: N_12  and  C_13
REMARK    6  A    between atoms: C_13  and  N_15
REMARK                            x       y       z     vdW  Elec       q    Type
REMARK                         _______ _______ _______ _____ _____    ______ ____
ROOT
ATOM      1  C   UNL     1      -0.248   5.386   0.508  0.00  0.00    +0.073 C 
ATOM      2  N   UNL     1      -0.320   4.094   0.409  0.00  0.00    -0.184 NA
ENDROOT
BRANCH   1   3
ATOM      3  C   UNL     1       0.583   6.013   1.597  0.00  0.00    +0.026 C 
ATOM      4  C   UNL     1       2.015   6.259   1.100  0.00  0.00    -0.059 C 
ATOM      5  N   UNL     1       2.781   6.867   2.229  0.00  0.00    +0.397 N 
ATOM      6  C   UNL     1       2.184   8.159   2.605  0.00  0.00    +0.011 C 
ATOM      7  N   UNL     1       0.813   7.931   3.090  0.00  0.00    -0.305 NA
ATOM      8  C   UNL     1      -0.021   7.361   2.018  0.00  0.00    +0.096 C 
ATOM      9  C   UNL     1       0.829   7.036   4.258  0.00  0.00    +0.167 C 
ATOM     10  N   UNL     1       1.436   5.752   3.869  0.00  0.00    -0.305 NA
ATOM     11  C   UNL     1       0.626   5.097   2.828  0.00  0.00    +0.096 C 
ATOM     12  C   UNL     1       2.812   5.964   3.391  0.00  0.00    +0.011 C 
ATOM     13  H   UNL     1       3.820   7.039   1.910  0.00  0.00    -0.078 HD
ENDBRANCH   1   3
BRANCH   1  16
ATOM     14  C   UNL     1      -2.266   8.215  -0.910  0.00  0.00    +0.003 A 
ATOM     15  C   UNL     1      -1.584   7.421  -0.011  0.00  0.00    +0.010 A 
ATOM     16  C   UNL     1      -0.978   6.240  -0.447  0.00  0.00    +0.000 A 
ATOM     17  C   UNL     1      -1.068   5.872  -1.792  0.00  0.00    +0.042 A 
ATOM     18  C   UNL     1      -1.757   6.673  -2.678  0.00  0.00    +0.127 A 
ATOM     19  C   UNL     1      -2.350   7.844  -2.240  0.00  0.00    +0.033 A 
BRANCH  18  20
ATOM     20  N   UNL     1      -1.859   6.282  -4.102  0.00  0.00    +0.056 N 
ATOM     21  O   UNL     1      -2.463   6.991  -4.887  0.00  0.00    -0.126 OA
ATOM     22  O   UNL     1      -1.337   5.252  -4.489  0.00  0.00    -0.126 OA
ENDBRANCH  18  20
ENDBRANCH   1  16
BRANCH   2  23
ATOM     23  N   UNL     1       0.670   3.291   0.990  0.00  0.00    -0.218 N 
ATOM     24  H   UNL     1       1.706   3.655   1.054  0.00  0.00    +0.176 HD
BRANCH  23  25
ATOM     25  C   UNL     1       0.353   2.071   1.469  0.00  0.00    +0.147 C 
ATOM     26  S   UNL     1       1.563   1.090   2.178  0.00  0.00    -0.017 S 
BRANCH  25  27
ATOM     27  N   UNL     1      -0.916   1.625   1.390  0.00  0.00    -0.339 N 
ATOM     28  H   UNL     1      -1.175   0.630   1.781  0.00  0.00    +0.144 HD
ATOM     29  H   UNL     1      -1.694   2.256   0.934  0.00  0.00    +0.144 HD
ENDBRANCH  25  27
ENDBRANCH  23  25
ENDBRANCH   2  23
TORSDOF 6
