REMARK  Name = ZINC27016682
REMARK  9 active torsions:
REMARK  status: ('A' for Active; 'I' for Inactive)
REMARK    1  A    between atoms: C_1  and  C_2
REMARK    2  A    between atoms: C_7  and  O_8
REMARK    3  A    between atoms: O_8  and  C_9
REMARK    4  A    between atoms: C_9  and  C_10
REMARK    5  A    between atoms: N_12  and  C_13
REMARK    6  A    between atoms: C_13  and  C_15
REMARK    7  A    between atoms: C_13  and  N_19
REMARK    8  A    between atoms: N_19  and  C_20
REMARK    9  A    between atoms: C_21  and  C_29
REMARK                            x       y       z     vdW  Elec       q    Type
REMARK                         _______ _______ _______ _____ _____    ______ ____
ROOT
ATOM      1  C   UNL     1      -3.956  -4.641   0.013  0.00  0.00    +0.210 C 
ENDROOT
BRANCH   1   4
ATOM      2  C   UNL     1      -2.453  -2.723   0.010  0.00  0.00    +0.252 C 
ATOM      3  O   UNL     1      -3.426  -1.998   0.023  0.00  0.00    -0.272 OA
ATOM      4  N   UNL     1      -2.610  -4.061   0.004  0.00  0.00    -0.291 N 
ATOM      5  H   UNL     1      -1.728  -4.718  -0.007  0.00  0.00    +0.151 HD
BRANCH   2   6
ATOM      6  C   UNL     1      -1.069  -2.126   0.000  0.00  0.00    +0.324 C 
BRANCH   6   7
ATOM      7  O   UNL     1      -1.165  -0.701   0.009  0.00  0.00    -0.483 OA
BRANCH   7  14
ATOM      8  C   UNL     1      -1.332   2.119   0.020  0.00  0.00    +0.047 C 
ATOM      9  C   UNL     1      -0.017   1.383   0.010  0.00  0.00    -0.009 A 
ATOM     10  C   UNL     1       1.171   2.089   0.002  0.00  0.00    +0.007 A 
ATOM     11  C   UNL     1       2.377   1.414  -0.013  0.00  0.00    +0.000 A 
ATOM     12  C   UNL     1       2.399   0.031  -0.021  0.00  0.00    +0.004 A 
ATOM     13  C   UNL     1       1.214  -0.679  -0.013  0.00  0.00    +0.046 A 
ATOM     14  C   UNL     1       0.002  -0.004   0.002  0.00  0.00    +0.124 A 
ENDBRANCH   7  14
ENDBRANCH   6   7
ENDBRANCH   2   6
ENDBRANCH   1   4
BRANCH   1  15
ATOM     15  C   UNL     1      -4.011  -5.785   1.028  0.00  0.00    +0.225 C 
ATOM     16 CL   UNL     1      -3.619  -5.152   2.670  0.00  0.00    -0.080 Cl
ATOM     17 CL   UNL     1      -5.667  -6.498   1.039  0.00  0.00    -0.080 Cl
ATOM     18 CL   UNL     1      -2.814  -7.053   0.570  0.00  0.00    -0.080 Cl
ENDBRANCH   1  15
BRANCH   1  19
ATOM     19  N   UNL     1      -4.275  -5.155  -1.321  0.00  0.00    -0.317 N 
ATOM     20  H   UNL     1      -3.820  -6.093  -1.672  0.00  0.00    +0.148 HD
BRANCH  19  21
ATOM     21  C   UNL     1      -5.148  -4.462  -2.138  0.00  0.00    +0.080 A 
ATOM     22  C   UNL     1      -5.570  -4.786  -3.421  0.00  0.00    +0.068 A 
ATOM     23  C   UNL     1      -6.503  -3.878  -4.069  0.00  0.00    -0.023 A 
ATOM     24  C   UNL     1      -6.861  -2.802  -3.337  0.00  0.00    -0.005 A 
ATOM     25  S   UNL     1      -5.987  -2.983  -1.808  0.00  0.00    -0.078 S 
ATOM     26  C   UNL     1      -7.798  -1.705  -3.740  0.00  0.00    +0.043 C 
ATOM     27  C   UNL     1      -8.009  -1.784  -5.259  0.00  0.00    +0.005 C 
ATOM     28  C   UNL     1      -8.315  -3.236  -5.640  0.00  0.00    +0.005 C 
ATOM     29  C   UNL     1      -7.059  -4.093  -5.471  0.00  0.00    +0.037 C 
BRANCH  22  30
ATOM     30  C   UNL     1      -5.094  -5.995  -4.096  0.00  0.00    +0.244 C 
ATOM     31  O   UNL     1      -5.705  -7.041  -3.973  0.00  0.00    -0.270 OA
ATOM     32  N   UNL     1      -3.980  -5.950  -4.853  0.00  0.00    -0.325 N 
ATOM     33  H   UNL     1      -3.623  -6.859  -5.359  0.00  0.00    +0.145 HD
ATOM     34  H   UNL     1      -3.428  -5.005  -4.964  0.00  0.00    +0.145 HD
ENDBRANCH  22  30
ENDBRANCH  19  21
ENDBRANCH   1  19
TORSDOF 8
