REMARK  Name = ZINC34686378
REMARK  12 active torsions:
REMARK  status: ('A' for Active; 'I' for Inactive)
REMARK    1  A    between atoms: C_1  and  C_2
REMARK    2  A    between atoms: C_2  and  C_3
REMARK    3  A    between atoms: C_3  and  C_5
REMARK    4  A    between atoms: C_3  and  O_15
REMARK    5  A    between atoms: N_7  and  C_8
REMARK    6  A    between atoms: C_8  and  C_9
REMARK    7  A    between atoms: C_9  and  N_10
REMARK    8  A    between atoms: O_15  and  C_16
REMARK    9  A    between atoms: C_22  and  C_31
REMARK   10  A    between atoms: C_27  and  C_29
REMARK   11  A    between atoms: C_29  and  C_30
REMARK   12  A    between atoms: C_34  and  C_37
REMARK                            x       y       z     vdW  Elec       q    Type
REMARK                         _______ _______ _______ _____ _____    ______ ____
ROOT
ATOM      1  C   UNL     1      -2.033   2.437   0.956  0.00  0.00    +0.122 A 
ATOM      2  C   UNL     1      -2.313   3.476   0.080  0.00  0.00    +0.046 A 
ATOM      3  C   UNL     1      -3.234   4.439   0.433  0.00  0.00    +0.007 A 
ATOM      4  C   UNL     1      -3.888   4.379   1.658  0.00  0.00    -0.040 A 
ATOM      5  C   UNL     1      -3.618   3.343   2.524  0.00  0.00    -0.016 A 
ATOM      6  C   UNL     1      -2.690   2.372   2.173  0.00  0.00    +0.051 A 
ATOM      7  C   UNL     1      -4.312   3.201   3.855  0.00  0.00    +0.137 C 
ATOM      8  N   UNL     1      -5.047   4.433   4.162  0.00  0.00    -0.290 N 
ATOM      9  C   UNL     1      -5.837   5.037   3.076  0.00  0.00    +0.113 C 
ATOM     10  C   UNL     1      -4.869   5.476   1.979  0.00  0.00    +0.054 C 
ATOM     11  C   UNL     1      -5.002   4.989   5.389  0.00  0.00    +0.216 C 
ATOM     12  O   UNL     1      -4.439   4.413   6.295  0.00  0.00    -0.276 OA
ENDROOT
BRANCH   7  13
ATOM     13  C   UNL     1      -3.288   2.948   4.931  0.00  0.00    -0.023 A 
ATOM     14  C   UNL     1      -2.333   3.907   5.215  0.00  0.00    +0.006 A 
ATOM     15  C   UNL     1      -1.393   3.675   6.202  0.00  0.00    +0.004 A 
ATOM     16  C   UNL     1      -1.409   2.485   6.905  0.00  0.00    -0.050 A 
ATOM     17  C   UNL     1      -2.364   1.527   6.622  0.00  0.00    +0.004 A 
ATOM     18  C   UNL     1      -3.307   1.761   5.638  0.00  0.00    +0.006 A 
ATOM     19  C   UNL     1      -0.384   2.231   7.980  0.00  0.00    +0.044 C 
ENDBRANCH   7  13
BRANCH  11  20
ATOM     20  C   UNL     1      -5.650   6.327   5.634  0.00  0.00    +0.092 C 
ATOM     21  C   UNL     1      -5.455   6.728   7.098  0.00  0.00    +0.013 C 
ENDBRANCH  11  20
BRANCH   1  22
ATOM     22  O   UNL     1      -1.123   1.485   0.619  0.00  0.00    -0.480 OA
BRANCH  22  23
ATOM     23  C   UNL     1      -0.555   1.565  -0.690  0.00  0.00    +0.258 C 
BRANCH  23  24
ATOM     24  C   UNL     1      -0.387   0.176  -1.250  0.00  0.00    +0.254 C 
ATOM     25  O   UNL     1      -0.635  -0.790  -0.560  0.00  0.00    -0.272 OA
ATOM     26  N   UNL     1       0.039   0.008  -2.518  0.00  0.00    -0.314 N 
ATOM     27  H   UNL     1       0.237   0.780  -3.069  0.00  0.00    +0.149 HD
BRANCH  26  28
ATOM     28  C   UNL     1       0.203  -1.343  -3.062  0.00  0.00    +0.086 C 
BRANCH  28  29
ATOM     29  C   UNL     1       0.693  -1.253  -4.509  0.00  0.00    -0.060 C 
BRANCH  29  30
ATOM     30  N   UNL     1       0.857  -2.607  -5.055  0.00  0.00    +0.381 N 
ATOM     31  C   UNL     1      -0.468  -3.257  -5.218  0.00  0.00    -0.079 C 
ATOM     32  C   UNL     1      -0.195  -4.358  -6.273  0.00  0.00    -0.020 C 
ATOM     33  C   UNL     1       0.806  -3.676  -7.234  0.00  0.00    -0.020 C 
ATOM     34  C   UNL     1       1.445  -2.542  -6.410  0.00  0.00    -0.079 C 
ATOM     35  H   UNL     1       1.444  -3.159  -4.447  0.00  0.00    -0.082 HD
ENDBRANCH  29  30
ENDBRANCH  28  29
ENDBRANCH  26  28
ENDBRANCH  23  24
BRANCH  23  37
ATOM     36  C   UNL     1       0.625   3.703  -0.162  0.00  0.00    +0.008 C 
ATOM     37  C   UNL     1       0.809   2.252  -0.613  0.00  0.00    +0.051 C 
ENDBRANCH  23  37
ENDBRANCH  22  23
ENDBRANCH   1  22
TORSDOF 9
