REMARK  Name = ZINC04312835
REMARK  6 active torsions:
REMARK  status: ('A' for Active; 'I' for Inactive)
REMARK    1  A    between atoms: C_1  and  C_2
REMARK    2  A    between atoms: C_2  and  C_3
REMARK    3  A    between atoms: C_3  and  N_4
REMARK    4  A    between atoms: C_10  and  C_12
REMARK    5  A    between atoms: C_17  and  O_18
REMARK    6  A    between atoms: O_18  and  C_19
REMARK                            x       y       z     vdW  Elec       q    Type
REMARK                         _______ _______ _______ _____ _____    ______ ____
ROOT
ATOM      1  N   UNL     1       0.738  -1.962  -1.265  0.00  0.00    -0.162 N 
ATOM      2  N   UNL     1       1.730  -2.787  -0.709  0.00  0.00    -0.114 NA
ATOM      3  C   UNL     1       1.346  -4.024  -0.945  0.00  0.00    +0.262 A 
ATOM      4  N   UNL     1       0.189  -3.965  -1.605  0.00  0.00    -0.092 NA
ATOM      5  N   UNL     1      -0.154  -2.738  -1.779  0.00  0.00    -0.044 NA
ATOM      6  N   UNL     1       2.027  -5.187  -0.572  0.00  0.00    -0.248 N 
ATOM      7  C   UNL     1       1.516  -6.395  -0.880  0.00  0.00    +0.254 C 
ATOM      8  O   UNL     1       0.462  -6.474  -1.482  0.00  0.00    -0.270 OA
ATOM      9  H   UNL     1       2.867  -5.124  -0.091  0.00  0.00    +0.158 HD
ENDROOT
BRANCH   7  10
ATOM     10  C   UNL     1       2.234  -7.622  -0.486  0.00  0.00    +0.081 A 
ATOM     11  C   UNL     1       3.442  -7.536   0.211  0.00  0.00    +0.032 A 
ATOM     12  C   UNL     1       4.109  -8.686   0.576  0.00  0.00    +0.020 A 
ATOM     13  C   UNL     1       3.586  -9.929   0.255  0.00  0.00    +0.034 A 
ATOM     14  C   UNL     1       2.393 -10.028  -0.435  0.00  0.00    +0.061 A 
ATOM     15  C   UNL     1       1.706  -8.880  -0.804  0.00  0.00    +0.146 A 
ATOM     16 BR   UNL     1       1.691 -11.730  -0.868  0.00  0.00    -0.046 Br
ATOM     17 BR   UNL     1       5.743  -8.567   1.519  0.00  0.00    -0.050 Br
BRANCH  15  18
ATOM     18  O   UNL     1       0.531  -8.976  -1.476  0.00  0.00    -0.493 OA
ATOM     19  C   UNL     1       0.600  -9.007  -2.903  0.00  0.00    +0.277 C 
ENDBRANCH  15  18
ENDBRANCH   7  10
BRANCH   1  20
ATOM     20  C   UNL     1       0.718  -0.497  -1.257  0.00  0.00    +0.168 C 
BRANCH  20  22
ATOM     21  C   UNL     1      -0.019   1.526   0.010  0.00  0.00    +0.006 C 
ATOM     22  C   UNL     1       0.002  -0.004   0.002  0.00  0.00    +0.022 C 
ENDBRANCH  20  22
ENDBRANCH   1  20
TORSDOF 4
