REMARK  Name = ZINC38728444
REMARK  10 active torsions:
REMARK  status: ('A' for Active; 'I' for Inactive)
REMARK    1  A    between atoms: C_1  and  C_2
REMARK    2  A    between atoms: C_2  and  C_3
REMARK    3  A    between atoms: N_16  and  C_25
REMARK    4  A    between atoms: C_17  and  C_19
REMARK    5  A    between atoms: C_25  and  C_26
REMARK    6  A    between atoms: C_26  and  N_27
REMARK    7  A    between atoms: N_27  and  C_28
REMARK    8  A    between atoms: N_27  and  C_30
REMARK    9  A    between atoms: C_28  and  C_29
REMARK   10  A    between atoms: C_30  and  C_31
REMARK                            x       y       z     vdW  Elec       q    Type
REMARK                         _______ _______ _______ _____ _____    ______ ____
ROOT
ATOM      1  C   UNL     1      -0.034  -0.707   1.382  0.00  0.00    -0.047 A 
ATOM      2  C   UNL     1       1.345  -0.765   1.236  0.00  0.00    +0.007 A 
ATOM      3  C   UNL     1       2.150  -1.147   2.286  0.00  0.00    +0.047 A 
ATOM      4  C   UNL     1       1.583  -1.480   3.516  0.00  0.00    +0.139 A 
ATOM      5  C   UNL     1       0.187  -1.411   3.654  0.00  0.00    +0.065 A 
ATOM      6  C   UNL     1      -0.613  -1.022   2.580  0.00  0.00    +0.019 A 
ATOM      7  C   UNL     1      -0.424  -1.749   4.964  0.00  0.00    +0.199 A 
ATOM      8  O   UNL     1      -1.625  -1.879   5.127  0.00  0.00    -0.287 OA
ATOM      9  C   UNL     1       0.555  -1.911   6.044  0.00  0.00    +0.074 A 
ATOM     10  C   UNL     1       1.894  -1.953   5.780  0.00  0.00    +0.199 A 
ATOM     11  O   UNL     1       2.392  -1.859   4.531  0.00  0.00    -0.450 OA
ATOM     12  C   UNL     1       2.613  -2.113   7.056  0.00  0.00    +0.283 C 
ATOM     13  O   UNL     1       3.820  -2.182   7.172  0.00  0.00    -0.267 OA
ATOM     14  N   UNL     1       1.734  -2.172   8.078  0.00  0.00    -0.284 N 
ATOM     15  C   UNL     1       0.378  -2.051   7.521  0.00  0.00    +0.163 C 
ENDROOT
BRANCH  15  16
ATOM     16  C   UNL     1      -0.424  -3.289   7.832  0.00  0.00    +0.066 A 
ATOM     17  C   UNL     1      -1.805  -3.226   7.835  0.00  0.00    +0.025 A 
ATOM     18  C   UNL     1      -2.533  -4.370   8.123  0.00  0.00    +0.003 A 
ATOM     19  C   UNL     1      -1.842  -5.540   8.399  0.00  0.00    +0.020 A 
ATOM     20  C   UNL     1      -0.461  -5.527   8.378  0.00  0.00    +0.111 A 
ATOM     21  N   UNL     1       0.199  -4.421   8.094  0.00  0.00    -0.258 NA
ENDBRANCH  15  16
BRANCH   1  23
ATOM     22  C   UNL     1      -1.080   1.229   0.239  0.00  0.00    +0.009 C 
ATOM     23  C   UNL     1      -0.896  -0.290   0.219  0.00  0.00    +0.032 C 
ENDBRANCH   1  23
BRANCH  14  24
ATOM     24  C   UNL     1       2.072  -2.328   9.495  0.00  0.00    +0.091 C 
BRANCH  24  25
ATOM     25  C   UNL     1       2.258  -0.949  10.131  0.00  0.00    -0.060 C 
BRANCH  25  26
ATOM     26  N   UNL     1       2.467  -1.100  11.577  0.00  0.00    +0.380 N 
ATOM     27  H   UNL     1       1.710  -1.638  11.972  0.00  0.00    -0.082 HD
BRANCH  26  28
ATOM     28  C   UNL     1       3.739  -1.796  11.818  0.00  0.00    -0.082 C 
ATOM     29  C   UNL     1       3.898  -2.064  13.315  0.00  0.00    -0.017 C 
ENDBRANCH  26  28
BRANCH  26  30
ATOM     30  C   UNL     1       2.507   0.226  12.207  0.00  0.00    -0.082 C 
ATOM     31  C   UNL     1       1.136   0.893  12.080  0.00  0.00    -0.017 C 
ENDBRANCH  26  30
ENDBRANCH  25  26
ENDBRANCH  24  25
ENDBRANCH  14  24
TORSDOF 7
