REMARK  Name = ZINC43630199
REMARK  5 active torsions:
REMARK  status: ('A' for Active; 'I' for Inactive)
REMARK    1  A    between atoms: C_4  and  C_7
REMARK    2  A    between atoms: C_7  and  O_35
REMARK    3  A    between atoms: N_10  and  C_19
REMARK    4  A    between atoms: C_19  and  C_20
REMARK    5  A    between atoms: C_25  and  C_26
REMARK                            x       y       z     vdW  Elec       q    Type
REMARK                         _______ _______ _______ _____ _____    ______ ____
ROOT
ATOM      1  C   UNL     1       3.743  -0.457   0.102  0.00  0.00    +0.091 C 
ATOM      2  C   UNL     1       4.146  -0.592   1.573  0.00  0.00    +0.021 C 
ATOM      3  C   UNL     1       3.167  -1.530   2.281  0.00  0.00    -0.075 C 
ATOM      4  N   UNL     1       3.199  -2.851   1.641  0.00  0.00    +0.385 N 
ATOM      5  C   UNL     1       2.745  -2.741   0.250  0.00  0.00    -0.062 C 
ATOM      6  C   UNL     1       3.708  -1.849  -0.536  0.00  0.00    +0.012 C 
ATOM      7  C   UNL     1       3.228  -1.732  -1.985  0.00  0.00    +0.005 C 
ATOM      8  C   UNL     1       3.186  -3.123  -2.621  0.00  0.00    +0.000 C 
ATOM      9  C   UNL     1       2.224  -4.015  -1.835  0.00  0.00    -0.002 C 
ATOM     10  C   UNL     1       2.703  -4.131  -0.387  0.00  0.00    -0.015 C 
ATOM     11  H   UNL     1       4.142  -3.209   1.658  0.00  0.00    -0.081 HD
ENDROOT
BRANCH   1  15
ATOM     12  C   UNL     1      -0.128   1.331  -0.162  0.00  0.00    +0.000 A 
ATOM     13  C   UNL     1       0.959   1.945  -0.754  0.00  0.00    +0.000 A 
ATOM     14  C   UNL     1       2.212   1.367  -0.669  0.00  0.00    +0.006 A 
ATOM     15  C   UNL     1       2.377   0.174   0.009  0.00  0.00    -0.016 A 
ATOM     16  C   UNL     1       1.290  -0.441   0.603  0.00  0.00    +0.006 A 
ATOM     17  C   UNL     1       0.037   0.137   0.516  0.00  0.00    +0.000 A 
ENDBRANCH   1  15
BRANCH   1  18
ATOM     18  O   UNL     1       4.694   0.359  -0.584  0.00  0.00    -0.384 OA
ATOM     19  H   UNL     1       4.770   1.256  -0.230  0.00  0.00    +0.211 HD
ENDBRANCH   1  18
BRANCH   4  20
ATOM     20  C   UNL     1       2.316  -3.769   2.372  0.00  0.00    -0.039 C 
BRANCH  20  21
ATOM     21  C   UNL     1       2.853  -3.981   3.764  0.00  0.00    -0.019 A 
ATOM     22  C   UNL     1       2.346  -3.458   4.901  0.00  0.00    +0.107 A 
ATOM     23  N   UNL     1       3.107  -3.883   5.932  0.00  0.00    -0.284 N 
ATOM     24  H   UNL     1       2.974  -3.662   6.867  0.00  0.00    +0.188 HD
ATOM     25  N   UNL     1       4.122  -4.699   5.417  0.00  0.00    -0.174 NA
ATOM     26  C   UNL     1       3.971  -4.766   4.111  0.00  0.00    +0.094 A 
BRANCH  26  27
ATOM     27  C   UNL     1       4.828  -5.529   3.171  0.00  0.00    +0.006 A 
ATOM     28  C   UNL     1       4.248  -6.265   2.139  0.00  0.00    +0.014 A 
ATOM     29  C   UNL     1       5.046  -6.975   1.265  0.00  0.00    +0.050 A 
ATOM     30  C   UNL     1       6.425  -6.958   1.409  0.00  0.00    +0.166 A 
ATOM     31  C   UNL     1       7.010  -6.224   2.439  0.00  0.00    +0.167 A 
ATOM     32  C   UNL     1       6.213  -5.507   3.314  0.00  0.00    +0.059 A 
ATOM     33  O   UNL     1       8.365  -6.370   2.364  0.00  0.00    -0.453 OA
ATOM     34  C   UNL     1       8.582  -7.525   1.532  0.00  0.00    +0.466 C 
ATOM     35  O   UNL     1       7.415  -7.564   0.690  0.00  0.00    -0.453 OA
ENDBRANCH  26  27
ENDBRANCH  20  21
ENDBRANCH   4  20
TORSDOF 5
