REMARK  Name = ZINC66740784
REMARK  6 active torsions:
REMARK  status: ('A' for Active; 'I' for Inactive)
REMARK    1  A    between atoms: C_1  and  C_2
REMARK    2  A    between atoms: C_11  and  C_14
REMARK    3  A    between atoms: C_17  and  C_19
REMARK    4  A    between atoms: C_22  and  S_25
REMARK    5  A    between atoms: S_25  and  N_28
REMARK    6  A    between atoms: N_28  and  C_29
REMARK                            x       y       z     vdW  Elec       q    Type
REMARK                         _______ _______ _______ _____ _____    ______ ____
ROOT
ATOM      1  C   UNL     1       2.070  -1.522  -3.306  0.00  0.00    +0.144 A 
ATOM      2  C   UNL     1       2.936  -2.534  -3.502  0.00  0.00    +0.049 A 
ATOM      3  C   UNL     1       4.233  -1.988  -3.424  0.00  0.00    +0.050 A 
ATOM      4  C   UNL     1       4.085  -0.659  -3.181  0.00  0.00    +0.135 A 
ATOM      5  O   UNL     1       2.767  -0.389  -3.118  0.00  0.00    -0.456 OA
ENDROOT
BRANCH   1  16
ATOM      6  C   UNL     1      -0.018   1.503   0.010  0.00  0.00    +0.067 C 
ATOM      7  C   UNL     1       0.002  -0.004   0.002  0.00  0.00    +0.055 A 
ATOM      8  C   UNL     1       0.008  -0.795  -1.075  0.00  0.00    +0.082 A 
ATOM      9  C   UNL     1       0.022  -2.138  -0.574  0.00  0.00    +0.168 A 
ATOM     10  N   UNL     1       0.032  -2.062   0.724  0.00  0.00    -0.167 NA
ATOM     11  N   UNL     1       0.024  -0.824   1.094  0.00  0.00    -0.279 N 
ATOM     12  H   UNL     1       0.030  -0.521   2.015  0.00  0.00    +0.189 HD
ATOM     13  C   UNL     1       0.015  -3.268  -1.523  0.00  0.00    +0.268 C 
ATOM     14  O   UNL     1      -0.148  -4.413  -1.149  0.00  0.00    -0.268 OA
ATOM     15  N   UNL     1       0.198  -2.968  -2.831  0.00  0.00    -0.285 N 
ATOM     16  C   UNL     1       0.567  -1.639  -3.303  0.00  0.00    +0.226 C 
ATOM     17  N   UNL     1       0.007  -0.571  -2.459  0.00  0.00    -0.317 N 
ATOM     18  H   UNL     1       0.077  -3.673  -3.486  0.00  0.00    +0.151 HD
ATOM     19  H   UNL     1      -0.344   0.248  -2.841  0.00  0.00    +0.148 HD
ENDBRANCH   1  16
BRANCH   4  20
ATOM     20  C   UNL     1       5.179   0.321  -3.021  0.00  0.00    +0.017 A 
ATOM     21  C   UNL     1       6.509  -0.090  -3.123  0.00  0.00    +0.013 A 
ATOM     22  C   UNL     1       7.526   0.830  -2.972  0.00  0.00    +0.029 A 
ATOM     23  C   UNL     1       7.230   2.158  -2.722  0.00  0.00    +0.105 A 
ATOM     24  C   UNL     1       5.914   2.572  -2.620  0.00  0.00    +0.029 A 
ATOM     25  C   UNL     1       4.887   1.664  -2.774  0.00  0.00    +0.013 A 
BRANCH  23  26
ATOM     26  S   UNL     1       8.535   3.326  -2.531  0.00  0.00    +0.058 S 
ATOM     27  O   UNL     1       8.009   4.400  -1.763  0.00  0.00    -0.153 OA
ATOM     28  O   UNL     1       9.682   2.592  -2.128  0.00  0.00    -0.153 OA
BRANCH  26  29
ATOM     29  N   UNL     1       8.868   3.938  -4.033  0.00  0.00    -0.193 NA
ATOM     30  C   UNL     1       7.861   4.733  -4.741  0.00  0.00    +0.127 C 
ATOM     31  H   UNL     1       9.730   3.770  -4.445  0.00  0.00    +0.148 HD
ENDBRANCH  26  29
ENDBRANCH  23  26
ENDBRANCH   4  20
TORSDOF 4
