REMARK  Name = ZINC37299753
REMARK  8 active torsions:
REMARK  status: ('A' for Active; 'I' for Inactive)
REMARK    1  A    between atoms: C_1  and  C_2
REMARK    2  A    between atoms: C_4  and  N_19
REMARK    3  A    between atoms: C_7  and  N_8
REMARK    4  A    between atoms: N_8  and  C_9
REMARK    5  A    between atoms: C_9  and  C_11
REMARK    6  A    between atoms: C_9  and  C_16
REMARK    7  A    between atoms: C_16  and  C_17
REMARK    8  A    between atoms: C_16  and  C_18
REMARK                            x       y       z     vdW  Elec       q    Type
REMARK                         _______ _______ _______ _____ _____    ______ ____
ROOT
ATOM      1  N   UNL     1       0.013   0.170   2.538  0.00  0.00    -0.336 N 
ATOM      2  H   UNL     1       0.790   0.714   2.332  0.00  0.00    +0.147 HD
ENDROOT
BRANCH   1   9
ATOM      3  C   UNL     1       0.007   2.022   0.378  0.00  0.00    +0.046 C 
ATOM      4  C   UNL     1      -1.145   1.083   0.627  0.00  0.00    -0.027 A 
ATOM      5  C   UNL     1      -2.244   1.100  -0.209  0.00  0.00    +0.038 A 
ATOM      6  C   UNL     1      -3.301   0.239   0.019  0.00  0.00    +0.127 A 
ATOM      7  C   UNL     1      -3.262  -0.643   1.083  0.00  0.00    +0.034 A 
ATOM      8  C   UNL     1      -2.166  -0.666   1.923  0.00  0.00    +0.025 A 
ATOM      9  C   UNL     1      -1.100   0.195   1.694  0.00  0.00    +0.031 A 
BRANCH   6  10
ATOM     10  N   UNL     1      -4.478   0.261  -0.879  0.00  0.00    +0.056 N 
ATOM     11  O   UNL     1      -4.514   1.031  -1.810  0.00  0.00    -0.126 OA
ATOM     12  O   UNL     1      -5.403  -0.492  -0.681  0.00  0.00    -0.126 OA
ENDBRANCH   6  10
ENDBRANCH   1   9
BRANCH   1  13
ATOM     13  C   UNL     1       0.007  -0.676   3.733  0.00  0.00    +0.110 C 
BRANCH  13  14
ATOM     14  C   UNL     1      -0.735   0.026   4.842  0.00  0.00    +0.010 A 
ATOM     15  C   UNL     1      -1.591  -0.491   5.756  0.00  0.00    +0.013 A 
ATOM     16  C   UNL     1      -2.161   0.351   6.692  0.00  0.00    +0.008 A 
ATOM     17  C   UNL     1      -1.846   1.669   6.668  0.00  0.00    +0.045 A 
ATOM     18  S   UNL     1      -0.707   1.752   5.296  0.00  0.00    -0.100 S 
ENDBRANCH  13  14
BRANCH  13  19
ATOM     19  C   UNL     1       1.447  -0.946   4.175  0.00  0.00    +0.008 C 
ATOM     20  C   UNL     1       2.166  -1.761   3.098  0.00  0.00    +0.009 C 
ATOM     21  C   UNL     1       2.176   0.384   4.378  0.00  0.00    +0.009 C 
ENDBRANCH  13  19
ENDBRANCH   1  13
TORSDOF 5
