REMARK  Name = ZINC24816892
REMARK  12 active torsions:
REMARK  status: ('A' for Active; 'I' for Inactive)
REMARK    1  A    between atoms: C_1  and  C_2
REMARK    2  A    between atoms: C_2  and  C_3
REMARK    3  A    between atoms: C_3  and  C_30
REMARK    4  A    between atoms: N_6  and  N_10
REMARK    5  A    between atoms: C_11  and  C_13
REMARK    6  A    between atoms: C_13  and  N_14
REMARK    7  A    between atoms: N_14  and  C_15
REMARK    8  A    between atoms: N_14  and  C_24
REMARK    9  A    between atoms: C_15  and  C_16
REMARK   10  A    between atoms: C_21  and  O_22
REMARK   11  A    between atoms: O_22  and  C_23
REMARK   12  A    between atoms: C_24  and  C_25
REMARK                            x       y       z     vdW  Elec       q    Type
REMARK                         _______ _______ _______ _____ _____    ______ ____
ROOT
ATOM      1  N   UNL     1      -0.475   0.538   7.966  0.00  0.00    -0.225 N 
ATOM      2  C   UNL     1      -0.217   1.099   6.768  0.00  0.00    +0.213 C 
ATOM      3  O   UNL     1       0.921   1.396   6.471  0.00  0.00    -0.276 OA
ATOM      4  H   UNL     1      -1.507   0.269   8.237  0.00  0.00    +0.173 HD
ENDROOT
BRANCH   1   8
ATOM      5  C   UNL     1       2.019   0.417  10.631  0.00  0.00    +0.139 C 
ATOM      6  C   UNL     1       0.803   1.037   9.971  0.00  0.00    +0.268 C 
ATOM      7  O   UNL     1       0.172   1.999  10.355  0.00  0.00    -0.271 OA
ATOM      8  N   UNL     1       0.570   0.298   8.868  0.00  0.00    -0.137 N 
ATOM      9  C   UNL     1       1.457  -0.695   8.743  0.00  0.00    +0.327 C 
ATOM     10  O   UNL     1       1.449  -1.498   7.830  0.00  0.00    -0.251 OA
ATOM     11  N   UNL     1       2.361  -0.705   9.739  0.00  0.00    -0.280 N 
ATOM     12  H   UNL     1       3.224  -1.347   9.971  0.00  0.00    +0.152 HD
BRANCH   5  13
ATOM     13  C   UNL     1       1.675  -0.084  12.010  0.00  0.00    -0.015 A 
ATOM     14  C   UNL     1       1.831   0.746  13.105  0.00  0.00    +0.006 A 
ATOM     15  C   UNL     1       1.512   0.288  14.370  0.00  0.00    +0.000 A 
ATOM     16  C   UNL     1       1.046  -1.002  14.541  0.00  0.00    +0.000 A 
ATOM     17  C   UNL     1       0.895  -1.833  13.447  0.00  0.00    +0.000 A 
ATOM     18  C   UNL     1       1.210  -1.374  12.181  0.00  0.00    +0.006 A 
ENDBRANCH   5  13
BRANCH   5  20
ATOM     19  C   UNL     1       3.532   1.875   9.280  0.00  0.00    +0.007 C 
ATOM     20  C   UNL     1       3.169   1.423  10.696  0.00  0.00    +0.037 C 
ENDBRANCH   5  20
ENDBRANCH   1   8
BRANCH   2  21
ATOM     21  C   UNL     1      -1.341   1.356   5.799  0.00  0.00    +0.021 C 
BRANCH  21  22
ATOM     22  N   UNL     1      -0.803   1.968   4.577  0.00  0.00    +0.391 N 
ATOM     23  H   UNL     1      -0.196   2.836   4.873  0.00  0.00    -0.080 HD
BRANCH  22  24
ATOM     24  C   UNL     1      -1.886   2.450   3.708  0.00  0.00    -0.038 C 
BRANCH  24  25
ATOM     25  C   UNL     1      -2.583   3.611   4.371  0.00  0.00    -0.022 A 
ATOM     26  C   UNL     1      -3.836   3.439   4.927  0.00  0.00    +0.005 A 
ATOM     27  C   UNL     1      -4.478   4.505   5.530  0.00  0.00    +0.000 A 
ATOM     28  C   UNL     1      -3.865   5.743   5.583  0.00  0.00    +0.004 A 
ATOM     29  C   UNL     1      -2.610   5.918   5.034  0.00  0.00    +0.046 A 
ATOM     30  C   UNL     1      -1.964   4.851   4.428  0.00  0.00    +0.121 A 
BRANCH  30  31
ATOM     31  O   UNL     1      -0.729   5.021   3.887  0.00  0.00    -0.495 OA
ATOM     32  C   UNL     1      -0.107   6.293   4.076  0.00  0.00    +0.277 C 
ENDBRANCH  30  31
ENDBRANCH  24  25
ENDBRANCH  22  24
BRANCH  22  33
ATOM     33  C   UNL     1       0.070   1.030   3.858  0.00  0.00    -0.035 C 
BRANCH  33  34
ATOM     34  C   UNL     1       0.961   1.796   2.914  0.00  0.00    -0.027 A 
ATOM     35  C   UNL     1       2.220   2.257   3.114  0.00  0.00    +0.009 A 
ATOM     36  C   UNL     1       2.853   2.942   2.094  0.00  0.00    +0.008 A 
ATOM     37  C   UNL     1       2.196   3.131   0.923  0.00  0.00    +0.045 A 
ATOM     38  S   UNL     1       0.635   2.324   1.240  0.00  0.00    -0.103 S 
ENDBRANCH  33  34
ENDBRANCH  22  33
ENDBRANCH  21  22
ENDBRANCH   2  21
TORSDOF 10
