REMARK  Name = ZINC20140517
REMARK  9 active torsions:
REMARK  status: ('A' for Active; 'I' for Inactive)
REMARK    1  A    between atoms: C_1  and  C_2
REMARK    2  A    between atoms: C_5  and  C_31
REMARK    3  A    between atoms: C_6  and  N_8
REMARK    4  A    between atoms: N_11  and  C_14
REMARK    5  A    between atoms: C_14  and  C_16
REMARK    6  A    between atoms: C_14  and  C_23
REMARK    7  A    between atoms: N_27  and  C_28
REMARK    8  A    between atoms: C_28  and  C_29
REMARK    9  A    between atoms: C_28  and  C_30
REMARK                            x       y       z     vdW  Elec       q    Type
REMARK                         _______ _______ _______ _____ _____    ______ ____
ROOT
ATOM      1  C   UNL     1       5.213   6.997   0.031  0.00  0.00    +0.160 C 
ENDROOT
BRANCH   1   2
ATOM      2  C   UNL     1       5.317   7.830   1.283  0.00  0.00    +0.012 A 
ATOM      3  C   UNL     1       4.193   8.070   2.050  0.00  0.00    +0.008 A 
ATOM      4  C   UNL     1       4.290   8.829   3.201  0.00  0.00    +0.000 A 
ATOM      5  C   UNL     1       5.509   9.358   3.581  0.00  0.00    +0.003 A 
ATOM      6  C   UNL     1       6.634   9.124   2.813  0.00  0.00    +0.039 A 
ATOM      7  C   UNL     1       6.539   8.359   1.662  0.00  0.00    +0.128 A 
ATOM      8  F   UNL     1       7.638   8.130   0.910  0.00  0.00    -0.205 F 
ENDBRANCH   1   2
BRANCH   1  12
ATOM      9  N   UNL     1       2.858   3.491   0.120  0.00  0.00    -0.327 N 
ATOM     10  C   UNL     1       3.121   4.177   1.393  0.00  0.00    +0.120 C 
ATOM     11  C   UNL     1       4.341   5.087   1.237  0.00  0.00    +0.104 C 
ATOM     12  N   UNL     1       4.092   6.056   0.162  0.00  0.00    -0.286 NA
ATOM     13  C   UNL     1       3.830   5.370  -1.111  0.00  0.00    +0.104 C 
ATOM     14  C   UNL     1       2.609   4.460  -0.956  0.00  0.00    +0.120 C 
BRANCH   9  20
ATOM     15  C   UNL     1      -1.914   2.688   0.978  0.00  0.00    +0.044 C 
ATOM     16  C   UNL     1      -0.531   2.179   0.660  0.00  0.00    -0.049 A 
ATOM     17  C   UNL     1      -0.318   0.824   0.485  0.00  0.00    +0.004 A 
ATOM     18  C   UNL     1       0.950   0.352   0.198  0.00  0.00    +0.005 A 
ATOM     19  C   UNL     1       2.005   1.234   0.075  0.00  0.00    -0.029 A 
ATOM     20  C   UNL     1       1.793   2.596   0.244  0.00  0.00    +0.033 A 
ATOM     21  C   UNL     1       0.519   3.066   0.538  0.00  0.00    +0.026 A 
ATOM     22  C   UNL     1       3.385   0.719  -0.244  0.00  0.00    +0.045 C 
ENDBRANCH   9  20
ENDBRANCH   1  12
BRANCH   1  23
ATOM     23  C   UNL     1       4.977   7.899  -1.153  0.00  0.00    +0.173 A 
ATOM     24  N   UNL     1       3.875   8.552  -1.432  0.00  0.00    -0.111 NA
ATOM     25  N   UNL     1       4.069   9.211  -2.522  0.00  0.00    -0.023 NA
ATOM     26  N   UNL     1       5.262   8.988  -2.950  0.00  0.00    -0.044 NA
ATOM     27  N   UNL     1       5.854   8.184  -2.134  0.00  0.00    -0.225 N 
BRANCH  27  28
ATOM     28  C   UNL     1       7.223   7.676  -2.251  0.00  0.00    +0.105 C 
ATOM     29  C   UNL     1       7.369   6.898  -3.560  0.00  0.00    +0.032 C 
ATOM     30  C   UNL     1       8.204   8.850  -2.244  0.00  0.00    +0.032 C 
ENDBRANCH  27  28
ENDBRANCH   1  23
TORSDOF 5
