REMARK  Name = ZINC08324556
REMARK  6 active torsions:
REMARK  status: ('A' for Active; 'I' for Inactive)
REMARK    1  A    between atoms: C_1  and  C_2
REMARK    2  A    between atoms: C_9  and  C_13
REMARK    3  A    between atoms: C_13  and  N_55
REMARK    4  A    between atoms: C_19  and  C_21
REMARK    5  A    between atoms: C_24  and  O_27
REMARK    6  A    between atoms: O_27  and  C_28
REMARK                            x       y       z     vdW  Elec       q    Type
REMARK                         _______ _______ _______ _____ _____    ______ ____
ROOT
ATOM      1  C   UNL     1      -1.984   0.752   1.332  0.00  0.00    -0.077 C 
ATOM      2  C   UNL     1      -2.837   1.585   2.314  0.00  0.00    -0.019 C 
ATOM      3  C   UNL     1      -2.425   1.254   3.726  0.00  0.00    -0.002 C 
ATOM      4  C   UNL     1      -1.344   2.210   4.268  0.00  0.00    -0.001 C 
ATOM      5  C   UNL     1      -0.270   2.523   3.212  0.00  0.00    -0.011 C 
ATOM      6  C   UNL     1       0.108   1.294   2.423  0.00  0.00    -0.037 C 
ATOM      7  N   UNL     1      -0.698   1.327   1.159  0.00  0.00    +0.388 N 
ATOM      8  H   UNL     1      -0.818   2.307   0.876  0.00  0.00    -0.080 HD
ENDROOT
BRANCH   6   9
ATOM      9  C   UNL     1       1.573   1.344   2.076  0.00  0.00    -0.061 A 
ATOM     10  C   UNL     1       2.060   2.364   1.279  0.00  0.00    +0.005 A 
ATOM     11  C   UNL     1       3.404   2.415   0.964  0.00  0.00    +0.046 A 
ATOM     12  C   UNL     1       4.264   1.435   1.437  0.00  0.00    +0.120 A 
ATOM     13  C   UNL     1       3.772   0.409   2.232  0.00  0.00    +0.046 A 
ATOM     14  C   UNL     1       2.428   0.366   2.549  0.00  0.00    +0.005 A 
BRANCH  12  15
ATOM     15  O   UNL     1       5.585   1.480   1.124  0.00  0.00    -0.495 OA
ATOM     16  C   UNL     1       6.021   2.564   0.302  0.00  0.00    +0.277 C 
ENDBRANCH  12  15
ENDBRANCH   6   9
BRANCH   7  17
ATOM     17  C   UNL     1       0.024   0.610   0.096  0.00  0.00    -0.021 C 
BRANCH  17  26
ATOM     18  C   UNL     1      -4.433   0.249  -2.163  0.00  0.00    +0.047 C 
ATOM     19  C   UNL     1      -3.551   1.032  -3.102  0.00  0.00    -0.008 A 
ATOM     20  C   UNL     1      -4.040   1.476  -4.294  0.00  0.00    +0.008 A 
ATOM     21  C   UNL     1      -3.207   2.202  -5.156  0.00  0.00    +0.019 A 
ATOM     22  C   UNL     1      -1.926   2.459  -4.806  0.00  0.00    +0.096 A 
ATOM     23  N   UNL     1      -1.428   2.019  -3.617  0.00  0.00    -0.268 N 
ATOM     24  C   UNL     1      -2.216   1.309  -2.755  0.00  0.00    +0.143 A 
ATOM     25  N   UNL     1      -1.737   0.875  -1.591  0.00  0.00    -0.236 NA
ATOM     26  C   UNL     1      -0.486   1.115  -1.229  0.00  0.00    +0.032 A 
ATOM     27  C   UNL     1       0.349   1.834  -2.062  0.00  0.00    +0.092 A 
ATOM     28  C   UNL     1      -0.146   2.288  -3.290  0.00  0.00    +0.258 A 
ATOM     29  O   UNL     1       0.569   2.921  -4.051  0.00  0.00    -0.267 OA
ENDBRANCH  17  26
ENDBRANCH   7  17
TORSDOF 4
