REMARK  Name = ZINC50631314
REMARK  6 active torsions:
REMARK  status: ('A' for Active; 'I' for Inactive)
REMARK    1  A    between atoms: C_1  and  C_2
REMARK    2  A    between atoms: C_2  and  N_3
REMARK    3  A    between atoms: C_5  and  S_11
REMARK    4  A    between atoms: S_11  and  N_14
REMARK    5  A    between atoms: C_18  and  C_21
REMARK    6  A    between atoms: C_21  and  O_22
REMARK                            x       y       z     vdW  Elec       q    Type
REMARK                         _______ _______ _______ _____ _____    ______ ____
ROOT
ATOM      1  S   UNL     1       2.389  -1.164   3.569  0.00  0.00    +0.064 S 
ATOM      2  O   UNL     1       1.338  -0.300   3.981  0.00  0.00    -0.153 OA
ATOM      3  O   UNL     1       3.189  -1.887   4.495  0.00  0.00    -0.153 OA
ENDROOT
BRANCH   1   6
ATOM      4  N   UNL     1       0.547  -0.601   1.283  0.00  0.00    -0.328 N 
ATOM      5  C   UNL     1       0.823  -1.952   1.459  0.00  0.00    +0.145 A 
ATOM      6  C   UNL     1       1.668  -2.354   2.489  0.00  0.00    +0.146 A 
ATOM      7  C   UNL     1       1.934  -3.701   2.652  0.00  0.00    +0.048 A 
ATOM      8  C   UNL     1       1.344  -4.605   1.777  0.00  0.00    +0.038 A 
ATOM      9  C   UNL     1       0.515  -4.136   0.777  0.00  0.00    +0.128 A 
ATOM     10  N   UNL     1       0.275  -2.844   0.649  0.00  0.00    -0.237 NA
ATOM     11 BR   UNL     1       1.673  -6.459   1.953  0.00  0.00    -0.049 Br
ATOM     12  H   UNL     1       0.878   0.050   1.922  0.00  0.00    +0.147 HD
BRANCH   4  14
ATOM     13  C   UNL     1      -0.402   1.363   0.175  0.00  0.00    +0.024 C 
ATOM     14  C   UNL     1      -0.245  -0.158   0.133  0.00  0.00    +0.099 C 
ENDBRANCH   4  14
ENDBRANCH   1   6
BRANCH   1  15
ATOM     15  N   UNL     1       3.428  -0.246   2.662  0.00  0.00    -0.176 NA
ATOM     16  C   UNL     1       4.788  -0.720   2.374  0.00  0.00    +0.109 C 
ATOM     17  C   UNL     1       5.787   0.361   2.800  0.00  0.00    +0.017 C 
ATOM     18  C   UNL     1       5.424   1.683   2.119  0.00  0.00    +0.008 C 
ATOM     19  C   UNL     1       4.024   2.118   2.559  0.00  0.00    +0.030 C 
ATOM     20  C   UNL     1       3.004   1.055   2.126  0.00  0.00    +0.115 C 
BRANCH  19  21
ATOM     21  C   UNL     1       3.676   3.456   1.904  0.00  0.00    +0.160 C 
BRANCH  21  22
ATOM     22  O   UNL     1       4.558   4.469   2.392  0.00  0.00    -0.395 OA
ATOM     23  H   UNL     1       4.394   5.346   2.018  0.00  0.00    +0.209 HD
ENDBRANCH  21  22
ENDBRANCH  19  21
ENDBRANCH   1  15
TORSDOF 5
