REMARK  Name = ZINC20166617
REMARK  5 active torsions:
REMARK  status: ('A' for Active; 'I' for Inactive)
REMARK    1  A    between atoms: C_1  and  C_2
REMARK    2  A    between atoms: C_2  and  N_3
REMARK    3  A    between atoms: C_6  and  C_12
REMARK    4  A    between atoms: C_15  and  S_18
REMARK    5  A    between atoms: S_18  and  C_21
REMARK                            x       y       z     vdW  Elec       q    Type
REMARK                         _______ _______ _______ _____ _____    ______ ____
ROOT
ATOM      1  N   UNL     1       0.711  -0.489   1.189  0.00  0.00    -0.270 N 
ATOM      2  C   UNL     1       0.142  -0.781   2.416  0.00  0.00    +0.155 A 
ATOM      3  N   UNL     1      -0.964  -0.826   3.132  0.00  0.00    -0.323 N 
ATOM      4  C   UNL     1      -0.668  -1.259   4.366  0.00  0.00    +0.140 A 
ATOM      5  N   UNL     1       0.625  -1.499   4.463  0.00  0.00    -0.225 NA
ATOM      6  C   UNL     1       1.196  -1.216   3.264  0.00  0.00    +0.125 A 
ATOM      7  C   UNL     1       2.366  -1.176   2.528  0.00  0.00    +0.133 A 
ATOM      8  N   UNL     1       2.085  -0.747   1.283  0.00  0.00    -0.301 N 
ATOM      9  H   UNL     1       2.730  -0.633   0.568  0.00  0.00    +0.186 HD
ATOM     10  H   UNL     1      -1.848  -0.584   2.817  0.00  0.00    +0.169 HD
ENDROOT
BRANCH   4  11
ATOM     11  C   UNL     1      -1.651  -1.443   5.460  0.00  0.00    +0.017 A 
ATOM     12  C   UNL     1      -3.000  -1.163   5.243  0.00  0.00    +0.013 A 
ATOM     13  C   UNL     1      -3.910  -1.336   6.265  0.00  0.00    +0.027 A 
ATOM     14  C   UNL     1      -3.487  -1.785   7.504  0.00  0.00    +0.088 A 
ATOM     15  C   UNL     1      -2.150  -2.064   7.725  0.00  0.00    +0.027 A 
ATOM     16  C   UNL     1      -1.231  -1.901   6.708  0.00  0.00    +0.013 A 
BRANCH  14  17
ATOM     17  S   UNL     1      -4.656  -2.003   8.804  0.00  0.00    -0.006 S 
ATOM     18  O   UNL     1      -3.901  -1.853   9.999  0.00  0.00    -0.170 OA
ATOM     19  O   UNL     1      -5.712  -1.104   8.497  0.00  0.00    -0.170 OA
ATOM     20  C   UNL     1      -5.226  -3.717   8.637  0.00  0.00    +0.200 C 
ENDBRANCH  14  17
ENDBRANCH   4  11
BRANCH   1  22
ATOM     21  C   UNL     1      -0.019   1.526   0.010  0.00  0.00    +0.029 C 
ATOM     22  C   UNL     1       0.002  -0.004   0.002  0.00  0.00    +0.140 C 
ENDBRANCH   1  22
TORSDOF 3
