REMARK  Name = ZINC10001496
REMARK  13 active torsions:
REMARK  status: ('A' for Active; 'I' for Inactive)
REMARK    1  A    between atoms: C_1  and  C_2
REMARK    2  A    between atoms: C_2  and  C_3
REMARK    3  A    between atoms: C_2  and  C_4
REMARK    4  A    between atoms: C_4  and  C_6
REMARK    5  A    between atoms: C_4  and  N_24
REMARK    6  A    between atoms: N_8  and  N_9
REMARK    7  A    between atoms: C_10  and  C_11
REMARK    8  A    between atoms: C_14  and  O_18
REMARK    9  A    between atoms: O_18  and  C_19
REMARK   10  A    between atoms: C_19  and  C_20
REMARK   11  A    between atoms: C_20  and  O_22
REMARK   12  A    between atoms: O_22  and  C_23
REMARK   13  A    between atoms: C_25  and  C_27
REMARK                            x       y       z     vdW  Elec       q    Type
REMARK                         _______ _______ _______ _____ _____    ______ ____
ROOT
ATOM      1  C   UNL     1       7.174   0.032  -0.786  0.00  0.00    +0.253 C 
ATOM      2  O   UNL     1       6.991   1.191  -1.093  0.00  0.00    -0.272 OA
ATOM      3  N   UNL     1       8.332  -0.577  -1.108  0.00  0.00    -0.205 N 
ATOM      4  H   UNL     1       8.508  -1.479  -0.800  0.00  0.00    +0.177 HD
ENDROOT
BRANCH   3   5
ATOM      5  N   UNL     1       9.282   0.095  -1.889  0.00  0.00    -0.188 NA
ATOM      6  C   UNL     1      10.398  -0.491  -2.200  0.00  0.00    +0.138 C 
BRANCH   6   7
ATOM      7  C   UNL     1      11.397   0.215  -3.022  0.00  0.00    -0.004 A 
ATOM      8  C   UNL     1      11.143   1.514  -3.472  0.00  0.00    +0.013 A 
ATOM      9  C   UNL     1      12.082   2.172  -4.237  0.00  0.00    +0.047 A 
ATOM     10  C   UNL     1      13.275   1.544  -4.568  0.00  0.00    +0.135 A 
ATOM     11  C   UNL     1      13.531   0.251  -4.127  0.00  0.00    +0.060 A 
ATOM     12  C   UNL     1      12.599  -0.413  -3.357  0.00  0.00    +0.028 A 
ATOM     13 BR   UNL     1      15.158  -0.598  -4.582  0.00  0.00    -0.046 Br
BRANCH  10  14
ATOM     14  O   UNL     1      14.196   2.195  -5.326  0.00  0.00    -0.480 OA
BRANCH  14  15
ATOM     15  C   UNL     1      13.869   3.521  -5.746  0.00  0.00    +0.349 C 
BRANCH  15  16
ATOM     16  C   UNL     1      15.000   4.080  -6.570  0.00  0.00    +0.345 C 
ATOM     17  O   UNL     1      15.985   3.411  -6.777  0.00  0.00    -0.247 OA
BRANCH  16  18
ATOM     18  O   UNL     1      14.914   5.321  -7.075  0.00  0.00    -0.466 OA
ATOM     19  C   UNL     1      16.040   5.794  -7.859  0.00  0.00    +0.280 C 
ENDBRANCH  16  18
ENDBRANCH  15  16
ENDBRANCH  14  15
ENDBRANCH  10  14
ENDBRANCH   6   7
ENDBRANCH   3   5
BRANCH   1  20
ATOM     20  C   UNL     1       6.105  -0.728  -0.043  0.00  0.00    +0.163 C 
BRANCH  20  21
ATOM     21  N   UNL     1       4.823  -0.034  -0.185  0.00  0.00    -0.300 N 
ATOM     22  C   UNL     1       3.669  -0.719  -0.068  0.00  0.00    +0.245 C 
ATOM     23  O   UNL     1       3.691  -1.913   0.156  0.00  0.00    -0.270 OA
ATOM     24  H   UNL     1       4.805   0.920  -0.364  0.00  0.00    +0.150 HD
BRANCH  22  25
ATOM     25  C   UNL     1       2.375  -0.018  -0.212  0.00  0.00    +0.037 A 
ATOM     26  C   UNL     1       1.177  -0.725  -0.091  0.00  0.00    +0.013 A 
ATOM     27  C   UNL     1      -0.026  -0.064  -0.226  0.00  0.00    +0.001 A 
ATOM     28  C   UNL     1      -0.048   1.296  -0.481  0.00  0.00    +0.000 A 
ATOM     29  C   UNL     1       1.135   2.002  -0.602  0.00  0.00    +0.001 A 
ATOM     30  C   UNL     1       2.346   1.354  -0.469  0.00  0.00    +0.013 A 
ENDBRANCH  22  25
ENDBRANCH  20  21
BRANCH  20  32
ATOM     31  C   UNL     1       6.492   0.592   2.043  0.00  0.00    +0.009 C 
ATOM     32  C   UNL     1       6.477  -0.814   1.439  0.00  0.00    +0.012 C 
ATOM     33  C   UNL     1       5.447  -1.673   2.174  0.00  0.00    +0.009 C 
ENDBRANCH  20  32
ENDBRANCH   1  20
TORSDOF 10
