REMARK  Name = ZINC08324418
REMARK  10 active torsions:
REMARK  status: ('A' for Active; 'I' for Inactive)
REMARK    1  A    between atoms: C_1  and  C_2
REMARK    2  A    between atoms: C_2  and  O_3
REMARK    3  A    between atoms: O_3  and  C_4
REMARK    4  A    between atoms: C_7  and  C_10
REMARK    5  A    between atoms: C_17  and  C_30
REMARK    6  A    between atoms: N_25  and  C_26
REMARK    7  A    between atoms: C_26  and  C_27
REMARK    8  A    between atoms: C_27  and  N_56
REMARK    9  A    between atoms: C_28  and  N_56
REMARK   10  A    between atoms: C_29  and  N_56
REMARK                            x       y       z     vdW  Elec       q    Type
REMARK                         _______ _______ _______ _____ _____    ______ ____
ROOT
ATOM      1  C   UNL     1       0.060  -4.277  -0.021  0.00  0.00    +0.144 C 
ATOM      2  C   UNL     1       0.335  -4.785  -1.413  0.00  0.00    +0.072 A 
ATOM      3  C   UNL     1      -0.381  -4.636  -2.683  0.00  0.00    +0.199 A 
ATOM      4  O   UNL     1      -1.418  -4.001  -2.763  0.00  0.00    -0.287 OA
ATOM      5  C   UNL     1       0.215  -5.297  -3.861  0.00  0.00    +0.065 A 
ATOM      6  C   UNL     1      -0.382  -5.221  -5.118  0.00  0.00    +0.018 A 
ATOM      7  C   UNL     1       0.203  -5.848  -6.183  0.00  0.00    -0.050 A 
ATOM      8  C   UNL     1       1.385  -6.555  -6.018  0.00  0.00    +0.007 A 
ATOM      9  C   UNL     1       1.990  -6.641  -4.783  0.00  0.00    +0.047 A 
ATOM     10  C   UNL     1       1.412  -6.012  -3.683  0.00  0.00    +0.139 A 
ATOM     11  O   UNL     1       1.989  -6.085  -2.470  0.00  0.00    -0.450 OA
ATOM     12  C   UNL     1       1.485  -5.501  -1.366  0.00  0.00    +0.199 A 
ATOM     13  C   UNL     1       1.988  -5.484   0.030  0.00  0.00    +0.283 C 
ATOM     14  O   UNL     1       3.002  -6.035   0.410  0.00  0.00    -0.267 OA
ATOM     15  N   UNL     1       1.161  -4.772   0.815  0.00  0.00    -0.285 N 
ATOM     16  C   UNL     1      -0.439  -5.769  -7.545  0.00  0.00    +0.044 C 
ENDROOT
BRANCH   1  20
ATOM     17  C   UNL     1       0.002  -0.004   0.002  0.00  0.00    +0.121 A 
ATOM     18  C   UNL     1       1.212  -0.682  -0.019  0.00  0.00    +0.046 A 
ATOM     19  C   UNL     1       1.228  -2.064  -0.020  0.00  0.00    +0.009 A 
ATOM     20  C   UNL     1       0.040  -2.770  -0.013  0.00  0.00    -0.022 A 
ATOM     21  C   UNL     1      -1.168  -2.096   0.002  0.00  0.00    +0.009 A 
ATOM     22  C   UNL     1      -1.189  -0.715   0.010  0.00  0.00    +0.046 A 
BRANCH  17  23
ATOM     23  O   UNL     1      -0.016   1.355   0.009  0.00  0.00    -0.492 OA
BRANCH  23  25
ATOM     24  C   UNL     1       1.027   3.535   0.011  0.00  0.00    +0.048 C 
ATOM     25  C   UNL     1       1.248   2.021   0.001  0.00  0.00    +0.225 C 
ENDBRANCH  23  25
ENDBRANCH  17  23
ENDBRANCH   1  20
BRANCH  15  26
ATOM     26  C   UNL     1       1.327  -4.533   2.250  0.00  0.00    +0.090 C 
BRANCH  26  27
ATOM     27  C   UNL     1       0.630  -5.645   3.037  0.00  0.00    -0.060 C 
BRANCH  27  30
ATOM     28  C   UNL     1       0.090  -4.186   4.893  0.00  0.00    -0.097 C 
ATOM     29  C   UNL     1       0.350  -6.566   5.259  0.00  0.00    -0.097 C 
ATOM     30  N   UNL     1       0.825  -5.401   4.481  0.00  0.00    +0.377 N 
ATOM     31  H   UNL     1       1.826  -5.264   4.664  0.00  0.00    -0.083 HD
ENDBRANCH  27  30
ENDBRANCH  26  27
ENDBRANCH  15  26
TORSDOF 6
