REMARK  Name = ZINC18069353
REMARK  6 active torsions:
REMARK  status: ('A' for Active; 'I' for Inactive)
REMARK    1  A    between atoms: C_6  and  C_7
REMARK    2  A    between atoms: C_7  and  C_8
REMARK    3  A    between atoms: C_8  and  N_9
REMARK    4  A    between atoms: N_9  and  C_10
REMARK    5  A    between atoms: C_13  and  N_19
REMARK    6  A    between atoms: C_15  and  N_16
REMARK                            x       y       z     vdW  Elec       q    Type
REMARK                         _______ _______ _______ _____ _____    ______ ____
ROOT
ATOM      1  C   UNL     1      -3.786  -1.931  -2.627  0.00  0.00    +0.058 A 
ATOM      2  C   UNL     1      -3.254  -1.485  -3.831  0.00  0.00    +0.027 A 
ATOM      3  C   UNL     1      -3.691  -2.029  -5.022  0.00  0.00    +0.026 A 
ATOM      4  C   UNL     1      -4.663  -3.021  -5.017  0.00  0.00    +0.046 A 
ATOM      5  C   UNL     1      -5.194  -3.466  -3.815  0.00  0.00    +0.058 A 
ATOM      6  C   UNL     1      -4.753  -2.927  -2.623  0.00  0.00    +0.149 A 
ENDROOT
BRANCH   4   7
ATOM      7  N   UNL     1      -5.107  -3.573  -6.229  0.00  0.00    -0.210 N 
ATOM      8  C   UNL     1      -6.058  -4.541  -6.302  0.00  0.00    +0.230 C 
ATOM      9  O   UNL     1      -6.494  -5.203  -5.385  0.00  0.00    -0.274 OA
ATOM     10  C   UNL     1      -6.460  -4.625  -7.743  0.00  0.00    +0.092 C 
ATOM     11  C   UNL     1      -6.830  -5.981  -8.306  0.00  0.00    +0.040 C 
ATOM     12  C   UNL     1      -6.844  -5.843  -9.814  0.00  0.00    -0.030 C 
ATOM     13  C   UNL     1      -6.268  -4.879 -10.467  0.00  0.00    -0.030 C 
ATOM     14  C   UNL     1      -5.475  -3.763  -9.820  0.00  0.00    +0.040 C 
ATOM     15  C   UNL     1      -5.120  -4.209  -8.425  0.00  0.00    +0.092 C 
ATOM     16  C   UNL     1      -4.634  -3.186  -7.442  0.00  0.00    +0.230 C 
ATOM     17  O   UNL     1      -3.952  -2.212  -7.680  0.00  0.00    -0.274 OA
ENDBRANCH   4   7
BRANCH   6  18
ATOM     18  N   UNL     1      -5.316  -3.407  -1.340  0.00  0.00    +0.058 N 
ATOM     19  O   UNL     1      -4.602  -3.517  -0.371  0.00  0.00    -0.126 OA
ATOM     20  O   UNL     1      -6.489  -3.688  -1.263  0.00  0.00    -0.126 OA
ENDBRANCH   6  18
BRANCH   1  21
ATOM     21  N   UNL     1      -3.343  -1.380  -1.421  0.00  0.00    -0.342 N 
ATOM     22  H   UNL     1      -3.773  -1.629  -0.587  0.00  0.00    +0.146 HD
BRANCH  21  23
ATOM     23  C   UNL     1      -2.230  -0.428  -1.415  0.00  0.00    +0.106 C 
BRANCH  23  24
ATOM     24  C   UNL     1      -1.948   0.018   0.022  0.00  0.00    +0.054 C 
BRANCH  24  30
ATOM     25  C   UNL     1      -1.052   2.352  -0.099  0.00  0.00    +0.005 A 
ATOM     26  C   UNL     1      -0.002   3.251  -0.092  0.00  0.00    +0.020 A 
ATOM     27  C   UNL     1       1.298   2.796   0.040  0.00  0.00    +0.041 A 
ATOM     28  C   UNL     1       1.546   1.440   0.167  0.00  0.00    +0.020 A 
ATOM     29  C   UNL     1       0.495   0.542   0.160  0.00  0.00    +0.005 A 
ATOM     30  C   UNL     1      -0.803   0.998   0.028  0.00  0.00    -0.046 A 
ATOM     31 CL   UNL     1       2.617   3.924   0.047  0.00  0.00    -0.084 Cl
ENDBRANCH  24  30
ENDBRANCH  23  24
ENDBRANCH  21  23
ENDBRANCH   1  21
TORSDOF 6
