REMARK  Name = ZINC25671482
REMARK  10 active torsions:
REMARK  status: ('A' for Active; 'I' for Inactive)
REMARK    1  A    between atoms: C_1  and  C_2
REMARK    2  A    between atoms: C_2  and  O_3
REMARK    3  A    between atoms: O_3  and  C_4
REMARK    4  A    between atoms: C_4  and  C_6
REMARK    5  A    between atoms: C_7  and  C_20
REMARK    6  A    between atoms: C_12  and  C_14
REMARK    7  A    between atoms: C_17  and  C_19
REMARK    8  A    between atoms: C_20  and  S_21
REMARK    9  A    between atoms: S_21  and  C_22
REMARK   10  A    between atoms: C_25  and  C_28
REMARK                            x       y       z     vdW  Elec       q    Type
REMARK                         _______ _______ _______ _____ _____    ______ ____
ROOT
ATOM      1  C   UNL     1       1.996   3.822  -1.306  0.00  0.00    +0.082 C 
ATOM      2  C   UNL     1       3.282   3.986  -1.684  0.00  0.00    +0.034 C 
ATOM      3  N   UNL     1       4.303   3.870  -0.784  0.00  0.00    -0.272 N 
ATOM      4  C   UNL     1       4.120   3.593   0.513  0.00  0.00    +0.304 C 
ATOM      5  O   UNL     1       5.092   3.510   1.239  0.00  0.00    -0.252 OA
ATOM      6  N   UNL     1       2.894   3.404   1.041  0.00  0.00    -0.285 N 
ATOM      7  C   UNL     1       1.725   3.507   0.152  0.00  0.00    +0.179 C 
ATOM      8  H   UNL     1       5.344   4.006  -1.112  0.00  0.00    +0.156 HD
ATOM      9  H   UNL     1       2.755   3.178   2.108  0.00  0.00    +0.151 HD
ENDROOT
BRANCH   7  10
ATOM     10  C   UNL     1       0.978   2.200   0.213  0.00  0.00    +0.130 A 
ATOM     11  C   UNL     1      -0.350   2.059   0.375  0.00  0.00    +0.047 A 
ATOM     12  C   UNL     1      -0.618   0.671   0.375  0.00  0.00    +0.045 A 
ATOM     13  C   UNL     1       0.562   0.046   0.213  0.00  0.00    +0.102 A 
ATOM     14  O   UNL     1       1.526   0.977   0.116  0.00  0.00    -0.463 OA
ATOM     15  C   UNL     1       0.769  -1.445   0.151  0.00  0.00    +0.086 C 
ENDBRANCH   7  10
BRANCH   1  16
ATOM     16  C   UNL     1       0.939   3.941  -2.237  0.00  0.00    +0.339 C 
ATOM     17  O   UNL     1       1.165   4.330  -3.368  0.00  0.00    -0.245 OA
BRANCH  16  18
ATOM     18  O   UNL     1      -0.321   3.623  -1.872  0.00  0.00    -0.462 OA
BRANCH  18  20
ATOM     19  C   UNL     1      -2.690   3.362  -2.270  0.00  0.00    +0.048 C 
ATOM     20  C   UNL     1      -1.339   3.767  -2.864  0.00  0.00    +0.229 C 
ENDBRANCH  18  20
ENDBRANCH  16  18
ENDBRANCH   1  16
BRANCH   2  21
ATOM     21  C   UNL     1       3.597   4.300  -3.124  0.00  0.00    +0.128 C 
BRANCH  21  22
ATOM     22  S   UNL     1       3.882   6.078  -3.305  0.00  0.00    -0.082 S 
BRANCH  22  23
ATOM     23  C   UNL     1       4.218   6.160  -5.033  0.00  0.00    +0.167 A 
ATOM     24  N   UNL     1       4.509   7.292  -5.732  0.00  0.00    -0.333 N 
ATOM     25  H   UNL     1       4.549   8.262  -5.216  0.00  0.00    +0.168 HD
ATOM     26  C   UNL     1       4.702   6.912  -7.049  0.00  0.00    +0.067 A 
ATOM     27  C   UNL     1       4.520   5.566  -7.096  0.00  0.00    +0.139 A 
ATOM     28  N   UNL     1       4.234   5.139  -5.859  0.00  0.00    -0.230 NA
BRANCH  26  29
ATOM     29  C   UNL     1       5.039   7.797  -8.184  0.00  0.00    +0.000 A 
ATOM     30  C   UNL     1       5.188   9.170  -7.980  0.00  0.00    +0.013 A 
ATOM     31  C   UNL     1       5.508   9.991  -9.042  0.00  0.00    +0.039 A 
ATOM     32  C   UNL     1       5.670   9.457 -10.310  0.00  0.00    +0.123 A 
ATOM     33  C   UNL     1       5.517   8.095 -10.519  0.00  0.00    +0.039 A 
ATOM     34  C   UNL     1       5.203   7.264  -9.464  0.00  0.00    +0.013 A 
ATOM     35  F   UNL     1       5.978  10.266 -11.347  0.00  0.00    -0.205 F 
ENDBRANCH  26  29
ENDBRANCH  22  23
ENDBRANCH  21  22
ENDBRANCH   2  21
TORSDOF 8
