REMARK  Name = ZINC14540327
REMARK  6 active torsions:
REMARK  status: ('A' for Active; 'I' for Inactive)
REMARK    1  A    between atoms: C_1  and  C_2
REMARK    2  A    between atoms: C_6  and  C_8
REMARK    3  A    between atoms: C_8  and  N_9
REMARK    4  A    between atoms: C_14  and  C_28
REMARK    5  A    between atoms: C_16  and  C_17
REMARK    6  A    between atoms: N_20  and  C_22
REMARK                            x       y       z     vdW  Elec       q    Type
REMARK                         _______ _______ _______ _____ _____    ______ ____
ROOT
ATOM      1  N   UNL     1       1.434  -2.786   3.002  0.00  0.00    -0.289 NA
ATOM      2  C   UNL     1       2.233  -3.657   2.128  0.00  0.00    +0.107 C 
ATOM      3  C   UNL     1       3.727  -3.450   2.411  0.00  0.00    +0.139 C 
ATOM      4  N   UNL     1       3.935  -3.551   3.857  0.00  0.00    -0.326 N 
ATOM      5  C   UNL     1       2.915  -3.466   4.778  0.00  0.00    +0.053 A 
ATOM      6  C   UNL     1       3.463  -3.606   5.990  0.00  0.00    +0.035 A 
ATOM      7  N   UNL     1       4.787  -3.771   5.834  0.00  0.00    -0.343 N 
ATOM      8  C   UNL     1       5.084  -3.739   4.550  0.00  0.00    +0.122 A 
ATOM      9  C   UNL     1       2.724  -3.580   7.302  0.00  0.00    +0.065 C 
ATOM     10  C   UNL     1       1.472  -3.250   4.400  0.00  0.00    +0.140 C 
ATOM     11  H   UNL     1       5.426  -3.895   6.554  0.00  0.00    +0.167 HD
ENDROOT
BRANCH   8  12
ATOM     12  C   UNL     1       6.436  -3.883   3.967  0.00  0.00    +0.053 A 
ATOM     13  C   UNL     1       6.755  -4.511   2.745  0.00  0.00    +0.146 A 
ATOM     14  N   UNL     1       8.048  -4.435   2.575  0.00  0.00    -0.174 NA
ATOM     15  N   UNL     1       8.604  -3.762   3.670  0.00  0.00    -0.239 N 
ATOM     16  C   UNL     1       7.604  -3.426   4.511  0.00  0.00    +0.126 A 
BRANCH  15  17
ATOM     17  C   UNL     1       9.964  -3.482   3.857  0.00  0.00    +0.065 A 
ATOM     18  C   UNL     1      10.385  -2.810   4.997  0.00  0.00    +0.028 A 
ATOM     19  C   UNL     1      11.727  -2.535   5.179  0.00  0.00    +0.002 A 
ATOM     20  C   UNL     1      12.650  -2.929   4.227  0.00  0.00    +0.000 A 
ATOM     21  C   UNL     1      12.233  -3.599   3.091  0.00  0.00    +0.002 A 
ATOM     22  C   UNL     1      10.894  -3.881   2.906  0.00  0.00    +0.028 A 
ENDBRANCH  15  17
ENDBRANCH   8  12
BRANCH   1  23
ATOM     23  C   UNL     1       0.050  -2.683   2.519  0.00  0.00    +0.140 C 
BRANCH  23  29
ATOM     24  C   UNL     1      -0.018   1.503   0.010  0.00  0.00    +0.065 C 
ATOM     25  C   UNL     1       0.002  -0.004   0.002  0.00  0.00    +0.039 A 
ATOM     26  C   UNL     1       0.005  -0.681  -1.203  0.00  0.00    +0.023 A 
ATOM     27  C   UNL     1       0.024  -2.067  -1.200  0.00  0.00    +0.004 A 
ATOM     28  C   UNL     1       0.039  -2.724   0.021  0.00  0.00    +0.024 A 
ATOM     29  C   UNL     1       0.035  -1.980   1.186  0.00  0.00    +0.056 A 
ATOM     30  N   UNL     1       0.022  -0.662   1.145  0.00  0.00    -0.255 NA
ENDBRANCH  23  29
ENDBRANCH   1  23
TORSDOF 4
