REMARK  Name = ZINC28305379
REMARK  8 active torsions:
REMARK  status: ('A' for Active; 'I' for Inactive)
REMARK    1  A    between atoms: C_1  and  C_2
REMARK    2  A    between atoms: C_2  and  C_4
REMARK    3  A    between atoms: C_2  and  N_14
REMARK    4  A    between atoms: C_7  and  S_10
REMARK    5  A    between atoms: S_10  and  N_13
REMARK    6  A    between atoms: N_14  and  C_15
REMARK    7  A    between atoms: C_16  and  C_18
REMARK    8  A    between atoms: C_18  and  C_19
REMARK                            x       y       z     vdW  Elec       q    Type
REMARK                         _______ _______ _______ _____ _____    ______ ____
ROOT
ATOM      1  N   UNL     1      -0.967  -0.603   0.923  0.00  0.00    -0.297 N 
ATOM      2  C   UNL     1      -2.402  -0.408   0.705  0.00  0.00    +0.132 C 
ATOM      3  C   UNL     1      -0.538  -1.347   1.962  0.00  0.00    +0.220 C 
ATOM      4  O   UNL     1       0.650  -1.509   2.142  0.00  0.00    -0.275 OA
ENDROOT
BRANCH   1   6
ATOM      5  C   UNL     1      -0.511  -0.093  -1.425  0.00  0.00    +0.033 C 
ATOM      6  C   UNL     1       0.003   0.011   0.013  0.00  0.00    +0.103 C 
BRANCH   6   7
ATOM      7  C   UNL     1       0.185   1.462   0.377  0.00  0.00    -0.027 A 
ATOM      8  C   UNL     1      -0.876   2.185   0.889  0.00  0.00    +0.007 A 
ATOM      9  C   UNL     1      -0.707   3.514   1.228  0.00  0.00    +0.029 A 
ATOM     10  C   UNL     1       0.520   4.124   1.045  0.00  0.00    +0.105 A 
ATOM     11  C   UNL     1       1.580   3.402   0.528  0.00  0.00    +0.029 A 
ATOM     12  C   UNL     1       1.412   2.071   0.194  0.00  0.00    +0.007 A 
BRANCH  10  13
ATOM     13  S   UNL     1       0.733   5.820   1.470  0.00  0.00    +0.056 S 
ATOM     14  O   UNL     1      -0.259   6.123   2.441  0.00  0.00    -0.153 OA
ATOM     15  O   UNL     1       2.120   6.007   1.713  0.00  0.00    -0.153 OA
BRANCH  13  16
ATOM     16  N   UNL     1       0.365   6.712   0.124  0.00  0.00    -0.204 NA
ATOM     17  H   UNL     1       0.486   7.782   0.349  0.00  0.00    +0.144 HD
ATOM     18  H   UNL     1      -0.676   6.516  -0.173  0.00  0.00    +0.144 HD
ENDBRANCH  13  16
ENDBRANCH  10  13
ENDBRANCH   6   7
ENDBRANCH   1   6
BRANCH   3  19
ATOM     19  C   UNL     1      -1.535  -1.979   2.899  0.00  0.00    +0.135 C 
BRANCH  19  20
ATOM     20  C   UNL     1      -0.802  -2.752   3.965  0.00  0.00    +0.007 A 
ATOM     21  C   UNL     1      -0.522  -4.066   3.962  0.00  0.00    +0.200 A 
ATOM     22  O   UNL     1       0.146  -4.394   5.080  0.00  0.00    -0.463 OA
ATOM     23  C   UNL     1       0.324  -3.314   5.868  0.00  0.00    +0.136 A 
ATOM     24  C   UNL     1      -0.259  -2.224   5.215  0.00  0.00    +0.031 A 
ATOM     25  C   UNL     1      -0.217  -0.910   5.843  0.00  0.00    -0.007 A 
ATOM     26  C   UNL     1      -0.783   0.217   5.238  0.00  0.00    +0.009 A 
ATOM     27  C   UNL     1      -0.717   1.426   5.865  0.00  0.00    +0.001 A 
ATOM     28  C   UNL     1      -0.093   1.556   7.103  0.00  0.00    +0.001 A 
ATOM     29  C   UNL     1       0.468   0.479   7.720  0.00  0.00    +0.008 A 
ATOM     30  C   UNL     1       0.419  -0.781   7.103  0.00  0.00    -0.017 A 
ATOM     31  C   UNL     1       0.988  -1.916   7.710  0.00  0.00    +0.012 A 
ATOM     32  C   UNL     1       0.939  -3.132   7.112  0.00  0.00    +0.047 A 
ENDBRANCH  19  20
ENDBRANCH   3  19
TORSDOF 6
