REMARK  Name = ZINC52823816
REMARK  6 active torsions:
REMARK  status: ('A' for Active; 'I' for Inactive)
REMARK    1  A    between atoms: C_1  and  C_2
REMARK    2  A    between atoms: C_2  and  C_4
REMARK    3  A    between atoms: C_2  and  N_13
REMARK    4  A    between atoms: N_9  and  C_10
REMARK    5  A    between atoms: C_10  and  C_11
REMARK    6  A    between atoms: C_16  and  C_19
REMARK                            x       y       z     vdW  Elec       q    Type
REMARK                         _______ _______ _______ _____ _____    ______ ____
ROOT
ATOM      1  N   UNL     1      -1.376  -0.512   0.012  0.00  0.00    -0.288 NA
ATOM      2  C   UNL     1      -2.053  -0.227  -1.263  0.00  0.00    +0.090 C 
ATOM      3  C   UNL     1      -3.347  -1.044  -1.320  0.00  0.00    +0.051 C 
ATOM      4  C   UNL     1      -4.119  -0.860  -0.044  0.00  0.00    -0.040 C 
ATOM      5  C   UNL     1      -3.576  -0.371   1.051  0.00  0.00    -0.007 C 
ATOM      6  C   UNL     1      -2.138   0.056   1.131  0.00  0.00    +0.112 C 
ENDROOT
BRANCH   4   7
ATOM      7  C   UNL     1      -5.545  -1.242  -0.017  0.00  0.00    +0.003 A 
ATOM      8  C   UNL     1      -6.577  -0.562  -0.579  0.00  0.00    +0.091 A 
ATOM      9  N   UNL     1      -7.747  -1.226  -0.345  0.00  0.00    -0.360 N 
ATOM     10  H   UNL     1      -8.621  -0.934  -0.649  0.00  0.00    +0.165 HD
ATOM     11  C   UNL     1      -7.507  -2.370   0.384  0.00  0.00    +0.050 A 
ATOM     12  C   UNL     1      -6.123  -2.438   0.618  0.00  0.00    +0.007 A 
ATOM     13  C   UNL     1      -5.588  -3.506   1.336  0.00  0.00    +0.013 A 
ATOM     14  C   UNL     1      -6.420  -4.495   1.811  0.00  0.00    +0.039 A 
ATOM     15  C   UNL     1      -7.788  -4.432   1.578  0.00  0.00    +0.125 A 
ATOM     16  C   UNL     1      -8.333  -3.376   0.876  0.00  0.00    +0.064 A 
ATOM     17  F   UNL     1      -8.594  -5.409   2.049  0.00  0.00    -0.205 F 
ENDBRANCH   4   7
BRANCH   1  19
ATOM     18  C   UNL     1      -0.019   1.526   0.010  0.00  0.00    +0.034 C 
ATOM     19  C   UNL     1       0.002  -0.004   0.002  0.00  0.00    +0.141 C 
BRANCH  19  20
ATOM     20  C   UNL     1       0.731  -0.503   1.223  0.00  0.00    +0.237 C 
ATOM     21  O   UNL     1       0.159  -1.212   2.023  0.00  0.00    -0.274 OA
ATOM     22  N   UNL     1       2.019  -0.161   1.426  0.00  0.00    -0.239 N 
ATOM     23  C   UNL     1       2.671  -0.608   2.518  0.00  0.00    +0.306 C 
ATOM     24  O   UNL     1       2.097  -1.319   3.319  0.00  0.00    -0.252 OA
ATOM     25  N   UNL     1       3.958  -0.266   2.720  0.00  0.00    -0.296 N 
ATOM     26  H   UNL     1       2.476   0.406   0.786  0.00  0.00    +0.159 HD
ATOM     27  H   UNL     1       4.416   0.302   2.081  0.00  0.00    +0.151 HD
BRANCH  25  28
ATOM     28  C   UNL     1       4.667  -0.751   3.907  0.00  0.00    +0.132 C 
BRANCH  28  29
ATOM     29  C   UNL     1       6.081  -0.230   3.897  0.00  0.00    -0.016 C 
ATOM     30  C   UNL     1       6.539   0.442   4.924  0.00  0.00    +0.005 C 
ENDBRANCH  28  29
ENDBRANCH  25  28
ENDBRANCH  19  20
ENDBRANCH   1  19
TORSDOF 5
