REMARK  Name = ZINC02784762
REMARK  9 active torsions:
REMARK  status: ('A' for Active; 'I' for Inactive)
REMARK    1  A    between atoms: C_1  and  C_2
REMARK    2  A    between atoms: C_2  and  C_3
REMARK    3  A    between atoms: C_2  and  O_4
REMARK    4  A    between atoms: O_4  and  C_5
REMARK    5  A    between atoms: C_5  and  C_7
REMARK    6  A    between atoms: C_8  and  N_18
REMARK    7  A    between atoms: C_19  and  C_21
REMARK    8  A    between atoms: C_24  and  C_26
REMARK    9  A    between atoms: C_26  and  N_27
REMARK                            x       y       z     vdW  Elec       q    Type
REMARK                         _______ _______ _______ _____ _____    ______ ____
ROOT
ATOM      1  N   UNL     1      -0.011   0.966   0.007  0.00  0.00    -0.273 N 
ATOM      2  C   UNL     1      -1.187   1.624   0.017  0.00  0.00    +0.284 C 
ATOM      3  O   UNL     1      -1.204   2.840   0.023  0.00  0.00    -0.266 OA
ATOM      4  H   UNL     1       0.004  -0.134   0.006  0.00  0.00    +0.156 HD
ENDROOT
BRANCH   1   6
ATOM      5  C   UNL     1       2.440   1.153  -0.009  0.00  0.00    +0.068 C 
ATOM      6  C   UNL     1       1.172   1.670  -0.000  0.00  0.00    +0.078 C 
ATOM      7  S   UNL     1       1.366   3.441   0.008  0.00  0.00    -0.106 S 
ATOM      8  C   UNL     1       3.189   3.539   0.048  0.00  0.00    +0.060 C 
ATOM      9  C   UNL     1       3.610   2.095  -0.068  0.00  0.00    +0.042 C 
ATOM     10  C   UNL     1       4.453   1.724  -1.272  0.00  0.00    +0.009 C 
ATOM     11  C   UNL     1       5.239   2.897  -1.840  0.00  0.00    +0.001 C 
ATOM     12  C   UNL     1       4.228   3.995  -2.205  0.00  0.00    +0.001 C 
ATOM     13  C   UNL     1       3.722   4.576  -0.881  0.00  0.00    +0.015 C 
BRANCH   5  14
ATOM     14  C   UNL     1       2.643  -0.232   0.030  0.00  0.00    +0.338 C 
ATOM     15  O   UNL     1       1.688  -0.987   0.073  0.00  0.00    -0.245 OA
BRANCH  14  16
ATOM     16  O   UNL     1       3.899  -0.731   0.021  0.00  0.00    -0.459 OA
BRANCH  16  18
ATOM     17  C   UNL     1       4.051  -2.707  -1.363  0.00  0.00    +0.052 C 
ATOM     18  C   UNL     1       4.032  -2.153   0.064  0.00  0.00    +0.171 C 
ATOM     19  C   UNL     1       5.338  -2.522   0.771  0.00  0.00    +0.052 C 
ENDBRANCH  16  18
ENDBRANCH  14  16
ENDBRANCH   5  14
ENDBRANCH   1   6
BRANCH   2  20
ATOM     20  C   UNL     1      -2.446   0.874   0.018  0.00  0.00    +0.190 A 
ATOM     21  C   UNL     1      -3.702   1.413   0.027  0.00  0.00    +0.055 A 
ATOM     22  C   UNL     1      -4.603   0.337   0.026  0.00  0.00    +0.047 A 
ATOM     23  C   UNL     1      -3.868  -0.798   0.016  0.00  0.00    +0.127 A 
ATOM     24  O   UNL     1      -2.569  -0.470   0.006  0.00  0.00    -0.453 OA
BRANCH  23  25
ATOM     25  C   UNL     1      -4.419  -2.200   0.010  0.00  0.00    +0.217 C 
BRANCH  25  26
ATOM     26  N   UNL     1      -4.603  -2.647  -1.373  0.00  0.00    -0.263 N 
ATOM     27  C   UNL     1      -4.081  -3.764  -1.923  0.00  0.00    +0.124 A 
ATOM     28  C   UNL     1      -4.487  -3.816  -3.213  0.00  0.00    +0.055 A 
ATOM     29  C   UNL     1      -5.277  -2.688  -3.462  0.00  0.00    +0.149 A 
ATOM     30  N   UNL     1      -5.347  -1.987  -2.360  0.00  0.00    -0.178 NA
ATOM     31 BR   UNL     1      -4.057  -5.171  -4.461  0.00  0.00    -0.047 Br
ENDBRANCH  25  26
ENDBRANCH  23  25
ENDBRANCH   2  20
TORSDOF 7
