REMARK  Name = ZINC36073459
REMARK  11 active torsions:
REMARK  status: ('A' for Active; 'I' for Inactive)
REMARK    1  A    between atoms: C_1  and  C_2
REMARK    2  A    between atoms: C_2  and  C_4
REMARK    3  A    between atoms: C_2  and  N_10
REMARK    4  A    between atoms: C_11  and  C_13
REMARK    5  A    between atoms: C_16  and  C_18
REMARK    6  A    between atoms: C_18  and  N_19
REMARK    7  A    between atoms: N_19  and  C_20
REMARK    8  A    between atoms: N_19  and  C_29
REMARK    9  A    between atoms: C_20  and  C_21
REMARK   10  A    between atoms: C_29  and  C_31
REMARK   11  A    between atoms: C_29  and  C_32
REMARK                            x       y       z     vdW  Elec       q    Type
REMARK                         _______ _______ _______ _____ _____    ______ ____
ROOT
ATOM      1  N   UNL     1       2.309  -2.974   5.445  0.00  0.00    +0.393 N 
ATOM      2  H   UNL     1       1.322  -3.115   5.290  0.00  0.00    -0.080 HD
ENDROOT
BRANCH   1   3
ATOM      3  C   UNL     1       3.059  -3.414   4.261  0.00  0.00    -0.040 C 
ATOM      4  C   UNL     1       3.775  -4.730   4.571  0.00  0.00    -0.008 C 
BRANCH   3   5
ATOM      5  C   UNL     1       2.107  -3.619   3.111  0.00  0.00    -0.061 A 
ATOM      6  C   UNL     1       1.304  -4.744   3.071  0.00  0.00    +0.002 A 
ATOM      7  C   UNL     1       0.430  -4.932   2.016  0.00  0.00    +0.000 A 
ATOM      8  C   UNL     1       0.360  -3.995   1.002  0.00  0.00    +0.000 A 
ATOM      9  C   UNL     1       1.162  -2.870   1.042  0.00  0.00    +0.000 A 
ATOM     10  C   UNL     1       2.033  -2.680   2.099  0.00  0.00    +0.002 A 
ENDBRANCH   3   5
ENDBRANCH   1   3
BRANCH   1  11
ATOM     11  C   UNL     1       2.568  -1.548   5.686  0.00  0.00    +0.020 C 
BRANCH  11  15
ATOM     12  C   UNL     1       0.590   0.181   3.192  0.00  0.00    +0.163 A 
ATOM     13  C   UNL     1       1.841   0.580   2.833  0.00  0.00    +0.230 A 
ATOM     14  O   UNL     1       2.697   0.003   3.690  0.00  0.00    -0.449 OA
ATOM     15  C   UNL     1       1.990  -0.734   4.558  0.00  0.00    +0.179 A 
ATOM     16  N   UNL     1       0.726  -0.633   4.274  0.00  0.00    -0.210 NA
BRANCH  12  18
ATOM     17  N   UNL     1      -1.846   0.094   3.008  0.00  0.00    -0.303 N 
ATOM     18  C   UNL     1      -0.674   0.563   2.537  0.00  0.00    +0.266 C 
ATOM     19  O   UNL     1      -0.658   1.302   1.571  0.00  0.00    -0.268 OA
ATOM     20  H   UNL     1      -1.858  -0.496   3.778  0.00  0.00    +0.150 HD
BRANCH  17  22
ATOM     21  C   UNL     1      -3.582   1.814   2.917  0.00  0.00    +0.033 C 
ATOM     22  C   UNL     1      -3.102   0.474   2.357  0.00  0.00    +0.100 C 
BRANCH  22  23
ATOM     23  C   UNL     1      -4.144  -0.583   2.620  0.00  0.00    -0.027 A 
ATOM     24  C   UNL     1      -4.233  -1.169   3.868  0.00  0.00    +0.005 A 
ATOM     25  C   UNL     1      -5.189  -2.138   4.110  0.00  0.00    +0.000 A 
ATOM     26  C   UNL     1      -6.056  -2.520   3.103  0.00  0.00    +0.000 A 
ATOM     27  C   UNL     1      -5.968  -1.933   1.855  0.00  0.00    +0.000 A 
ATOM     28  C   UNL     1      -5.014  -0.961   1.615  0.00  0.00    +0.005 A 
ENDBRANCH  22  23
ENDBRANCH  17  22
ENDBRANCH  12  18
ENDBRANCH  11  15
ENDBRANCH   1  11
BRANCH   1  29
ATOM     29  C   UNL     1       2.737  -3.754   6.614  0.00  0.00    -0.039 C 
BRANCH  29  30
ATOM     30  C   UNL     1       2.230  -5.167   6.488  0.00  0.00    -0.029 A 
ATOM     31  C   UNL     1       0.976  -5.407   5.959  0.00  0.00    +0.007 A 
ATOM     32  C   UNL     1       0.510  -6.702   5.842  0.00  0.00    +0.039 A 
ATOM     33  C   UNL     1       1.299  -7.763   6.255  0.00  0.00    +0.126 A 
ATOM     34  C   UNL     1       2.555  -7.524   6.785  0.00  0.00    +0.076 A 
ATOM     35  C   UNL     1       3.023  -6.226   6.896  0.00  0.00    +0.127 A 
ATOM     36  F   UNL     1       4.252  -5.993   7.407  0.00  0.00    -0.205 F 
ATOM     37  F   UNL     1       0.843  -9.029   6.141  0.00  0.00    -0.205 F 
ENDBRANCH  29  30
ENDBRANCH   1  29
TORSDOF 9
