REMARK  Name = ZINC35337841
REMARK  8 active torsions:
REMARK  status: ('A' for Active; 'I' for Inactive)
REMARK    1  A    between atoms: C_1  and  C_2
REMARK    2  A    between atoms: C_5  and  S_8
REMARK    3  A    between atoms: S_8  and  N_11
REMARK    4  A    between atoms: N_11  and  C_12
REMARK    5  A    between atoms: C_16  and  C_18
REMARK    6  A    between atoms: C_20  and  C_30
REMARK    7  A    between atoms: C_21  and  C_29
REMARK    8  A    between atoms: N_32  and  C_33
REMARK                            x       y       z     vdW  Elec       q    Type
REMARK                         _______ _______ _______ _____ _____    ______ ____
ROOT
ATOM      1  C   UNL     1       2.434  -3.716   1.572  0.00  0.00    +0.048 A 
ATOM      2  C   UNL     1       2.329  -2.684   2.497  0.00  0.00    +0.024 A 
ATOM      3  C   UNL     1       3.095  -2.709   3.646  0.00  0.00    +0.002 A 
ATOM      4  C   UNL     1       3.965  -3.758   3.876  0.00  0.00    +0.006 A 
ATOM      5  C   UNL     1       4.072  -4.786   2.958  0.00  0.00    -0.021 A 
ATOM      6  C   UNL     1       3.305  -4.771   1.809  0.00  0.00    +0.030 A 
ENDROOT
BRANCH   5   7
ATOM      7  C   UNL     1       5.023  -5.927   3.213  0.00  0.00    +0.143 C 
ATOM      8  C   UNL     1       6.431  -5.506   2.865  0.00  0.00    +0.058 C 
ATOM      9  C   UNL     1       7.234  -4.986   3.834  0.00  0.00    +0.025 C 
ATOM     10  N   UNL     1       6.808  -4.886   5.094  0.00  0.00    -0.341 N 
ATOM     11  C   UNL     1       5.726  -5.519   5.503  0.00  0.00    +0.135 C 
ATOM     12  N   UNL     1       4.993  -6.291   4.642  0.00  0.00    -0.300 N 
ATOM     13  C   UNL     1       4.243  -7.460   5.057  0.00  0.00    +0.109 C 
ATOM     14  C   UNL     1       3.534  -7.353   6.386  0.00  0.00    +0.030 C 
ATOM     15  C   UNL     1       4.496  -7.001   7.522  0.00  0.00    +0.078 C 
ATOM     16  S   UNL     1       5.178  -5.345   7.175  0.00  0.00    -0.092 S 
ATOM     17  C   UNL     1       8.623  -4.519   3.480  0.00  0.00    +0.064 C 
ATOM     18  H   UNL     1       7.303  -4.336   5.721  0.00  0.00    +0.167 HD
BRANCH   8  19
ATOM     19  C   UNL     1       6.910  -5.649   1.549  0.00  0.00    +0.244 C 
ATOM     20  O   UNL     1       7.995  -5.187   1.241  0.00  0.00    -0.270 OA
ATOM     21  N   UNL     1       6.168  -6.297   0.629  0.00  0.00    -0.315 N 
ATOM     22  C   UNL     1       6.666  -6.447  -0.740  0.00  0.00    +0.128 C 
ATOM     23  H   UNL     1       5.305  -6.665   0.874  0.00  0.00    +0.149 HD
ENDBRANCH   8  19
ENDBRANCH   5   7
BRANCH   1  24
ATOM     24  N   UNL     1       1.661  -3.694   0.409  0.00  0.00    -0.216 N 
ATOM     25  H   UNL     1       2.072  -3.878  -0.450  0.00  0.00    +0.174 HD
BRANCH  24  26
ATOM     26  S   UNL     1       0.043  -3.354   0.496  0.00  0.00    +0.072 S 
ATOM     27  O   UNL     1      -0.478  -3.517  -0.816  0.00  0.00    -0.150 OA
ATOM     28  O   UNL     1      -0.078  -2.136   1.218  0.00  0.00    -0.150 OA
BRANCH  26  33
ATOM     29  C   UNL     1      -2.501  -7.636   3.903  0.00  0.00    +0.044 C 
ATOM     30  C   UNL     1      -1.865  -6.566   3.052  0.00  0.00    -0.050 A 
ATOM     31  C   UNL     1      -1.293  -5.458   3.648  0.00  0.00    +0.005 A 
ATOM     32  C   UNL     1      -0.710  -4.477   2.867  0.00  0.00    +0.029 A 
ATOM     33  C   UNL     1      -0.699  -4.605   1.491  0.00  0.00    +0.109 A 
ATOM     34  C   UNL     1      -1.270  -5.714   0.895  0.00  0.00    +0.029 A 
ATOM     35  C   UNL     1      -1.850  -6.697   1.676  0.00  0.00    +0.005 A 
ENDBRANCH  26  33
ENDBRANCH  24  26
ENDBRANCH   1  24
TORSDOF 5
