REMARK  Name = ZINC36500813
REMARK  16 active torsions:
REMARK  status: ('A' for Active; 'I' for Inactive)
REMARK    1  A    between atoms: C_1  and  C_2
REMARK    2  A    between atoms: C_2  and  C_3
REMARK    3  A    between atoms: C_3  and  C_4
REMARK    4  A    between atoms: C_3  and  C_6
REMARK    5  A    between atoms: C_4  and  C_5
REMARK    6  A    between atoms: C_6  and  C_8
REMARK    7  A    between atoms: C_6  and  N_22
REMARK    8  A    between atoms: N_10  and  C_11
REMARK    9  A    between atoms: C_11  and  S_12
REMARK   10  A    between atoms: S_12  and  C_15
REMARK   11  A    between atoms: C_18  and  C_21
REMARK   12  A    between atoms: N_22  and  C_23
REMARK   13  A    between atoms: C_23  and  C_24
REMARK   14  A    between atoms: C_29  and  C_31
REMARK   15  A    between atoms: C_35  and  O_38
REMARK   16  A    between atoms: C_36  and  O_37
REMARK                            x       y       z     vdW  Elec       q    Type
REMARK                         _______ _______ _______ _____ _____    ______ ____
ROOT
ATOM      1  C   UNL     1       2.819   1.396   0.948  0.00  0.00    +0.166 C 
ENDROOT
BRANCH   1   2
ATOM      2  C   UNL     1       3.387   0.275   1.780  0.00  0.00    +0.235 C 
ATOM      3  O   UNL     1       3.753  -0.751   1.247  0.00  0.00    -0.274 OA
ATOM      4  N   UNL     1       3.489   0.413   3.117  0.00  0.00    -0.295 N 
ATOM      5  H   UNL     1       3.147   1.211   3.550  0.00  0.00    +0.150 HD
BRANCH   4   6
ATOM      6  C   UNL     1       4.115  -0.643   3.917  0.00  0.00    +0.278 C 
BRANCH   6   7
ATOM      7  S   UNL     1       5.893  -0.315   4.065  0.00  0.00    +0.013 S 
ATOM      8  O   UNL     1       6.478  -1.203   5.008  0.00  0.00    -0.168 OA
ATOM      9  O   UNL     1       6.469  -0.144   2.777  0.00  0.00    -0.168 OA
BRANCH   7  10
ATOM     10  C   UNL     1       5.999   1.274   4.820  0.00  0.00    +0.090 A 
ATOM     11  C   UNL     1       5.932   2.414   4.042  0.00  0.00    +0.027 A 
ATOM     12  C   UNL     1       6.015   3.661   4.634  0.00  0.00    +0.005 A 
ATOM     13  C   UNL     1       6.164   3.767   6.004  0.00  0.00    -0.050 A 
ATOM     14  C   UNL     1       6.230   2.626   6.782  0.00  0.00    +0.005 A 
ATOM     15  C   UNL     1       6.143   1.380   6.191  0.00  0.00    +0.027 A 
ATOM     16  C   UNL     1       6.255   5.126   6.649  0.00  0.00    +0.044 C 
ENDBRANCH   7  10
ENDBRANCH   6   7
ENDBRANCH   4   6
ENDBRANCH   1   2
BRANCH   1  17
ATOM     17  N   UNL     1       2.293   2.440   1.831  0.00  0.00    -0.278 N 
ATOM     18  C   UNL     1       2.622   3.730   1.619  0.00  0.00    +0.251 C 
ATOM     19  O   UNL     1       3.150   4.059   0.574  0.00  0.00    -0.270 OA
BRANCH  18  20
ATOM     20  C   UNL     1       2.342   4.742   2.655  0.00  0.00    +0.082 A 
ATOM     21  C   UNL     1       1.421   4.471   3.672  0.00  0.00    +0.017 A 
ATOM     22  C   UNL     1       1.163   5.418   4.638  0.00  0.00    +0.005 A 
ATOM     23  C   UNL     1       1.810   6.642   4.609  0.00  0.00    +0.049 A 
ATOM     24  C   UNL     1       2.724   6.926   3.608  0.00  0.00    +0.159 A 
ATOM     25  C   UNL     1       3.000   5.977   2.628  0.00  0.00    +0.171 A 
BRANCH  25  26
ATOM     26  O   UNL     1       3.900   6.249   1.649  0.00  0.00    -0.503 OA
ATOM     27  H   UNL     1       3.514   6.662   0.864  0.00  0.00    +0.292 HD
ENDBRANCH  25  26
BRANCH  24  28
ATOM     28  O   UNL     1       3.356   8.130   3.586  0.00  0.00    -0.503 OA
ATOM     29  H   UNL     1       4.188   8.147   4.078  0.00  0.00    +0.292 HD
ENDBRANCH  24  28
ENDBRANCH  18  20
BRANCH  17  30
ATOM     30  C   UNL     1       1.408   2.083   2.942  0.00  0.00    +0.183 C 
BRANCH  30  31
ATOM     31  C   UNL     1       0.007   2.549   2.640  0.00  0.00    +0.122 A 
ATOM     32  C   UNL     1      -1.045   1.755   2.371  0.00  0.00    +0.046 A 
ATOM     33  C   UNL     1      -2.153   2.605   2.149  0.00  0.00    +0.041 A 
ATOM     34  C   UNL     1      -1.711   3.867   2.296  0.00  0.00    +0.195 A 
ATOM     35  O   UNL     1      -0.404   3.827   2.599  0.00  0.00    -0.466 OA
ENDBRANCH  30  31
ENDBRANCH  17  30
ENDBRANCH   1  17
BRANCH   1  36
ATOM     36  C   UNL     1       1.691   0.856   0.068  0.00  0.00    +0.018 C 
BRANCH  36  38
ATOM     37  C   UNL     1       1.506  -1.418   1.087  0.00  0.00    +0.004 C 
ATOM     38  C   UNL     1       0.800  -0.075   0.893  0.00  0.00    +0.002 C 
ENDBRANCH  36  38
BRANCH  36  39
ATOM     39  C   UNL     1       0.856   2.022  -0.464  0.00  0.00    +0.002 C 
ATOM     40  C   UNL     1       1.724   2.902  -1.365  0.00  0.00    +0.004 C 
ENDBRANCH  36  39
ENDBRANCH   1  36
TORSDOF 13
