REMARK  Name = ZINC00907709
REMARK  11 active torsions:
REMARK  status: ('A' for Active; 'I' for Inactive)
REMARK    1  A    between atoms: C_1  and  C_2
REMARK    2  A    between atoms: C_2  and  C_3
REMARK    3  A    between atoms: C_3  and  C_4
REMARK    4  A    between atoms: C_3  and  C_5
REMARK    5  A    between atoms: C_3  and  N_6
REMARK    6  A    between atoms: C_7  and  C_11
REMARK    7  A    between atoms: C_11  and  C_13
REMARK    8  A    between atoms: C_11  and  N_65
REMARK    9  A    between atoms: C_17  and  C_25
REMARK   10  A    between atoms: C_26  and  N_65
REMARK   11  A    between atoms: C_27  and  N_65
REMARK                            x       y       z     vdW  Elec       q    Type
REMARK                         _______ _______ _______ _____ _____    ______ ____
ROOT
ATOM      1  C   UNL     1       0.998   2.815  -0.003  0.00  0.00    +0.039 C 
ENDROOT
BRANCH   1   2
ATOM      2  C   UNL     1       1.118   3.453   1.357  0.00  0.00    +0.011 A 
ATOM      3  C   UNL     1       2.343   3.667   1.897  0.00  0.00    +0.017 A 
ATOM      4  C   UNL     1       2.425   4.293   3.218  0.00  0.00    -0.001 A 
ATOM      5  C   UNL     1       3.660   4.542   3.825  0.00  0.00    +0.013 A 
ATOM      6  C   UNL     1       3.703   5.123   5.061  0.00  0.00    -0.050 A 
ATOM      7  C   UNL     1       2.530   5.467   5.721  0.00  0.00    +0.005 A 
ATOM      8  C   UNL     1       1.302   5.232   5.141  0.00  0.00    +0.026 A 
ATOM      9  C   UNL     1       1.234   4.641   3.883  0.00  0.00    +0.049 A 
ATOM     10  N   UNL     1       0.019   4.393   3.281  0.00  0.00    -0.322 N 
ATOM     11  H   UNL     1      -0.826   4.641   3.755  0.00  0.00    +0.169 HD
ATOM     12  C   UNL     1      -0.046   3.821   2.066  0.00  0.00    +0.251 A 
ATOM     13  O   UNL     1      -1.137   3.616   1.564  0.00  0.00    -0.268 OA
ATOM     14  C   UNL     1       5.034   5.391   5.715  0.00  0.00    +0.044 C 
ENDBRANCH   1   2
BRANCH   1  16
ATOM     15  N   UNL     1       0.926   0.268   0.102  0.00  0.00    -0.225 N 
ATOM     16  C   UNL     1       0.326   1.473   0.129  0.00  0.00    +0.143 A 
ATOM     17  N   UNL     1      -0.956   1.252   0.292  0.00  0.00    -0.115 NA
ATOM     18  N   UNL     1      -1.134  -0.022   0.362  0.00  0.00    -0.023 NA
ATOM     19  N   UNL     1       0.001  -0.620   0.247  0.00  0.00    -0.043 NA
BRANCH  15  20
ATOM     20  C   UNL     1       2.359   0.013  -0.062  0.00  0.00    +0.061 C 
ATOM     21  C   UNL     1       2.823   0.561  -1.412  0.00  0.00    +0.036 C 
ATOM     22  C   UNL     1       3.132   0.704   1.063  0.00  0.00    +0.036 C 
BRANCH  20  24
ATOM     23  C   UNL     1       4.115  -1.761  -0.178  0.00  0.00    +0.006 C 
ATOM     24  C   UNL     1       2.618  -1.494  -0.007  0.00  0.00    +0.026 C 
ENDBRANCH  20  24
ENDBRANCH  15  20
ENDBRANCH   1  16
BRANCH   1  26
ATOM     25  C   UNL     1       0.732   5.047  -0.902  0.00  0.00    -0.094 C 
ATOM     26  N   UNL     1       0.171   3.680  -0.870  0.00  0.00    +0.389 N 
ATOM     27  H   UNL     1      -0.782   3.720  -0.490  0.00  0.00    -0.080 HD
BRANCH  26  28
ATOM     28  C   UNL     1       0.119   3.123  -2.238  0.00  0.00    -0.068 C 
ATOM     29  C   UNL     1       1.443   3.365  -2.966  0.00  0.00    -0.015 C 
ATOM     30  C   UNL     1       1.361   2.785  -4.379  0.00  0.00    -0.002 C 
ATOM     31  C   UNL     1       0.226   3.468  -5.145  0.00  0.00    -0.000 C 
ATOM     32  C   UNL     1      -1.098   3.226  -4.418  0.00  0.00    -0.002 C 
ATOM     33  C   UNL     1      -1.016   3.805  -3.004  0.00  0.00    -0.015 C 
ENDBRANCH  26  28
ENDBRANCH   1  26
TORSDOF 6
