REMARK  Name = ZINC05490407
REMARK  7 active torsions:
REMARK  status: ('A' for Active; 'I' for Inactive)
REMARK    1  A    between atoms: C_1  and  C_2
REMARK    2  A    between atoms: C_4  and  C_8
REMARK    3  A    between atoms: C_5  and  C_7
REMARK    4  A    between atoms: C_15  and  N_28
REMARK    5  A    between atoms: C_16  and  C_26
REMARK    6  A    between atoms: C_17  and  C_19
REMARK    7  A    between atoms: C_23  and  O_25
REMARK                            x       y       z     vdW  Elec       q    Type
REMARK                         _______ _______ _______ _____ _____    ______ ____
ROOT
ATOM      1  C   UNL     1      -2.146  -3.460  -0.158  0.00  0.00    +0.101 A 
ATOM      2  C   UNL     1      -3.446  -2.988   0.042  0.00  0.00    +0.054 A 
ATOM      3  C   UNL     1      -4.288  -4.063   0.051  0.00  0.00    +0.223 A 
ATOM      4  N   UNL     1      -3.542  -5.171  -0.137  0.00  0.00    -0.246 N 
ATOM      5  H   UNL     1      -3.873  -6.082  -0.177  0.00  0.00    +0.192 HD
ATOM      6  N   UNL     1      -2.203  -4.773  -0.271  0.00  0.00    -0.171 NA
ATOM      7  O   UNL     1      -5.628  -3.942   0.229  0.00  0.00    -0.423 OA
ATOM      8  C   UNL     1      -6.095  -2.756   0.671  0.00  0.00    +0.200 C 
ATOM      9  C   UNL     1      -5.361  -1.621   0.697  0.00  0.00    +0.098 C 
ATOM     10  C   UNL     1      -3.930  -1.573   0.222  0.00  0.00    +0.102 C 
ENDROOT
BRANCH   1  14
ATOM     11  C   UNL     1       0.958   0.201   1.504  0.00  0.00    +0.051 C 
ATOM     12  C   UNL     1       0.466  -0.909   0.610  0.00  0.00    -0.012 A 
ATOM     13  C   UNL     1      -0.663  -1.645   0.714  0.00  0.00    +0.021 A 
ATOM     14  C   UNL     1      -0.918  -2.629  -0.236  0.00  0.00    +0.013 A 
ATOM     15  C   UNL     1      -0.012  -2.814  -1.242  0.00  0.00    -0.004 A 
ATOM     16  S   UNL     1       1.222  -1.582  -0.859  0.00  0.00    -0.098 S 
ATOM     17  C   UNL     1      -0.048  -3.799  -2.382  0.00  0.00    +0.052 C 
ENDBRANCH   1  14
BRANCH  10  18
ATOM     18  C   UNL     1      -3.855  -0.838  -1.091  0.00  0.00    -0.031 A 
ATOM     19  C   UNL     1      -4.519  -1.333  -2.199  0.00  0.00    +0.005 A 
ATOM     20  C   UNL     1      -4.452  -0.661  -3.405  0.00  0.00    +0.004 A 
ATOM     21  C   UNL     1      -3.721   0.506  -3.507  0.00  0.00    +0.045 A 
ATOM     22  C   UNL     1      -3.053   1.004  -2.398  0.00  0.00    +0.117 A 
ATOM     23  C   UNL     1      -3.127   0.332  -1.187  0.00  0.00    +0.050 A 
BRANCH  22  24
ATOM     24  O   UNL     1      -2.333   2.153  -2.496  0.00  0.00    -0.507 OA
ATOM     25  H   UNL     1      -2.840   2.953  -2.304  0.00  0.00    +0.292 HD
ENDBRANCH  22  24
ENDBRANCH  10  18
BRANCH   8  26
ATOM     26  N   UNL     1      -7.390  -2.699   1.121  0.00  0.00    -0.328 N 
ATOM     27  H   UNL     1      -7.942  -3.497   1.115  0.00  0.00    +0.145 HD
ATOM     28  H   UNL     1      -7.755  -1.861   1.445  0.00  0.00    +0.145 HD
ENDBRANCH   8  26
BRANCH   9  29
ATOM     29  C   UNL     1      -5.965  -0.421   1.192  0.00  0.00    +0.101 C 
ATOM     30  N   UNL     1      -6.444   0.531   1.585  0.00  0.00    -0.191 NA
ENDBRANCH   9  29
TORSDOF 5
