REMARK  Name = ZINC38726372
REMARK  14 active torsions:
REMARK  status: ('A' for Active; 'I' for Inactive)
REMARK    1  A    between atoms: C_1  and  C_2
REMARK    2  A    between atoms: C_2  and  N_3
REMARK    3  A    between atoms: N_3  and  C_4
REMARK    4  A    between atoms: N_3  and  C_6
REMARK    5  A    between atoms: C_4  and  C_5
REMARK    6  A    between atoms: C_6  and  C_7
REMARK    7  A    between atoms: C_7  and  N_8
REMARK    8  A    between atoms: C_9  and  C_27
REMARK    9  A    between atoms: C_17  and  O_24
REMARK   10  A    between atoms: O_24  and  C_25
REMARK   11  A    between atoms: C_25  and  C_26
REMARK   12  A    between atoms: C_30  and  C_33
REMARK   13  A    between atoms: C_33  and  C_34
REMARK   14  A    between atoms: C_33  and  C_35
REMARK                            x       y       z     vdW  Elec       q    Type
REMARK                         _______ _______ _______ _____ _____    ______ ____
ROOT
ATOM      1  N   UNL     1      -3.383  -3.467  -0.304  0.00  0.00    -0.285 N 
ATOM      2  C   UNL     1      -3.305  -4.353  -1.478  0.00  0.00    +0.144 C 
ATOM      3  C   UNL     1      -3.541  -5.734  -0.961  0.00  0.00    +0.072 A 
ATOM      4  C   UNL     1      -3.592  -7.028  -1.651  0.00  0.00    +0.199 A 
ATOM      5  O   UNL     1      -3.261  -7.177  -2.815  0.00  0.00    -0.287 OA
ATOM      6  C   UNL     1      -4.084  -8.137  -0.799  0.00  0.00    +0.065 A 
ATOM      7  C   UNL     1      -4.379  -9.381  -1.360  0.00  0.00    +0.019 A 
ATOM      8  C   UNL     1      -4.835 -10.393  -0.565  0.00  0.00    +0.046 A 
ATOM      9  C   UNL     1      -5.009 -10.185   0.803  0.00  0.00    +0.124 A 
ATOM     10  C   UNL     1      -4.719  -8.959   1.373  0.00  0.00    +0.092 A 
ATOM     11  C   UNL     1      -4.249  -7.916   0.580  0.00  0.00    +0.143 A 
ATOM     12  O   UNL     1      -3.963  -6.728   1.161  0.00  0.00    -0.449 OA
ATOM     13  C   UNL     1      -3.731  -5.648   0.388  0.00  0.00    +0.199 A 
ATOM     14  C   UNL     1      -3.627  -4.231   0.780  0.00  0.00    +0.283 C 
ATOM     15  O   UNL     1      -3.746  -3.812   1.914  0.00  0.00    -0.267 OA
ENDROOT
BRANCH   2  16
ATOM     16  C   UNL     1      -1.941  -4.259  -2.111  0.00  0.00    -0.022 A 
ATOM     17  C   UNL     1      -0.813  -4.185  -1.315  0.00  0.00    +0.006 A 
ATOM     18  C   UNL     1       0.439  -4.099  -1.895  0.00  0.00    +0.004 A 
ATOM     19  C   UNL     1       0.562  -4.086  -3.272  0.00  0.00    -0.045 A 
ATOM     20  C   UNL     1      -0.565  -4.160  -4.068  0.00  0.00    +0.004 A 
ATOM     21  C   UNL     1      -1.817  -4.251  -3.487  0.00  0.00    +0.006 A 
BRANCH  19  22
ATOM     22  C   UNL     1       1.927  -3.990  -3.905  0.00  0.00    +0.013 C 
ATOM     23  C   UNL     1       2.171  -5.223  -4.778  0.00  0.00    +0.012 C 
ATOM     24  C   UNL     1       2.001  -2.730  -4.770  0.00  0.00    +0.012 C 
ENDBRANCH  19  22
ENDBRANCH   2  16
BRANCH   1  25
ATOM     25  C   UNL     1      -3.218  -2.012  -0.312  0.00  0.00    +0.090 C 
BRANCH  25  26
ATOM     26  C   UNL     1      -1.742  -1.664  -0.108  0.00  0.00    -0.060 C 
BRANCH  26  27
ATOM     27  N   UNL     1      -1.595  -0.208   0.018  0.00  0.00    +0.380 N 
ATOM     28  H   UNL     1      -2.016   0.243  -0.780  0.00  0.00    -0.082 HD
BRANCH  27  30
ATOM     29  C   UNL     1      -2.215   1.775   1.315  0.00  0.00    -0.017 C 
ATOM     30  C   UNL     1      -2.260   0.247   1.246  0.00  0.00    -0.082 C 
ENDBRANCH  27  30
BRANCH  27  31
ATOM     31  C   UNL     1      -0.168   0.136   0.078  0.00  0.00    -0.082 C 
ATOM     32  C   UNL     1       0.495  -0.203  -1.258  0.00  0.00    -0.017 C 
ENDBRANCH  27  31
ENDBRANCH  26  27
ENDBRANCH  25  26
ENDBRANCH   1  25
BRANCH   9  33
ATOM     33  O   UNL     1      -5.466 -11.197   1.583  0.00  0.00    -0.492 OA
BRANCH  33  34
ATOM     34  C   UNL     1      -5.748 -12.440   0.935  0.00  0.00    +0.225 C 
ATOM     35  C   UNL     1      -6.250 -13.451   1.968  0.00  0.00    +0.048 C 
ENDBRANCH  33  34
ENDBRANCH   9  33
TORSDOF 9
