REMARK  Name = ZINC38564844
REMARK  4 active torsions:
REMARK  status: ('A' for Active; 'I' for Inactive)
REMARK    1  A    between atoms: C_4  and  N_7
REMARK    2  A    between atoms: C_8  and  O_38
REMARK    3  A    between atoms: C_10  and  C_23
REMARK    4  A    between atoms: N_14  and  C_17
REMARK                            x       y       z     vdW  Elec       q    Type
REMARK                         _______ _______ _______ _____ _____    ______ ____
ROOT
ATOM      1  N   UNL     1       3.621  -0.553  -0.519  0.00  0.00    -0.228 N 
ATOM      2  C   UNL     1       3.505  -1.901   0.040  0.00  0.00    +0.225 C 
ATOM      3  C   UNL     1       4.738  -2.723  -0.345  0.00  0.00    +0.146 C 
ATOM      4  C   UNL     1       5.978  -1.903  -0.092  0.00  0.00    +0.236 C 
ATOM      5  O   UNL     1       6.998  -2.445   0.277  0.00  0.00    -0.274 OA
ATOM      6  N   UNL     1       5.953  -0.571  -0.276  0.00  0.00    -0.193 N 
ATOM      7  C   UNL     1       4.813   0.059  -0.603  0.00  0.00    +0.322 C 
ATOM      8  O   UNL     1       4.861   1.214  -0.980  0.00  0.00    -0.251 OA
ENDROOT
BRANCH   3   9
ATOM      9  C   UNL     1       4.662  -3.092  -1.828  0.00  0.00    +0.117 C 
ATOM     10  C   UNL     1       5.818  -3.997  -2.185  0.00  0.00    +0.038 A 
ATOM     11  H   UNL     1       5.929  -5.365  -0.618  0.00  0.00    +0.166 HD
ATOM     12  C   UNL     1       6.549  -3.847  -3.313  0.00  0.00    -0.016 A 
ATOM     13  C   UNL     1       7.557  -4.884  -3.310  0.00  0.00    +0.003 A 
ATOM     14  C   UNL     1       8.578  -5.220  -4.204  0.00  0.00    +0.010 A 
ATOM     15  C   UNL     1       9.366  -6.294  -3.871  0.00  0.00    +0.001 A 
ATOM     16  C   UNL     1       9.169  -7.019  -2.708  0.00  0.00    +0.002 A 
ATOM     17  C   UNL     1       8.165  -6.710  -1.806  0.00  0.00    +0.026 A 
ATOM     18  C   UNL     1       7.350  -5.625  -2.117  0.00  0.00    +0.047 A 
ATOM     19  N   UNL     1       6.291  -5.059  -1.465  0.00  0.00    -0.356 N 
ATOM     20  C   UNL     1       6.290  -2.770  -4.336  0.00  0.00    +0.052 C 
ATOM     21  C   UNL     1       4.891  -2.195  -4.075  0.00  0.00    +0.086 C 
ATOM     22  N   UNL     1       4.748  -1.873  -2.647  0.00  0.00    -0.307 NA
ATOM     23  H   UNL     1       3.953  -1.272  -2.486  0.00  0.00    +0.123 HD
ENDBRANCH   3   9
BRANCH   1  27
ATOM     24  C   UNL     1       0.205   1.401  -1.887  0.00  0.00    +0.000 A 
ATOM     25  C   UNL     1       0.634   0.244  -2.510  0.00  0.00    +0.002 A 
ATOM     26  C   UNL     1       1.766  -0.407  -2.059  0.00  0.00    +0.023 A 
ATOM     27  C   UNL     1       2.474   0.103  -0.979  0.00  0.00    +0.040 A 
ATOM     28  C   UNL     1       2.041   1.266  -0.355  0.00  0.00    +0.023 A 
ATOM     29  C   UNL     1       0.908   1.912  -0.811  0.00  0.00    +0.002 A 
ENDBRANCH   1  27
BRANCH   6  30
ATOM     30  C   UNL     1       7.134   0.170  -0.128  0.00  0.00    +0.045 A 
ATOM     31  C   UNL     1       7.455   0.730   1.101  0.00  0.00    +0.024 A 
ATOM     32  C   UNL     1       8.620   1.458   1.244  0.00  0.00    +0.002 A 
ATOM     33  C   UNL     1       9.466   1.631   0.163  0.00  0.00    +0.000 A 
ATOM     34  C   UNL     1       9.149   1.074  -1.062  0.00  0.00    +0.002 A 
ATOM     35  C   UNL     1       7.989   0.339  -1.209  0.00  0.00    +0.024 A 
ENDBRANCH   6  30
BRANCH   2  36
ATOM     36  O   UNL     1       3.414  -1.819   1.464  0.00  0.00    -0.373 OA
ATOM     37  H   UNL     1       2.654  -1.313   1.781  0.00  0.00    +0.212 HD
ENDBRANCH   2  36
TORSDOF 4
