REMARK  Name = ZINC28402784
REMARK  11 active torsions:
REMARK  status: ('A' for Active; 'I' for Inactive)
REMARK    1  A    between atoms: C_1  and  C_2
REMARK    2  A    between atoms: C_4  and  C_35
REMARK    3  A    between atoms: C_11  and  C_13
REMARK    4  A    between atoms: N_15  and  C_16
REMARK    5  A    between atoms: C_16  and  C_17
REMARK    6  A    between atoms: C_17  and  C_19
REMARK    7  A    between atoms: C_17  and  N_29
REMARK    8  A    between atoms: C_22  and  C_25
REMARK    9  A    between atoms: C_25  and  C_26
REMARK   10  A    between atoms: C_25  and  C_27
REMARK   11  A    between atoms: C_25  and  C_28
REMARK                            x       y       z     vdW  Elec       q    Type
REMARK                         _______ _______ _______ _____ _____    ______ ____
ROOT
ATOM      1  C   UNL     1       5.124  -0.766   0.005  0.00  0.00    +0.094 C 
ENDROOT
BRANCH   1   4
ATOM      2  C   UNL     1       3.302   0.586   0.895  0.00  0.00    +0.279 C 
ATOM      3  O   UNL     1       3.849   1.570   0.439  0.00  0.00    -0.267 OA
ATOM      4  N   UNL     1       3.859  -0.631   0.733  0.00  0.00    -0.310 N 
ATOM      5  H   UNL     1       3.364  -1.522   1.145  0.00  0.00    +0.149 HD
BRANCH   2  16
ATOM      6  C   UNL     1      -3.417  -0.275   4.974  0.00  0.00    +0.044 C 
ATOM      7  C   UNL     1      -2.118  -0.294   4.210  0.00  0.00    -0.049 A 
ATOM      8  C   UNL     1      -1.468  -1.499   3.984  0.00  0.00    +0.010 A 
ATOM      9  C   UNL     1      -0.277  -1.539   3.294  0.00  0.00    -0.007 A 
ATOM     10  C   UNL     1       0.281  -0.361   2.806  0.00  0.00    +0.142 A 
ATOM     11  C   UNL     1      -0.386   0.855   3.034  0.00  0.00    +0.064 A 
ATOM     12  C   UNL     1      -1.589   0.876   3.740  0.00  0.00    +0.018 A 
ATOM     13  C   UNL     1       0.217   2.095   2.510  0.00  0.00    +0.193 A 
ATOM     14  O   UNL     1      -0.311   3.181   2.673  0.00  0.00    -0.287 OA
ATOM     15  C   UNL     1       1.486   1.958   1.779  0.00  0.00    +0.103 A 
ATOM     16  C   UNL     1       2.023   0.723   1.631  0.00  0.00    +0.193 A 
ATOM     17  O   UNL     1       1.442  -0.381   2.123  0.00  0.00    -0.450 OA
ATOM     18  C   UNL     1       0.419  -2.856   3.062  0.00  0.00    +0.047 C 
ENDBRANCH   2  16
ENDBRANCH   1   4
BRANCH   1  19
ATOM     19  C   UNL     1       5.592  -2.221   0.062  0.00  0.00    -0.020 C 
BRANCH  19  20
ATOM     20  N   UNL     1       4.536  -3.096  -0.466  0.00  0.00    +0.385 N 
ATOM     21  C   UNL     1       4.826  -4.506  -0.175  0.00  0.00    -0.078 C 
ATOM     22  C   UNL     1       3.641  -5.372  -0.609  0.00  0.00    -0.019 C 
ATOM     23  C   UNL     1       3.397  -5.180  -2.108  0.00  0.00    -0.004 C 
ATOM     24  C   UNL     1       3.145  -3.697  -2.391  0.00  0.00    -0.019 C 
ATOM     25  C   UNL     1       4.345  -2.879  -1.906  0.00  0.00    -0.078 C 
ATOM     26  H   UNL     1       3.595  -2.836   0.040  0.00  0.00    -0.081 HD
ENDBRANCH  19  20
BRANCH  19  27
ATOM     27  C   UNL     1       6.839  -2.381  -0.768  0.00  0.00    -0.059 A 
ATOM     28  C   UNL     1       6.886  -1.866  -2.050  0.00  0.00    +0.002 A 
ATOM     29  C   UNL     1       8.032  -2.008  -2.811  0.00  0.00    +0.004 A 
ATOM     30  C   UNL     1       9.127  -2.675  -2.293  0.00  0.00    -0.042 A 
ATOM     31  C   UNL     1       9.077  -3.195  -1.013  0.00  0.00    +0.004 A 
ATOM     32  C   UNL     1       7.934  -3.048  -0.251  0.00  0.00    +0.002 A 
BRANCH  30  33
ATOM     33  C   UNL     1      10.373  -2.835  -3.124  0.00  0.00    -0.013 C 
ATOM     34  C   UNL     1      10.669  -4.324  -3.318  0.00  0.00    +0.015 C 
ATOM     35  C   UNL     1      10.165  -2.175  -4.488  0.00  0.00    +0.015 C 
ATOM     36  C   UNL     1      11.552  -2.170  -2.410  0.00  0.00    +0.015 C 
ENDBRANCH  30  33
ENDBRANCH  19  27
ENDBRANCH   1  19
TORSDOF 6
