REMARK  Name = ZINC64392525
REMARK  10 active torsions:
REMARK  status: ('A' for Active; 'I' for Inactive)
REMARK    1  A    between atoms: C_1  and  C_2
REMARK    2  A    between atoms: C_2  and  C_3
REMARK    3  A    between atoms: C_2  and  O_4
REMARK    4  A    between atoms: O_4  and  C_5
REMARK    5  A    between atoms: C_8  and  C_11
REMARK    6  A    between atoms: C_13  and  C_17
REMARK    7  A    between atoms: N_27  and  C_30
REMARK    8  A    between atoms: C_30  and  C_31
REMARK    9  A    between atoms: C_34  and  O_37
REMARK   10  A    between atoms: O_37  and  C_38
REMARK                            x       y       z     vdW  Elec       q    Type
REMARK                         _______ _______ _______ _____ _____    ______ ____
ROOT
ATOM      1  C   UNL     1      -6.028   0.330  -7.165  0.00  0.00    +0.006 A 
ATOM      2  C   UNL     1      -5.602   1.557  -6.680  0.00  0.00    +0.009 A 
ATOM      3  C   UNL     1      -6.074   2.728  -7.233  0.00  0.00    +0.016 A 
ATOM      4  C   UNL     1      -6.985   2.672  -8.286  0.00  0.00    +0.063 A 
ATOM      5  C   UNL     1      -7.416   1.427  -8.777  0.00  0.00    +0.056 A 
ATOM      6  C   UNL     1      -6.926   0.260  -8.212  0.00  0.00    +0.034 A 
ATOM      7  N   UNL     1      -8.323   1.402  -9.826  0.00  0.00    -0.307 N 
ATOM      8  H   UNL     1      -8.630   0.550 -10.175  0.00  0.00    +0.170 HD
ATOM      9  C   UNL     1      -8.782   2.545 -10.363  0.00  0.00    +0.330 A 
ATOM     10  O   UNL     1      -9.576   2.479 -11.281  0.00  0.00    -0.246 OA
ATOM     11  N   UNL     1      -8.400   3.757  -9.930  0.00  0.00    -0.256 N 
ATOM     12  C   UNL     1      -7.521   3.893  -8.914  0.00  0.00    +0.265 A 
ATOM     13  O   UNL     1      -7.180   4.994  -8.527  0.00  0.00    -0.267 OA
ENDROOT
BRANCH   1  16
ATOM     14  C   UNL     1      -3.925  -0.946  -4.943  0.00  0.00    +0.134 C 
ATOM     15  N   UNL     1      -5.190  -0.725  -5.130  0.00  0.00    -0.339 N 
ATOM     16  C   UNL     1      -5.501  -0.940  -6.548  0.00  0.00    +0.274 C 
ATOM     17  O   UNL     1      -4.256  -1.313  -7.160  0.00  0.00    -0.243 OA
ATOM     18  N   UNL     1      -3.299  -1.296  -6.114  0.00  0.00    -0.247 N 
ATOM     19  H   UNL     1      -2.355  -1.501  -6.209  0.00  0.00    +0.196 HD
ATOM     20  H   UNL     1      -5.826  -0.462  -4.446  0.00  0.00    +0.164 HD
BRANCH  14  24
ATOM     21  C   UNL     1      -1.965  -0.607  -1.188  0.00  0.00    +0.121 A 
ATOM     22  C   UNL     1      -1.266  -0.348  -2.360  0.00  0.00    +0.046 A 
ATOM     23  C   UNL     1      -1.898  -0.457  -3.579  0.00  0.00    +0.015 A 
ATOM     24  C   UNL     1      -3.242  -0.828  -3.636  0.00  0.00    +0.017 A 
ATOM     25  C   UNL     1      -3.942  -1.087  -2.456  0.00  0.00    +0.015 A 
ATOM     26  C   UNL     1      -3.302  -0.981  -1.240  0.00  0.00    +0.046 A 
BRANCH  21  27
ATOM     27  O   UNL     1      -1.339  -0.499   0.012  0.00  0.00    -0.489 OA
BRANCH  27  29
ATOM     28  C   UNL     1       0.290   1.280  -0.135  0.00  0.00    +0.051 C 
ATOM     29  C   UNL     1       0.064  -0.228  -0.010  0.00  0.00    +0.167 C 
ATOM     30  C   UNL     1       0.703  -0.734   1.285  0.00  0.00    +0.051 C 
ENDBRANCH  27  29
ENDBRANCH  21  27
ENDBRANCH  14  24
ENDBRANCH   1  16
BRANCH  11  31
ATOM     31  C   UNL     1      -8.948   4.955 -10.571  0.00  0.00    +0.165 C 
BRANCH  31  32
ATOM     32  C   UNL     1     -10.211   5.371  -9.862  0.00  0.00    -0.027 A 
ATOM     33  C   UNL     1     -11.431   4.868 -10.272  0.00  0.00    +0.009 A 
ATOM     34  C   UNL     1     -12.590   5.248  -9.624  0.00  0.00    +0.046 A 
ATOM     35  C   UNL     1     -12.529   6.136  -8.560  0.00  0.00    +0.120 A 
ATOM     36  C   UNL     1     -11.303   6.639  -8.149  0.00  0.00    +0.046 A 
ATOM     37  C   UNL     1     -10.146   6.252  -8.798  0.00  0.00    +0.009 A 
BRANCH  35  38
ATOM     38  O   UNL     1     -13.668   6.513  -7.921  0.00  0.00    -0.495 OA
ATOM     39  C   UNL     1     -13.528   7.429  -6.833  0.00  0.00    +0.277 C 
ENDBRANCH  35  38
ENDBRANCH  31  32
ENDBRANCH  11  31
TORSDOF 7
