REMARK  Name = ZINC13174289
REMARK  8 active torsions:
REMARK  status: ('A' for Active; 'I' for Inactive)
REMARK    1  A    between atoms: C_1  and  C_2
REMARK    2  A    between atoms: C_2  and  C_4
REMARK    3  A    between atoms: C_8  and  N_10
REMARK    4  A    between atoms: C_11  and  C_13
REMARK    5  A    between atoms: C_13  and  S_14
REMARK    6  A    between atoms: S_14  and  C_15
REMARK    7  A    between atoms: C_16  and  C_34
REMARK    8  A    between atoms: C_17  and  C_27
REMARK                            x       y       z     vdW  Elec       q    Type
REMARK                         _______ _______ _______ _____ _____    ______ ____
ROOT
ATOM      1  C   UNL     1      -5.081  -8.805   0.493  0.00  0.00    +0.080 C 
ATOM      2  C   UNL     1      -6.178  -9.602   0.603  0.00  0.00    +0.069 C 
ATOM      3  C   UNL     1      -6.045 -11.091   0.718  0.00  0.00    +0.097 C 
ATOM      4  C   UNL     1      -4.682 -11.553   0.268  0.00  0.00    +0.024 C 
ATOM      5  C   UNL     1      -3.653 -10.685   0.169  0.00  0.00    +0.016 C 
ATOM      6  N   UNL     1      -3.824  -9.363   0.472  0.00  0.00    -0.311 N 
ATOM      7  C   UNL     1      -2.289 -11.144  -0.287  0.00  0.00    +0.051 C 
ATOM      8  C   UNL     1      -2.069 -12.598   0.135  0.00  0.00    +0.014 C 
ATOM      9  C   UNL     1      -3.181 -13.456  -0.480  0.00  0.00    +0.080 C 
ATOM     10  C   UNL     1      -4.514 -12.914  -0.043  0.00  0.00    +0.162 C 
ATOM     11  O   UNL     1      -5.465 -13.666   0.043  0.00  0.00    -0.292 OA
ATOM     12  H   UNL     1      -3.050  -8.814   0.676  0.00  0.00    +0.152 HD
ENDROOT
BRANCH   3  13
ATOM     13  C   UNL     1      -6.253 -11.497   2.155  0.00  0.00    -0.035 A 
ATOM     14  C   UNL     1      -5.420 -11.000   3.140  0.00  0.00    +0.006 A 
ATOM     15  C   UNL     1      -5.611 -11.371   4.458  0.00  0.00    +0.020 A 
ATOM     16  C   UNL     1      -6.635 -12.240   4.790  0.00  0.00    +0.041 A 
ATOM     17  C   UNL     1      -7.468 -12.737   3.804  0.00  0.00    +0.020 A 
ATOM     18  C   UNL     1      -7.280 -12.360   2.487  0.00  0.00    +0.006 A 
ATOM     19 CL   UNL     1      -6.875 -12.707   6.445  0.00  0.00    -0.084 Cl
ENDBRANCH   3  13
BRANCH   2  20
ATOM     20  C   UNL     1      -7.481  -9.008   0.610  0.00  0.00    +0.098 C 
ATOM     21  N   UNL     1      -8.515  -8.537   0.615  0.00  0.00    -0.191 NA
ENDBRANCH   2  20
BRANCH   1  22
ATOM     22  S   UNL     1      -5.271  -7.058   0.371  0.00  0.00    -0.100 S 
BRANCH  22  23
ATOM     23  C   UNL     1      -3.570  -6.440   0.238  0.00  0.00    +0.171 C 
BRANCH  23  25
ATOM     24  N   UNL     1      -2.432  -4.255   0.015  0.00  0.00    -0.285 N 
ATOM     25  C   UNL     1      -3.589  -4.937   0.126  0.00  0.00    +0.227 C 
ATOM     26  O   UNL     1      -4.646  -4.342   0.134  0.00  0.00    -0.275 OA
ATOM     27  H   UNL     1      -1.593  -4.734  -0.068  0.00  0.00    +0.155 HD
BRANCH  24  32
ATOM     28  C   UNL     1      -3.387  -0.775   0.779  0.00  0.00    +0.019 A 
ATOM     29  C   UNL     1      -2.443  -0.077   0.019  0.00  0.00    +0.011 A 
ATOM     30  C   UNL     1      -1.512  -0.768  -0.728  0.00  0.00    +0.002 A 
ATOM     31  C   UNL     1      -1.508  -2.151  -0.729  0.00  0.00    +0.023 A 
ATOM     32  C   UNL     1      -2.442  -2.856   0.022  0.00  0.00    +0.034 A 
ATOM     33  C   UNL     1      -3.378  -2.173   0.782  0.00  0.00    +0.034 A 
BRANCH  28  35
ATOM     34  C   UNL     1      -4.389   1.465   1.573  0.00  0.00    +0.091 C 
ATOM     35  C   UNL     1      -4.382  -0.042   1.578  0.00  0.00    +0.160 C 
ATOM     36  O   UNL     1      -5.196  -0.650   2.240  0.00  0.00    -0.292 OA
ENDBRANCH  28  35
ENDBRANCH  24  32
ENDBRANCH  23  25
ENDBRANCH  22  23
ENDBRANCH   1  22
TORSDOF 7
