REMARK  Name = ZINC53114574
REMARK  6 active torsions:
REMARK  status: ('A' for Active; 'I' for Inactive)
REMARK    1  A    between atoms: C_1  and  C_2
REMARK    2  A    between atoms: C_7  and  C_9
REMARK    3  A    between atoms: C_7  and  N_11
REMARK    4  A    between atoms: C_9  and  O_10
REMARK    5  A    between atoms: C_13  and  C_19
REMARK    6  A    between atoms: C_15  and  N_18
REMARK                            x       y       z     vdW  Elec       q    Type
REMARK                         _______ _______ _______ _____ _____    ______ ____
ROOT
ATOM      1  N   UNL     1      -0.100   1.359   2.495  0.00  0.00    -0.320 N 
ATOM      2  C   UNL     1       0.928   2.288   2.453  0.00  0.00    +0.137 A 
ATOM      3  C   UNL     1       0.628   3.657   2.353  0.00  0.00    +0.093 A 
ATOM      4  C   UNL     1       1.681   4.578   2.311  0.00  0.00    +0.046 A 
ATOM      5  C   UNL     1       2.982   4.094   2.371  0.00  0.00    +0.044 A 
ATOM      6  C   UNL     1       3.196   2.725   2.469  0.00  0.00    +0.135 A 
ATOM      7  N   UNL     1       2.185   1.878   2.512  0.00  0.00    -0.237 NA
ATOM      8  H   UNL     1      -1.023   1.657   2.517  0.00  0.00    +0.148 HD
ENDROOT
BRANCH   1  14
ATOM      9  C   UNL     1      -0.266   1.370   0.001  0.00  0.00    +0.007 C 
ATOM     10  C   UNL     1       0.054  -0.126   0.013  0.00  0.00    -0.012 C 
ATOM     11  C   UNL     1      -1.247  -0.925   0.109  0.00  0.00    +0.003 C 
ATOM     12  C   UNL     1      -1.982  -0.551   1.398  0.00  0.00    +0.002 C 
ATOM     13  C   UNL     1      -1.095  -0.873   2.603  0.00  0.00    +0.028 C 
ATOM     14  C   UNL     1       0.206  -0.074   2.506  0.00  0.00    +0.057 C 
ATOM     15  C   UNL     1       0.941  -0.448   1.218  0.00  0.00    +0.031 C 
BRANCH  14  16
ATOM     16  C   UNL     1       1.093  -0.396   3.711  0.00  0.00    +0.181 C 
BRANCH  16  17
ATOM     17  O   UNL     1       0.468   0.081   4.904  0.00  0.00    -0.393 OA
ATOM     18  H   UNL     1       0.975  -0.090   5.709  0.00  0.00    +0.209 HD
ENDBRANCH  16  17
ENDBRANCH  14  16
ENDBRANCH   1  14
BRANCH   5  19
ATOM     19  N   UNL     1       4.068   4.978   2.332  0.00  0.00    -0.357 N 
ATOM     20  H   UNL     1       3.913   5.933   2.263  0.00  0.00    +0.142 HD
ATOM     21  H   UNL     1       4.974   4.635   2.375  0.00  0.00    +0.142 HD
ENDBRANCH   5  19
BRANCH   3  22
ATOM     22  C   UNL     1      -0.732   4.101   2.293  0.00  0.00    +0.103 C 
ATOM     23  N   UNL     1      -1.811   4.454   2.247  0.00  0.00    -0.191 NA
ENDBRANCH   3  22
TORSDOF 5
