REMARK  Name = ZINC40559052
REMARK  4 active torsions:
REMARK  status: ('A' for Active; 'I' for Inactive)
REMARK    1  A    between atoms: C_1  and  C_2
REMARK    2  A    between atoms: N_10  and  C_11
REMARK    3  A    between atoms: C_11  and  C_18
REMARK    4  A    between atoms: C_14  and  C_17
REMARK                            x       y       z     vdW  Elec       q    Type
REMARK                         _______ _______ _______ _____ _____    ______ ____
ROOT
ATOM      1  C   UNL     1      -0.018   1.503   0.010  0.00  0.00    +0.066 C 
ATOM      2  C   UNL     1       0.002  -0.004   0.002  0.00  0.00    +0.047 A 
ATOM      3  C   UNL     1       0.006  -0.706  -1.158  0.00  0.00    +0.071 A 
ATOM      4  S   UNL     1       0.032  -2.378  -0.535  0.00  0.00    -0.060 S 
ATOM      5  C   UNL     1       0.036  -2.015   1.109  0.00  0.00    +0.166 A 
ATOM      6  N   UNL     1       0.023  -0.700   1.124  0.00  0.00    -0.230 NA
ATOM      7  N   UNL     1       0.054  -2.892   2.187  0.00  0.00    -0.248 N 
ATOM      8  C   UNL     1       0.071  -4.222   1.974  0.00  0.00    +0.306 C 
ATOM      9  O   UNL     1       0.072  -4.656   0.838  0.00  0.00    -0.252 OA
ATOM     10  N   UNL     1       0.089  -5.072   3.020  0.00  0.00    -0.283 N 
ATOM     11  H   UNL     1       0.053  -2.546   3.093  0.00  0.00    +0.158 HD
ATOM     12  H   UNL     1       0.088  -4.726   3.926  0.00  0.00    +0.151 HD
ENDROOT
BRANCH  10  13
ATOM     13  C   UNL     1       0.108  -6.519   2.788  0.00  0.00    +0.137 C 
ATOM     14  C   UNL     1      -1.139  -6.926   2.001  0.00  0.00    +0.038 C 
ATOM     15  C   UNL     1      -2.390  -6.554   2.800  0.00  0.00    +0.006 C 
ATOM     16  C   UNL     1      -2.373  -7.286   4.144  0.00  0.00    -0.014 C 
ATOM     17  C   UNL     1      -1.125  -6.879   4.930  0.00  0.00    +0.006 C 
ATOM     18  C   UNL     1       0.125  -7.250   4.131  0.00  0.00    +0.038 C 
ATOM     19  C   UNL     1      -3.624  -6.914   4.942  0.00  0.00    +0.007 C 
BRANCH  13  20
ATOM     20  C   UNL     1       1.340  -6.885   2.001  0.00  0.00    +0.379 C 
ATOM     21  O   UNL     1       2.129  -6.018   1.665  0.00  0.00    -0.244 OA
ATOM     22  O   UNL     1       1.548  -8.048   1.700  0.00  0.00    -0.244 OA
ENDBRANCH  13  20
ENDBRANCH  10  13
TORSDOF 2
