REMARK  Name = ZINC32487458
REMARK  10 active torsions:
REMARK  status: ('A' for Active; 'I' for Inactive)
REMARK    1  A    between atoms: C_1  and  C_2
REMARK    2  A    between atoms: C_2  and  N_3
REMARK    3  A    between atoms: N_3  and  C_4
REMARK    4  A    between atoms: N_3  and  S_6
REMARK    5  A    between atoms: C_4  and  C_5
REMARK    6  A    between atoms: S_6  and  C_9
REMARK    7  A    between atoms: C_13  and  C_15
REMARK    8  A    between atoms: N_17  and  N_18
REMARK    9  A    between atoms: C_19  and  C_21
REMARK   10  A    between atoms: N_24  and  C_26
REMARK                            x       y       z     vdW  Elec       q    Type
REMARK                         _______ _______ _______ _____ _____    ______ ____
ROOT
ATOM      1  N   UNL     1       6.260  -4.904  -1.931  0.00  0.00    -0.229 N 
ATOM      2  C   UNL     1       7.510  -5.080  -2.402  0.00  0.00    +0.281 C 
ATOM      3  O   UNL     1       8.007  -4.244  -3.133  0.00  0.00    -0.267 OA
ATOM      4  H   UNL     1       5.810  -5.660  -1.270  0.00  0.00    +0.173 HD
ENDROOT
BRANCH   2   5
ATOM      5  C   UNL     1       8.276  -6.287  -2.033  0.00  0.00    +0.152 A 
ATOM      6  C   UNL     1       9.587  -6.611  -2.450  0.00  0.00    +0.006 A 
ATOM      7  C   UNL     1       9.877  -7.795  -1.868  0.00  0.00    +0.049 A 
ATOM      8  N   UNL     1       8.784  -8.160  -1.145  0.00  0.00    -0.233 N 
ATOM      9  N   UNL     1       7.865  -7.269  -1.254  0.00  0.00    -0.161 NA
ATOM     10  C   UNL     1      11.272  -8.236  -2.249  0.00  0.00    +0.056 C 
ATOM     11  C   UNL     1      11.962  -6.963  -2.787  0.00  0.00    +0.011 C 
ATOM     12  C   UNL     1      10.757  -6.126  -3.272  0.00  0.00    +0.040 C 
BRANCH   8  13
ATOM     13  C   UNL     1       8.676  -9.336  -0.391  0.00  0.00    +0.101 A 
ATOM     14  C   UNL     1       9.733 -10.235  -0.348  0.00  0.00    +0.031 A 
ATOM     15  C   UNL     1       9.626 -11.391   0.400  0.00  0.00    +0.002 A 
ATOM     16  C   UNL     1       8.463 -11.661   1.098  0.00  0.00    +0.003 A 
ATOM     17  C   UNL     1       7.405 -10.772   1.055  0.00  0.00    +0.040 A 
ATOM     18  C   UNL     1       7.508  -9.609   0.312  0.00  0.00    +0.149 A 
ATOM     19  F   UNL     1       6.473  -8.741   0.269  0.00  0.00    -0.203 F 
ENDBRANCH   8  13
ENDBRANCH   2   5
BRANCH   1  22
ATOM     20  C   UNL     1       4.282  -3.584  -1.810  0.00  0.00    +0.260 C 
ATOM     21  O   UNL     1       3.786  -4.419  -1.080  0.00  0.00    -0.269 OA
ATOM     22  N   UNL     1       5.533  -3.759  -2.282  0.00  0.00    -0.230 N 
ATOM     23  H   UNL     1       5.982  -3.003  -2.942  0.00  0.00    +0.173 HD
BRANCH  20  28
ATOM     24  C   UNL     1       1.510  -1.061  -2.043  0.00  0.00    +0.106 A 
ATOM     25  C   UNL     1       2.076  -0.115  -2.879  0.00  0.00    +0.028 A 
ATOM     26  C   UNL     1       3.361  -0.289  -3.361  0.00  0.00    +0.003 A 
ATOM     27  C   UNL     1       4.083  -1.415  -3.019  0.00  0.00    +0.013 A 
ATOM     28  C   UNL     1       3.515  -2.375  -2.180  0.00  0.00    +0.040 A 
ATOM     29  C   UNL     1       2.220  -2.190  -1.693  0.00  0.00    +0.041 A 
BRANCH  24  30
ATOM     30  S   UNL     1      -0.125  -0.826  -1.430  0.00  0.00    +0.061 S 
ATOM     31  O   UNL     1      -0.630  -2.116  -1.114  0.00  0.00    -0.153 OA
ATOM     32  O   UNL     1      -0.780   0.046  -2.342  0.00  0.00    -0.153 OA
BRANCH  30  33
ATOM     33  N   UNL     1       0.002  -0.004   0.002  0.00  0.00    -0.177 NA
BRANCH  33  35
ATOM     34  C   UNL     1       1.418   1.990  -0.001  0.00  0.00    +0.022 C 
ATOM     35  C   UNL     1      -0.018   1.461   0.010  0.00  0.00    +0.106 C 
ENDBRANCH  33  35
BRANCH  33  36
ATOM     36  C   UNL     1       0.135  -0.742   1.261  0.00  0.00    +0.106 C 
ATOM     37  C   UNL     1      -1.245  -0.910   1.901  0.00  0.00    +0.022 C 
ENDBRANCH  33  36
ENDBRANCH  30  33
ENDBRANCH  24  30
ENDBRANCH  20  28
ENDBRANCH   1  22
TORSDOF 8
