REMARK  Name = ZINC63850286
REMARK  8 active torsions:
REMARK  status: ('A' for Active; 'I' for Inactive)
REMARK    1  A    between atoms: C_1  and  C_2
REMARK    2  A    between atoms: C_2  and  C_3
REMARK    3  A    between atoms: C_2  and  C_4
REMARK    4  A    between atoms: C_2  and  C_5
REMARK    5  A    between atoms: C_8  and  N_11
REMARK    6  A    between atoms: N_11  and  S_12
REMARK    7  A    between atoms: S_12  and  C_15
REMARK    8  A    between atoms: N_23  and  C_26
REMARK                            x       y       z     vdW  Elec       q    Type
REMARK                         _______ _______ _______ _____ _____    ______ ____
ROOT
ATOM      1  S   UNL     1       4.194  -1.387  -4.861  0.00  0.00    +0.092 S 
ATOM      2  O   UNL     1       4.212   0.019  -5.069  0.00  0.00    -0.148 OA
ATOM      3  O   UNL     1       4.961  -2.017  -3.844  0.00  0.00    -0.148 OA
ENDROOT
BRANCH   1   4
ATOM      4  C   UNL     1       4.674  -2.128  -6.386  0.00  0.00    +0.111 A 
ATOM      5  C   UNL     1       5.216  -3.399  -6.390  0.00  0.00    +0.029 A 
ATOM      6  C   UNL     1       5.599  -3.995  -7.581  0.00  0.00    +0.016 A 
ATOM      7  C   UNL     1       5.436  -3.312  -8.775  0.00  0.00    +0.050 A 
ATOM      8  C   UNL     1       4.882  -2.015  -8.771  0.00  0.00    +0.051 A 
ATOM      9  C   UNL     1       4.499  -1.434  -7.573  0.00  0.00    +0.042 A 
ATOM     10  C   UNL     1       4.851  -1.584 -10.184  0.00  0.00    +0.254 C 
ATOM     11  O   UNL     1       4.441  -0.516 -10.591  0.00  0.00    -0.270 OA
ATOM     12  N   UNL     1       5.356  -2.572 -10.945  0.00  0.00    -0.237 N 
ATOM     13  C   UNL     1       5.723  -3.624 -10.191  0.00  0.00    +0.254 C 
ATOM     14  O   UNL     1       6.208  -4.657 -10.605  0.00  0.00    -0.270 OA
ATOM     15  C   UNL     1       5.487  -2.511 -12.403  0.00  0.00    +0.142 C 
ENDBRANCH   1   4
BRANCH   1  16
ATOM     16  N   UNL     1       2.614  -1.804  -4.589  0.00  0.00    -0.095 NA
BRANCH  16  20
ATOM     17  C   UNL     1       0.707  -0.490  -1.238  0.00  0.00    +0.134 A 
ATOM     18  N   UNL     1       0.049  -1.246  -2.093  0.00  0.00    -0.238 NA
ATOM     19  C   UNL     1       0.632  -1.693  -3.193  0.00  0.00    +0.141 A 
ATOM     20  C   UNL     1       1.960  -1.353  -3.440  0.00  0.00    +0.110 A 
ATOM     21  C   UNL     1       2.619  -0.552  -2.510  0.00  0.00    +0.141 A 
ATOM     22  N   UNL     1       1.963  -0.142  -1.438  0.00  0.00    -0.238 NA
BRANCH  17  24
ATOM     23  C   UNL     1      -0.019   1.526   0.010  0.00  0.00    +0.019 C 
ATOM     24  C   UNL     1       0.002  -0.004   0.002  0.00  0.00    +0.022 C 
ATOM     25  C   UNL     1       0.742  -0.511   1.242  0.00  0.00    +0.019 C 
ATOM     26  C   UNL     1      -1.433  -0.534   0.013  0.00  0.00    +0.019 C 
ENDBRANCH  17  24
ENDBRANCH  16  20
ENDBRANCH   1  16
TORSDOF 4
