REMARK  Name = ZINC37359275
REMARK  7 active torsions:
REMARK  status: ('A' for Active; 'I' for Inactive)
REMARK    1  A    between atoms: C_1  and  O_2
REMARK    2  A    between atoms: O_2  and  C_3
REMARK    3  A    between atoms: C_8  and  C_9
REMARK    4  A    between atoms: C_11  and  N_38
REMARK    5  A    between atoms: N_12  and  C_31
REMARK    6  A    between atoms: N_21  and  C_24
REMARK    7  A    between atoms: C_24  and  C_25
REMARK                            x       y       z     vdW  Elec       q    Type
REMARK                         _______ _______ _______ _____ _____    ______ ____
ROOT
ATOM      1  C   UNL     1      -0.199  -2.877   0.208  0.00  0.00    +0.092 A 
ATOM      2  C   UNL     1       0.083  -4.258   0.101  0.00  0.00    +0.086 A 
ATOM      3  C   UNL     1       0.822  -5.182   0.828  0.00  0.00    +0.131 A 
ATOM      4  N   UNL     1       0.703  -6.374   0.210  0.00  0.00    -0.216 N 
ATOM      5  N   UNL     1      -0.110  -6.244  -0.922  0.00  0.00    -0.144 NA
ATOM      6  C   UNL     1      -0.508  -4.995  -1.031  0.00  0.00    +0.189 A 
ATOM      7  N   UNL     1      -1.280  -4.308  -1.895  0.00  0.00    -0.193 NA
ATOM      8  C   UNL     1      -1.492  -3.020  -1.720  0.00  0.00    +0.220 A 
ATOM      9  N   UNL     1      -0.981  -2.322  -0.710  0.00  0.00    -0.213 NA
ATOM     10  N   UNL     1      -2.292  -2.358  -2.634  0.00  0.00    -0.297 N 
ATOM     11  C   UNL     1      -2.561  -0.918  -2.497  0.00  0.00    +0.123 C 
ATOM     12  C   UNL     1      -4.076  -0.698  -2.573  0.00  0.00    +0.103 C 
ATOM     13  N   UNL     1      -4.597  -1.314  -3.800  0.00  0.00    -0.295 NA
ATOM     14  C   UNL     1      -4.397  -2.769  -3.793  0.00  0.00    +0.103 C 
ATOM     15  C   UNL     1      -2.890  -3.074  -3.771  0.00  0.00    +0.123 C 
ENDROOT
BRANCH   4  16
ATOM     16  C   UNL     1       1.304  -7.564   0.636  0.00  0.00    +0.070 A 
ATOM     17  C   UNL     1       2.558  -7.537   1.232  0.00  0.00    +0.028 A 
ATOM     18  C   UNL     1       3.149  -8.712   1.652  0.00  0.00    +0.005 A 
ATOM     19  C   UNL     1       2.494  -9.917   1.480  0.00  0.00    +0.038 A 
ATOM     20  C   UNL     1       1.243  -9.950   0.885  0.00  0.00    +0.125 A 
ATOM     21  C   UNL     1       0.644  -8.775   0.468  0.00  0.00    +0.066 A 
ATOM     22  F   UNL     1       0.606 -11.129   0.717  0.00  0.00    -0.205 F 
ENDBRANCH   4  16
BRANCH   1  28
ATOM     23  C   UNL     1      -0.497  -1.375   2.179  0.00  0.00    +0.129 A 
ATOM     24  C   UNL     1       0.035  -0.629   3.219  0.00  0.00    +0.046 A 
ATOM     25  C   UNL     1       1.403  -0.571   3.400  0.00  0.00    +0.004 A 
ATOM     26  C   UNL     1       2.252  -1.256   2.546  0.00  0.00    +0.001 A 
ATOM     27  C   UNL     1       1.739  -2.002   1.507  0.00  0.00    +0.013 A 
ATOM     28  C   UNL     1       0.358  -2.073   1.317  0.00  0.00    +0.043 A 
BRANCH  23  30
ATOM     29  C   UNL     1      -2.650  -0.695   2.918  0.00  0.00    +0.277 C 
ATOM     30  O   UNL     1      -1.841  -1.433   2.000  0.00  0.00    -0.494 OA
ENDBRANCH  23  30
ENDBRANCH   1  28
BRANCH   3  31
ATOM     31  N   UNL     1       1.548  -4.926   1.976  0.00  0.00    -0.342 N 
ATOM     32  H   UNL     1       1.599  -4.023   2.326  0.00  0.00    +0.144 HD
ATOM     33  H   UNL     1       2.006  -5.650   2.432  0.00  0.00    +0.144 HD
ENDBRANCH   3  31
BRANCH  13  34
ATOM     34  C   UNL     1      -6.013  -0.978  -3.998  0.00  0.00    +0.119 C 
BRANCH  34  35
ATOM     35  C   UNL     1      -6.446  -1.415  -5.374  0.00  0.00    -0.033 A 
ATOM     36  C   UNL     1      -6.325  -0.548  -6.444  0.00  0.00    +0.005 A 
ATOM     37  C   UNL     1      -6.721  -0.948  -7.706  0.00  0.00    +0.000 A 
ATOM     38  C   UNL     1      -7.239  -2.215  -7.899  0.00  0.00    +0.000 A 
ATOM     39  C   UNL     1      -7.359  -3.083  -6.829  0.00  0.00    +0.000 A 
ATOM     40  C   UNL     1      -6.958  -2.684  -5.567  0.00  0.00    +0.005 A 
ENDBRANCH  34  35
ENDBRANCH  13  34
TORSDOF 6
