REMARK  Name = ZINC17396144
REMARK  11 active torsions:
REMARK  status: ('A' for Active; 'I' for Inactive)
REMARK    1  A    between atoms: C_1  and  C_2
REMARK    2  A    between atoms: C_7  and  O_8
REMARK    3  A    between atoms: O_8  and  C_9
REMARK    4  A    between atoms: C_9  and  C_10
REMARK    5  A    between atoms: C_10  and  C_11
REMARK    6  A    between atoms: C_11  and  C_12
REMARK    7  A    between atoms: N_14  and  N_15
REMARK    8  A    between atoms: C_16  and  C_18
REMARK    9  A    between atoms: C_18  and  C_19
REMARK   10  A    between atoms: C_20  and  C_30
REMARK   11  A    between atoms: C_27  and  C_28
REMARK                            x       y       z     vdW  Elec       q    Type
REMARK                         _______ _______ _______ _____ _____    ______ ____
ROOT
ATOM      1  N   UNL     1       3.018   7.961   0.016  0.00  0.00    -0.234 N 
ATOM      2  C   UNL     1       4.076   8.796   0.010  0.00  0.00    +0.234 C 
ATOM      3  O   UNL     1       5.202   8.348  -0.003  0.00  0.00    -0.274 OA
ATOM      4  H   UNL     1       2.117   8.319   0.026  0.00  0.00    +0.173 HD
ENDROOT
BRANCH   1   7
ATOM      5  C   UNL     1       2.163   5.739   0.012  0.00  0.00    +0.229 C 
ATOM      6  O   UNL     1       1.036   6.187   0.025  0.00  0.00    -0.274 OA
ATOM      7  N   UNL     1       3.220   6.575   0.007  0.00  0.00    -0.234 N 
ATOM      8  H   UNL     1       4.122   6.216  -0.004  0.00  0.00    +0.173 HD
BRANCH   5   9
ATOM      9  C   UNL     1       2.381   4.248   0.002  0.00  0.00    +0.100 C 
BRANCH   9  10
ATOM     10  C   UNL     1       1.027   3.535   0.011  0.00  0.00    +0.050 C 
BRANCH  10  11
ATOM     11  C   UNL     1       1.248   2.021   0.001  0.00  0.00    +0.229 C 
BRANCH  11  12
ATOM     12  O   UNL     1      -0.016   1.355   0.009  0.00  0.00    -0.492 OA
BRANCH  12  19
ATOM     13  C   UNL     1      -2.505   0.019   0.038  0.00  0.00    +0.047 C 
ATOM     14  C   UNL     1      -1.189  -0.715   0.015  0.00  0.00    -0.007 A 
ATOM     15  C   UNL     1      -1.168  -2.096   0.003  0.00  0.00    +0.027 A 
ATOM     16  C   UNL     1       0.040  -2.771  -0.012  0.00  0.00    +0.041 A 
ATOM     17  C   UNL     1       1.229  -2.063  -0.020  0.00  0.00    +0.023 A 
ATOM     18  C   UNL     1       1.212  -0.682  -0.013  0.00  0.00    +0.047 A 
ATOM     19  C   UNL     1       0.002  -0.004   0.002  0.00  0.00    +0.123 A 
ATOM     20 CL   UNL     1       0.063  -4.506  -0.021  0.00  0.00    -0.084 Cl
ENDBRANCH  12  19
ENDBRANCH  11  12
ENDBRANCH  10  11
ENDBRANCH   9  10
ENDBRANCH   5   9
ENDBRANCH   1   7
BRANCH   2  21
ATOM     21  C   UNL     1       3.858  10.288   0.021  0.00  0.00    +0.136 C 
BRANCH  21  22
ATOM     22  C   UNL     1       5.191  10.990   0.011  0.00  0.00    +0.004 A 
ATOM     23  C   UNL     1       5.826  11.319   1.214  0.00  0.00    +0.047 A 
ATOM     24  N   UNL     1       6.992  11.925   1.204  0.00  0.00    -0.216 NA
ATOM     25  C   UNL     1       7.586  12.251   0.051  0.00  0.00    +0.255 A 
ATOM     26  N   UNL     1       8.736  12.859  -0.224  0.00  0.00    -0.176 NA
ATOM     27  C   UNL     1       8.889  12.954  -1.542  0.00  0.00    +0.234 A 
ATOM     28  N   UNL     1       7.850  12.413  -2.145  0.00  0.00    -0.128 NA
ATOM     29  N   UNL     1       6.990  11.949  -1.141  0.00  0.00    -0.199 N 
ATOM     30  C   UNL     1       5.788  11.316  -1.165  0.00  0.00    +0.049 A 
ATOM     31  C   UNL     1       5.126  10.982  -2.476  0.00  0.00    +0.066 C 
ATOM     32  N   UNL     1       9.979  13.535  -2.185  0.00  0.00    -0.326 N 
ATOM     33  C   UNL     1       5.174  10.968   2.527  0.00  0.00    +0.066 C 
ATOM     34  H   UNL     1      10.013  13.562  -3.154  0.00  0.00    +0.145 HD
ATOM     35  H   UNL     1      10.705  13.912  -1.664  0.00  0.00    +0.145 HD
ENDBRANCH  21  22
ENDBRANCH   2  21
TORSDOF 8
