REMARK  Name = ZINC39451277
REMARK  3 active torsions:
REMARK  status: ('A' for Active; 'I' for Inactive)
REMARK    1  A    between atoms: C_1  and  S_2
REMARK    2  A    between atoms: S_2  and  N_3
REMARK    3  A    between atoms: C_11  and  O_14
REMARK                            x       y       z     vdW  Elec       q    Type
REMARK                         _______ _______ _______ _____ _____    ______ ____
ROOT
ATOM      1  N   UNL     1       0.797  -0.386  -1.399  0.00  0.00    -0.245 N 
ATOM      2  C   UNL     1       0.062  -0.547  -2.567  0.00  0.00    +0.122 A 
ATOM      3  C   UNL     1       0.683  -0.871  -3.760  0.00  0.00    +0.083 A 
ATOM      4  C   UNL     1       2.142  -1.040  -3.800  0.00  0.00    +0.099 A 
ATOM      5  C   UNL     1       2.866  -0.869  -2.599  0.00  0.00    +0.071 A 
ATOM      6  C   UNL     1       2.135  -0.526  -1.371  0.00  0.00    +0.271 A 
ATOM      7  O   UNL     1       2.741  -0.371  -0.326  0.00  0.00    -0.266 OA
ATOM      8  C   UNL     1       4.251  -1.025  -2.610  0.00  0.00    +0.062 A 
ATOM      9  C   UNL     1       4.861  -1.345  -3.817  0.00  0.00    +0.136 A 
ATOM     10  C   UNL     1       4.080  -1.497  -4.961  0.00  0.00    +0.156 A 
ATOM     11  N   UNL     1       2.774  -1.345  -4.926  0.00  0.00    -0.249 NA
ATOM     12  N   UNL     1      -0.070  -1.040  -4.905  0.00  0.00    -0.328 N 
ATOM     13  C   UNL     1      -1.475  -1.453  -4.761  0.00  0.00    +0.146 C 
ATOM     14  C   UNL     1      -2.161  -0.487  -3.788  0.00  0.00    +0.115 C 
ATOM     15  C   UNL     1      -1.340  -0.379  -2.530  0.00  0.00    +0.185 C 
ATOM     16  O   UNL     1      -1.890  -0.145  -1.472  0.00  0.00    -0.290 OA
ATOM     17 BR   UNL     1      -1.559  -3.283  -4.049  0.00  0.00    -0.067 Br
ATOM     18  H   UNL     1       0.317  -0.891  -5.782  0.00  0.00    +0.147 HD
ENDROOT
BRANCH   1  20
ATOM     19  C   UNL     1      -0.022   1.810   0.012  0.00  0.00    +0.110 C 
ATOM     20  S   UNL     1       0.002  -0.004   0.002  0.00  0.00    -0.044 S 
ENDBRANCH   1  20
BRANCH   9  21
ATOM     21  O   UNL     1       6.208  -1.507  -3.882  0.00  0.00    -0.505 OA
ATOM     22  H   UNL     1       6.503  -2.414  -3.721  0.00  0.00    +0.292 HD
ENDBRANCH   9  21
TORSDOF 2
