REMARK  Name = ZINC26530783
REMARK  13 active torsions:
REMARK  status: ('A' for Active; 'I' for Inactive)
REMARK    1  A    between atoms: C_1  and  C_2
REMARK    2  A    between atoms: C_6  and  O_9
REMARK    3  A    between atoms: C_7  and  C_8
REMARK    4  A    between atoms: O_9  and  C_10
REMARK    5  A    between atoms: C_10  and  C_12
REMARK    6  A    between atoms: C_10  and  C_13
REMARK    7  A    between atoms: N_15  and  N_16
REMARK    8  A    between atoms: C_17  and  C_19
REMARK    9  A    between atoms: C_19  and  C_21
REMARK   10  A    between atoms: C_19  and  N_24
REMARK   11  A    between atoms: C_21  and  C_22
REMARK   12  A    between atoms: C_21  and  C_23
REMARK   13  A    between atoms: C_25  and  C_27
REMARK                            x       y       z     vdW  Elec       q    Type
REMARK                         _______ _______ _______ _____ _____    ______ ____
ROOT
ATOM      1  N   UNL     1      -2.709   2.336   1.624  0.00  0.00    -0.233 N 
ATOM      2  C   UNL     1      -3.848   1.686   1.935  0.00  0.00    +0.250 C 
ATOM      3  O   UNL     1      -4.146   0.668   1.345  0.00  0.00    -0.272 OA
ATOM      4  H   UNL     1      -2.400   3.214   2.210  0.00  0.00    +0.173 HD
ENDROOT
BRANCH   1   7
ATOM      5  C   UNL     1      -0.781   2.543   0.244  0.00  0.00    +0.270 C 
ATOM      6  O   UNL     1      -0.439   3.511   0.890  0.00  0.00    -0.270 OA
ATOM      7  N   UNL     1      -1.920   1.893   0.555  0.00  0.00    -0.231 N 
ATOM      8  H   UNL     1      -2.229   1.015  -0.031  0.00  0.00    +0.173 HD
BRANCH   5   9
ATOM      9  C   UNL     1       0.069   2.067  -0.906  0.00  0.00    +0.257 C 
ATOM     10  C   UNL     1      -0.706   2.232  -2.215  0.00  0.00    +0.062 C 
BRANCH   9  11
ATOM     11  O   UNL     1       1.270   2.838  -0.963  0.00  0.00    -0.480 OA
BRANCH  11  17
ATOM     12  C   UNL     1       6.006   3.010  -2.129  0.00  0.00    +0.044 C 
ATOM     13  C   UNL     1       4.670   2.314  -2.147  0.00  0.00    -0.044 A 
ATOM     14  C   UNL     1       4.538   1.087  -2.772  0.00  0.00    +0.004 A 
ATOM     15  C   UNL     1       3.313   0.447  -2.791  0.00  0.00    +0.004 A 
ATOM     16  C   UNL     1       2.219   1.028  -2.181  0.00  0.00    +0.046 A 
ATOM     17  C   UNL     1       2.347   2.261  -1.559  0.00  0.00    +0.125 A 
ATOM     18  C   UNL     1       3.577   2.902  -1.541  0.00  0.00    -0.006 A 
ATOM     19  C   UNL     1       3.721   4.240  -0.861  0.00  0.00    +0.048 C 
ENDBRANCH  11  17
ENDBRANCH   9  11
ENDBRANCH   5   9
ENDBRANCH   1   7
BRANCH   2  20
ATOM     20  C   UNL     1      -4.752   2.223   3.015  0.00  0.00    +0.163 C 
BRANCH  20  21
ATOM     21  N   UNL     1      -6.132   1.810   2.747  0.00  0.00    -0.300 N 
ATOM     22  C   UNL     1      -7.159   2.536   3.232  0.00  0.00    +0.250 C 
ATOM     23  O   UNL     1      -6.939   3.534   3.892  0.00  0.00    -0.270 OA
ATOM     24  H   UNL     1      -6.330   0.908   2.150  0.00  0.00    +0.150 HD
BRANCH  22  25
ATOM     25  C   UNL     1      -8.548   2.120   2.963  0.00  0.00    +0.107 A 
ATOM     26  C   UNL     1      -9.205   1.250   3.840  0.00  0.00    +0.138 A 
ATOM     27  C   UNL     1     -10.508   0.870   3.582  0.00  0.00    +0.039 A 
ATOM     28  C   UNL     1     -11.160   1.339   2.456  0.00  0.00    +0.006 A 
ATOM     29  C   UNL     1     -10.517   2.195   1.581  0.00  0.00    +0.039 A 
ATOM     30  C   UNL     1      -9.215   2.590   1.826  0.00  0.00    +0.138 A 
ATOM     31  F   UNL     1      -8.588   3.426   0.970  0.00  0.00    -0.205 F 
ATOM     32  F   UNL     1      -8.568   0.786   4.937  0.00  0.00    -0.205 F 
ENDBRANCH  22  25
ENDBRANCH  20  21
BRANCH  20  33
ATOM     33  C   UNL     1      -4.309   1.672   4.371  0.00  0.00    +0.012 C 
ATOM     34  C   UNL     1      -4.318   0.143   4.329  0.00  0.00    +0.009 C 
ATOM     35  C   UNL     1      -2.894   2.165   4.685  0.00  0.00    +0.009 C 
ENDBRANCH  20  33
ENDBRANCH   2  20
TORSDOF 8
