REMARK  Name = ZINC09058622
REMARK  8 active torsions:
REMARK  status: ('A' for Active; 'I' for Inactive)
REMARK    1  A    between atoms: C_1  and  C_2
REMARK    2  A    between atoms: C_5  and  C_11
REMARK    3  A    between atoms: C_7  and  N_8
REMARK    4  A    between atoms: C_14  and  C_16
REMARK    5  A    between atoms: N_20  and  C_24
REMARK    6  A    between atoms: C_24  and  C_25
REMARK    7  A    between atoms: C_25  and  C_26
REMARK    8  A    between atoms: C_26  and  C_27
REMARK                            x       y       z     vdW  Elec       q    Type
REMARK                         _______ _______ _______ _____ _____    ______ ____
ROOT
ATOM      1  C   UNL     1       2.344   3.575  -0.089  0.00  0.00    +0.136 A 
ATOM      2  C   UNL     1       2.966   2.326   0.116  0.00  0.00    +0.050 A 
ATOM      3  C   UNL     1       2.009   1.365  -0.004  0.00  0.00    +0.050 A 
ATOM      4  C   UNL     1       0.757   2.068  -0.303  0.00  0.00    +0.130 A 
ATOM      5  O   UNL     1       1.036   3.390  -0.335  0.00  0.00    -0.455 OA
ENDROOT
BRANCH   4   6
ATOM      6  C   UNL     1      -0.483   1.485  -0.508  0.00  0.00    +0.066 C 
ATOM      7  C   UNL     1      -1.601   2.289  -0.787  0.00  0.00    +0.080 C 
ATOM      8  C   UNL     1      -3.015   1.886  -1.045  0.00  0.00    +0.258 C 
ATOM      9  O   UNL     1      -3.362   0.723  -1.038  0.00  0.00    -0.269 OA
ATOM     10  N   UNL     1      -3.867   2.870  -1.283  0.00  0.00    -0.255 N 
ATOM     11  C   UNL     1      -3.445   4.150  -1.283  0.00  0.00    +0.121 C 
ATOM     12  S   UNL     1      -4.362   5.568  -1.563  0.00  0.00    -0.027 S 
ATOM     13  S   UNL     1      -1.704   4.018  -0.916  0.00  0.00    -0.061 S 
BRANCH  10  14
ATOM     14  C   UNL     1      -5.276   2.567  -1.547  0.00  0.00    +0.115 C 
BRANCH  14  15
ATOM     15  C   UNL     1      -6.051   2.556  -0.227  0.00  0.00    +0.031 C 
BRANCH  15  16
ATOM     16  C   UNL     1      -7.522   2.240  -0.503  0.00  0.00    +0.126 C 
BRANCH  16  17
ATOM     17  C   UNL     1      -8.286   2.228   0.796  0.00  0.00    +0.356 C 
ATOM     18  O   UNL     1      -7.712   2.450   1.836  0.00  0.00    -0.246 OA
ATOM     19  O   UNL     1      -9.603   1.971   0.799  0.00  0.00    -0.246 OA
ENDBRANCH  16  17
ENDBRANCH  15  16
ENDBRANCH  14  15
ENDBRANCH  10  14
ENDBRANCH   4   6
BRANCH   1  24
ATOM     20  C   UNL     1       4.992   8.667   0.098  0.00  0.00    +0.046 C 
ATOM     21  C   UNL     1       4.297   7.330   0.049  0.00  0.00    -0.020 A 
ATOM     22  C   UNL     1       5.022   6.169   0.268  0.00  0.00    +0.006 A 
ATOM     23  C   UNL     1       4.397   4.944   0.226  0.00  0.00    +0.012 A 
ATOM     24  C   UNL     1       3.019   4.872  -0.042  0.00  0.00    +0.019 A 
ATOM     25  C   UNL     1       2.294   6.055  -0.268  0.00  0.00    +0.044 A 
ATOM     26  C   UNL     1       2.938   7.271  -0.216  0.00  0.00    +0.130 A 
BRANCH  26  27
ATOM     27  N   UNL     1       2.176   8.519  -0.449  0.00  0.00    +0.057 N 
ATOM     28  O   UNL     1       0.866   8.477  -0.576  0.00  0.00    -0.126 OA
ATOM     29  O   UNL     1       2.809   9.671  -0.530  0.00  0.00    -0.126 OA
ENDBRANCH  26  27
ENDBRANCH   1  24
TORSDOF 7
