REMARK  Name = ZINC36310094
REMARK  16 active torsions:
REMARK  status: ('A' for Active; 'I' for Inactive)
REMARK    1  A    between atoms: C_1  and  O_2
REMARK    2  A    between atoms: O_2  and  C_3
REMARK    3  A    between atoms: C_6  and  O_9
REMARK    4  A    between atoms: O_9  and  C_10
REMARK    5  A    between atoms: C_10  and  C_11
REMARK    6  A    between atoms: C_21  and  C_23
REMARK    7  A    between atoms: C_23  and  N_24
REMARK    8  A    between atoms: N_24  and  C_25
REMARK    9  A    between atoms: N_24  and  C_28
REMARK   10  A    between atoms: C_25  and  C_26
REMARK   11  A    between atoms: C_28  and  C_29
REMARK   12  A    between atoms: C_29  and  C_31
REMARK   13  A    between atoms: C_29  and  O_36
REMARK   14  A    between atoms: C_31  and  O_32
REMARK   15  A    between atoms: O_32  and  C_33
REMARK   16  A    between atoms: C_33  and  C_34
REMARK                            x       y       z     vdW  Elec       q    Type
REMARK                         _______ _______ _______ _____ _____    ______ ____
ROOT
ATOM      1  C   UNL     1       3.324  -4.699   2.878  0.00  0.00    +0.144 C 
ATOM      2  C   UNL     1       2.129  -4.252   3.719  0.00  0.00    -0.014 A 
ATOM      3  C   UNL     1       0.848  -4.782   3.568  0.00  0.00    +0.013 A 
ATOM      4  C   UNL     1      -0.164  -4.335   4.346  0.00  0.00    +0.046 A 
ATOM      5  S   UNL     1       0.659  -3.114   5.357  0.00  0.00    -0.101 S 
ATOM      6  C   UNL     1       2.285  -3.292   4.671  0.00  0.00    -0.004 A 
ATOM      7  C   UNL     1       3.536  -2.567   5.047  0.00  0.00    +0.061 C 
ATOM      8  C   UNL     1       4.573  -2.762   3.930  0.00  0.00    +0.113 C 
ATOM      9  N   UNL     1       4.541  -4.171   3.509  0.00  0.00    -0.292 N 
ATOM     10  C   UNL     1       5.611  -4.968   3.702  0.00  0.00    +0.200 C 
ATOM     11  O   UNL     1       5.573  -6.129   3.353  0.00  0.00    -0.278 OA
ENDROOT
BRANCH   1  12
ATOM     12  C   UNL     1       3.194  -4.143   1.458  0.00  0.00    +0.256 C 
BRANCH  12  13
ATOM     13  O   UNL     1       3.022  -2.726   1.515  0.00  0.00    -0.490 OA
BRANCH  13  17
ATOM     14  C   UNL     1       2.625  -0.741  -2.083  0.00  0.00    +0.120 A 
ATOM     15  C   UNL     1       2.587  -0.031  -0.891  0.00  0.00    +0.049 A 
ATOM     16  C   UNL     1       2.720  -0.696   0.312  0.00  0.00    +0.049 A 
ATOM     17  C   UNL     1       2.890  -2.072   0.330  0.00  0.00    +0.121 A 
ATOM     18  C   UNL     1       2.927  -2.781  -0.861  0.00  0.00    +0.049 A 
ATOM     19  C   UNL     1       2.790  -2.118  -2.065  0.00  0.00    +0.049 A 
BRANCH  14  21
ATOM     20  C   UNL     1       2.328   1.332  -3.211  0.00  0.00    +0.277 C 
ATOM     21  O   UNL     1       2.494  -0.086  -3.268  0.00  0.00    -0.495 OA
ENDBRANCH  14  21
ENDBRANCH  13  17
ENDBRANCH  12  13
ENDBRANCH   1  12
BRANCH  10  22
ATOM     22  C   UNL     1       6.854  -4.416   4.350  0.00  0.00    +0.019 C 
BRANCH  22  23
ATOM     23  N   UNL     1       7.813  -5.506   4.577  0.00  0.00    +0.389 N 
ATOM     24  H   UNL     1       7.967  -6.004   3.713  0.00  0.00    -0.081 HD
BRANCH  23  25
ATOM     25  C   UNL     1       7.275  -6.429   5.586  0.00  0.00    -0.051 C 
BRANCH  25  26
ATOM     26  C   UNL     1       7.143  -5.711   6.904  0.00  0.00    -0.053 C 
ATOM     27  C   UNL     1       5.987  -5.678   7.519  0.00  0.00    +0.002 C 
ENDBRANCH  25  26
ENDBRANCH  23  25
BRANCH  23  28
ATOM     28  C   UNL     1       9.085  -4.947   5.053  0.00  0.00    -0.044 C 
BRANCH  28  29
ATOM     29  C   UNL     1      10.135  -6.058   5.125  0.00  0.00    +0.124 C 
BRANCH  29  30
ATOM     30  O   UNL     1       9.778  -6.986   6.150  0.00  0.00    -0.391 OA
ATOM     31  H   UNL     1       9.717  -6.594   7.032  0.00  0.00    +0.210 HD
ENDBRANCH  29  30
BRANCH  29  32
ATOM     32  C   UNL     1      11.502  -5.448   5.442  0.00  0.00    +0.189 C 
BRANCH  32  33
ATOM     33  O   UNL     1      12.501  -6.468   5.394  0.00  0.00    -0.373 OA
BRANCH  33  34
ATOM     34  C   UNL     1      13.822  -6.002   5.678  0.00  0.00    +0.186 C 
BRANCH  34  35
ATOM     35  C   UNL     1      14.790  -7.154   5.599  0.00  0.00    -0.007 C 
ATOM     36  C   UNL     1      15.929  -7.011   4.969  0.00  0.00    +0.006 C 
ENDBRANCH  34  35
ENDBRANCH  33  34
ENDBRANCH  32  33
ENDBRANCH  29  32
ENDBRANCH  28  29
ENDBRANCH  23  28
ENDBRANCH  22  23
ENDBRANCH  10  22
TORSDOF 15
