REMARK  Name = ZINC36288814
REMARK  7 active torsions:
REMARK  status: ('A' for Active; 'I' for Inactive)
REMARK    1  A    between atoms: C_1  and  C_2
REMARK    2  A    between atoms: C_5  and  N_9
REMARK    3  A    between atoms: C_7  and  N_8
REMARK    4  A    between atoms: N_9  and  S_10
REMARK    5  A    between atoms: S_10  and  N_13
REMARK    6  A    between atoms: C_15  and  C_22
REMARK    7  A    between atoms: C_18  and  C_21
REMARK                            x       y       z     vdW  Elec       q    Type
REMARK                         _______ _______ _______ _____ _____    ______ ____
ROOT
ATOM      1  N   UNL     1       0.058  -4.172  -0.027  0.00  0.00    -0.206 N 
ATOM      2  H   UNL     1      -0.526  -4.670   0.565  0.00  0.00    +0.175 HD
ENDROOT
BRANCH   1   7
ATOM      3  C   UNL     1      -0.018   1.503   0.010  0.00  0.00    +0.045 C 
ATOM      4  C   UNL     1       0.002  -0.004   0.002  0.00  0.00    -0.030 A 
ATOM      5  C   UNL     1       0.006  -0.688  -1.199  0.00  0.00    +0.007 A 
ATOM      6  C   UNL     1       0.024  -2.069  -1.211  0.00  0.00    +0.025 A 
ATOM      7  C   UNL     1       0.040  -2.776  -0.014  0.00  0.00    +0.051 A 
ATOM      8  C   UNL     1       0.036  -2.092   1.193  0.00  0.00    +0.047 A 
ATOM      9  C   UNL     1       0.023  -0.704   1.202  0.00  0.00    +0.029 A 
BRANCH   9  10
ATOM     10  N   UNL     1       0.025  -0.013   2.415  0.00  0.00    -0.358 N 
ATOM     11  H   UNL     1       0.013   0.957   2.421  0.00  0.00    +0.142 HD
ATOM     12  H   UNL     1       0.040  -0.502   3.253  0.00  0.00    +0.142 HD
ENDBRANCH   9  10
ENDBRANCH   1   7
BRANCH   1  13
ATOM     13  S   UNL     1       1.078  -4.977  -1.054  0.00  0.00    +0.112 S 
ATOM     14  O   UNL     1       0.884  -6.364  -0.814  0.00  0.00    -0.138 OA
ATOM     15  O   UNL     1       0.904  -4.394  -2.338  0.00  0.00    -0.138 OA
BRANCH  13  16
ATOM     16  N   UNL     1       2.626  -4.627  -0.581  0.00  0.00    -0.159 NA
ATOM     17  C   UNL     1       3.342  -3.465  -1.132  0.00  0.00    +0.142 C 
ATOM     18  C   UNL     1       3.915  -2.653   0.035  0.00  0.00    +0.131 C 
ATOM     19  O   UNL     1       4.670  -3.519   0.885  0.00  0.00    -0.371 OA
ATOM     20  C   UNL     1       3.900  -4.558   1.495  0.00  0.00    +0.131 C 
ATOM     21  C   UNL     1       3.324  -5.464   0.408  0.00  0.00    +0.142 C 
ATOM     22  C   UNL     1       2.756  -3.939   2.301  0.00  0.00    +0.039 C 
ATOM     23  C   UNL     1       4.825  -1.550  -0.510  0.00  0.00    +0.039 C 
ENDBRANCH  13  16
ENDBRANCH   1  13
TORSDOF 4
