REMARK  Name = ZINC11905284
REMARK  6 active torsions:
REMARK  status: ('A' for Active; 'I' for Inactive)
REMARK    1  A    between atoms: C_3  and  C_6
REMARK    2  A    between atoms: C_6  and  C_8
REMARK    3  A    between atoms: C_6  and  N_53
REMARK    4  A    between atoms: C_8  and  N_9
REMARK    5  A    between atoms: C_10  and  C_12
REMARK    6  A    between atoms: C_14  and  C_17
REMARK                            x       y       z     vdW  Elec       q    Type
REMARK                         _______ _______ _______ _____ _____    ______ ____
ROOT
ATOM      1  N   UNL     1       6.076  -0.370   1.132  0.00  0.00    -0.311 N 
ATOM      2  C   UNL     1       5.954   0.958   1.323  0.00  0.00    +0.266 C 
ATOM      3  O   UNL     1       5.439   1.650   0.468  0.00  0.00    -0.268 OA
ATOM      4  H   UNL     1       6.487  -0.923   1.815  0.00  0.00    +0.149 HD
ENDROOT
BRANCH   2   5
ATOM      5  C   UNL     1       6.448   1.575   2.578  0.00  0.00    +0.168 A 
ATOM      6  C   UNL     1       6.394   2.949   2.929  0.00  0.00    +0.086 A 
ATOM      7  C   UNL     1       6.973   2.993   4.167  0.00  0.00    +0.168 A 
ATOM      8  O   UNL     1       7.318   1.728   4.469  0.00  0.00    -0.354 OA
ATOM      9  N   UNL     1       7.022   0.960   3.583  0.00  0.00    -0.073 NA
BRANCH   7  10
ATOM     10  C   UNL     1       7.174   4.191   5.010  0.00  0.00    +0.020 A 
ATOM     11  C   UNL     1       6.764   5.445   4.554  0.00  0.00    +0.013 A 
ATOM     12  C   UNL     1       6.950   6.558   5.347  0.00  0.00    +0.016 A 
ATOM     13  C   UNL     1       7.551   6.435   6.588  0.00  0.00    +0.018 A 
ATOM     14  C   UNL     1       7.964   5.194   7.044  0.00  0.00    +0.016 A 
ATOM     15  C   UNL     1       7.779   4.073   6.262  0.00  0.00    +0.013 A 
ATOM     16 BR   UNL     1       7.809   7.968   7.665  0.00  0.00    -0.050 Br
ENDBRANCH   7  10
ENDBRANCH   2   5
BRANCH   1  17
ATOM     17  C   UNL     1       5.588  -0.980  -0.108  0.00  0.00    +0.094 C 
BRANCH  17  18
ATOM     18  C   UNL     1       5.966  -2.462  -0.131  0.00  0.00    -0.013 C 
BRANCH  18  25
ATOM     19  C   UNL     1       3.955  -2.785  -1.457  0.00  0.00    -0.078 C 
ATOM     20  C   UNL     1       3.271  -3.621  -2.504  0.00  0.00    -0.019 C 
ATOM     21  C   UNL     1       2.659  -4.861  -1.817  0.00  0.00    -0.002 C 
ATOM     22  C   UNL     1       3.658  -5.886  -1.538  0.00  0.00    -0.002 C 
ATOM     23  C   UNL     1       4.761  -5.380  -0.584  0.00  0.00    -0.019 C 
ATOM     24  C   UNL     1       5.725  -4.537  -1.373  0.00  0.00    -0.078 C 
ATOM     25  N   UNL     1       5.429  -3.064  -1.361  0.00  0.00    +0.386 N 
ATOM     26  H   UNL     1       5.893  -2.634  -2.170  0.00  0.00    -0.081 HD
ENDBRANCH  18  25
BRANCH  18  29
ATOM     27  C   UNL     1       9.672  -2.945   0.605  0.00  0.00    +0.008 A 
ATOM     28  C   UNL     1       8.318  -2.862   0.865  0.00  0.00    +0.009 A 
ATOM     29  C   UNL     1       7.467  -2.597  -0.156  0.00  0.00    -0.022 A 
ATOM     30  S   UNL     1       8.586  -2.442  -1.538  0.00  0.00    -0.103 S 
ATOM     31  C   UNL     1      10.111  -2.748  -0.662  0.00  0.00    +0.045 A 
ENDBRANCH  18  29
ENDBRANCH  17  18
ENDBRANCH   1  17
TORSDOF 6
