REMARK  Name = ZINC61342666
REMARK  6 active torsions:
REMARK  status: ('A' for Active; 'I' for Inactive)
REMARK    1  A    between atoms: C_1  and  N_2
REMARK    2  A    between atoms: C_10  and  C_12
REMARK    3  A    between atoms: C_13  and  C_14
REMARK    4  A    between atoms: N_16  and  N_17
REMARK    5  A    between atoms: C_18  and  C_20
REMARK    6  A    between atoms: C_20  and  C_21
REMARK                            x       y       z     vdW  Elec       q    Type
REMARK                         _______ _______ _______ _____ _____    ______ ____
ROOT
ATOM      1  C   UNL     1       7.286  -2.770  -0.995  0.00  0.00    +0.253 C 
ATOM      2  O   UNL     1       7.346  -3.963  -0.758  0.00  0.00    -0.269 OA
ATOM      3  N   UNL     1       8.393  -2.102  -1.373  0.00  0.00    -0.231 N 
ATOM      4  H   UNL     1       8.345  -1.151  -1.562  0.00  0.00    +0.173 HD
ENDROOT
BRANCH   3   5
ATOM      5  N   UNL     1       9.613  -2.779  -1.494  0.00  0.00    -0.234 N 
ATOM      6  C   UNL     1      10.721  -2.111  -1.872  0.00  0.00    +0.233 C 
ATOM      7  O   UNL     1      10.661  -0.922  -2.108  0.00  0.00    -0.274 OA
ATOM      8  H   UNL     1       9.661  -3.729  -1.305  0.00  0.00    +0.173 HD
BRANCH   6   9
ATOM      9  C   UNL     1      12.033  -2.839  -2.002  0.00  0.00    +0.134 C 
BRANCH   9  10
ATOM     10  C   UNL     1      13.104  -1.871  -2.436  0.00  0.00    -0.014 A 
ATOM     11  C   UNL     1      13.509  -1.640  -3.694  0.00  0.00    +0.087 A 
ATOM     12  N   UNL     1      14.500  -0.696  -3.699  0.00  0.00    -0.360 N 
ATOM     13  H   UNL     1      14.950  -0.364  -4.492  0.00  0.00    +0.165 HD
ATOM     14  C   UNL     1      14.764  -0.287  -2.411  0.00  0.00    +0.047 A 
ATOM     15  C   UNL     1      13.896  -1.001  -1.563  0.00  0.00    +0.003 A 
ATOM     16  C   UNL     1      13.936  -0.785  -0.185  0.00  0.00    +0.010 A 
ATOM     17  C   UNL     1      14.815   0.123   0.335  0.00  0.00    +0.001 A 
ATOM     18  C   UNL     1      15.670   0.833  -0.497  0.00  0.00    +0.002 A 
ATOM     19  C   UNL     1      15.654   0.628  -1.860  0.00  0.00    +0.026 A 
ENDBRANCH   9  10
ENDBRANCH   6   9
ENDBRANCH   3   5
BRANCH   1  21
ATOM     20  C   UNL     1       4.903  -2.733  -0.489  0.00  0.00    +0.013 C 
ATOM     21  C   UNL     1       6.012  -2.063  -0.868  0.00  0.00    +0.069 C 
BRANCH  20  31
ATOM     22  C   UNL     1      -0.018   1.461   0.010  0.00  0.00    +0.129 C 
ATOM     23  N   UNL     1       0.002  -0.004   0.002  0.00  0.00    -0.333 N 
ATOM     24  C   UNL     1      -1.248  -0.767   0.114  0.00  0.00    +0.105 C 
ATOM     25  C   UNL     1      -1.017  -1.901   1.122  0.00  0.00    +0.024 C 
ATOM     26  C   UNL     1       0.057  -2.839   0.571  0.00  0.00    +0.038 C 
ATOM     27  C   UNL     1       1.276  -2.057   0.155  0.00  0.00    -0.026 A 
ATOM     28  C   UNL     1       1.207  -0.695  -0.118  0.00  0.00    +0.033 A 
ATOM     29  C   UNL     1       2.348   0.004  -0.511  0.00  0.00    +0.024 A 
ATOM     30  C   UNL     1       3.551  -0.651  -0.634  0.00  0.00    +0.010 A 
ATOM     31  C   UNL     1       3.623  -2.023  -0.362  0.00  0.00    -0.025 A 
ATOM     32  C   UNL     1       2.472  -2.715   0.041  0.00  0.00    +0.013 A 
ENDBRANCH  20  31
ENDBRANCH   1  21
TORSDOF 5
