REMARK  Name = ZINC58108747
REMARK  5 active torsions:
REMARK  status: ('A' for Active; 'I' for Inactive)
REMARK    1  A    between atoms: C_1  and  C_2
REMARK    2  A    between atoms: C_2  and  C_22
REMARK    3  A    between atoms: C_5  and  C_13
REMARK    4  A    between atoms: C_13  and  C_15
REMARK    5  A    between atoms: C_13  and  N_21
REMARK                            x       y       z     vdW  Elec       q    Type
REMARK                         _______ _______ _______ _____ _____    ______ ____
ROOT
ATOM      1  C   UNL     1      -0.019   1.526   0.010  0.00  0.00    +0.025 C 
ATOM      2  C   UNL     1       0.002  -0.004   0.002  0.00  0.00    +0.068 C 
ATOM      3  C   UNL     1      -1.402  -0.553   0.108  0.00  0.00    -0.009 A 
ATOM      4  C   UNL     1      -2.515  -0.439  -0.694  0.00  0.00    +0.009 A 
ATOM      5  C   UNL     1      -3.694  -1.068  -0.335  0.00  0.00    -0.055 A 
ATOM      6  C   UNL     1      -3.750  -1.811   0.830  0.00  0.00    +0.042 A 
ATOM      7  C   UNL     1      -2.636  -1.928   1.637  0.00  0.00    +0.145 A 
ATOM      8  C   UNL     1      -1.444  -1.295   1.281  0.00  0.00    +0.073 A 
ATOM      9  N   UNL     1      -0.201  -1.263   1.917  0.00  0.00    -0.282 N 
ATOM     10  C   UNL     1       0.699  -0.532   1.238  0.00  0.00    +0.227 C 
ATOM     11  O   UNL     1       1.852  -0.332   1.556  0.00  0.00    -0.275 OA
ATOM     12  F   UNL     1      -2.699  -2.655   2.774  0.00  0.00    -0.204 F 
ATOM     13  C   UNL     1       0.689  -0.522  -1.263  0.00  0.00    +0.025 C 
ATOM     14  H   UNL     1      -0.010  -1.716   2.753  0.00  0.00    +0.155 HD
ENDROOT
BRANCH   5  15
ATOM     15  C   UNL     1      -4.914  -0.944  -1.211  0.00  0.00    -0.013 C 
BRANCH  15  16
ATOM     16  C   UNL     1      -5.055  -2.184  -2.054  0.00  0.00    -0.058 A 
ATOM     17  C   UNL     1      -5.609  -3.329  -1.513  0.00  0.00    +0.002 A 
ATOM     18  C   UNL     1      -5.739  -4.467  -2.287  0.00  0.00    +0.000 A 
ATOM     19  C   UNL     1      -5.314  -4.461  -3.602  0.00  0.00    +0.000 A 
ATOM     20  C   UNL     1      -4.761  -3.316  -4.144  0.00  0.00    +0.000 A 
ATOM     21  C   UNL     1      -4.635  -2.176  -3.372  0.00  0.00    +0.002 A 
ENDBRANCH  15  16
BRANCH  15  22
ATOM     22  N   UNL     1      -6.107  -0.786  -0.369  0.00  0.00    +0.385 N 
ATOM     23  H   UNL     1      -6.924  -0.703  -0.956  0.00  0.00    -0.089 HD
ATOM     24  H   UNL     1      -6.205  -1.591   0.231  0.00  0.00    -0.089 HD
ATOM     25  H   UNL     1      -6.013   0.045   0.196  0.00  0.00    -0.089 HD
ENDBRANCH  15  22
ENDBRANCH   5  15
TORSDOF 3
