REMARK  Name = ZINC06132450
REMARK  7 active torsions:
REMARK  status: ('A' for Active; 'I' for Inactive)
REMARK    1  A    between atoms: C_3  and  S_6
REMARK    2  A    between atoms: S_6  and  N_9
REMARK    3  A    between atoms: N_9  and  C_10
REMARK    4  A    between atoms: C_13  and  C_16
REMARK    5  A    between atoms: N_18  and  N_19
REMARK    6  A    between atoms: C_20  and  C_21
REMARK    7  A    between atoms: C_25  and  N_27
REMARK                            x       y       z     vdW  Elec       q    Type
REMARK                         _______ _______ _______ _____ _____    ______ ____
ROOT
ATOM      1  C   UNL     1       1.656   3.539  -0.135  0.00  0.00    +0.263 C 
ATOM      2  O   UNL     1       0.652   4.225  -0.097  0.00  0.00    -0.268 OA
ATOM      3  N   UNL     1       2.869   4.122  -0.205  0.00  0.00    -0.203 N 
ATOM      4  H   UNL     1       3.669   3.575  -0.236  0.00  0.00    +0.178 HD
ENDROOT
BRANCH   1   8
ATOM      5  C   UNL     1       1.339  -0.695  -0.047  0.00  0.00    +0.048 A 
ATOM      6  C   UNL     1       0.189   0.089  -0.003  0.00  0.00    +0.025 A 
ATOM      7  C   UNL     1       0.288   1.462  -0.031  0.00  0.00    +0.015 A 
ATOM      8  C   UNL     1       1.546   2.068  -0.104  0.00  0.00    +0.038 A 
ATOM      9  C   UNL     1       2.698   1.278  -0.148  0.00  0.00    +0.015 A 
ATOM     10  C   UNL     1       2.592  -0.093  -0.120  0.00  0.00    +0.025 A 
BRANCH   5  11
ATOM     11  N   UNL     1       1.235  -2.081  -0.018  0.00  0.00    -0.216 N 
ATOM     12  H   UNL     1       1.454  -2.567   0.792  0.00  0.00    +0.174 HD
BRANCH  11  13
ATOM     13  S   UNL     1       0.737  -2.902  -1.367  0.00  0.00    +0.079 S 
ATOM     14  O   UNL     1       0.778  -4.284  -1.040  0.00  0.00    -0.149 OA
ATOM     15  O   UNL     1      -0.448  -2.261  -1.819  0.00  0.00    -0.149 OA
BRANCH  13  18
ATOM     16  C   UNL     1       3.850  -3.016  -3.970  0.00  0.00    +0.010 A 
ATOM     17  C   UNL     1       3.016  -3.421  -2.944  0.00  0.00    +0.036 A 
ATOM     18  C   UNL     1       1.956  -2.644  -2.614  0.00  0.00    +0.146 A 
ATOM     19  S   UNL     1       2.110  -1.296  -3.773  0.00  0.00    -0.077 S 
ATOM     20  C   UNL     1       3.583  -1.854  -4.614  0.00  0.00    +0.047 A 
ENDBRANCH  13  18
ENDBRANCH  11  13
ENDBRANCH   5  11
ENDBRANCH   1   8
BRANCH   3  21
ATOM     21  N   UNL     1       2.973   5.519  -0.234  0.00  0.00    -0.187 NA
ATOM     22  C   UNL     1       4.141   6.081  -0.302  0.00  0.00    +0.142 C 
BRANCH  22  23
ATOM     23  C   UNL     1       4.252   7.551  -0.333  0.00  0.00    +0.045 A 
ATOM     24  C   UNL     1       5.507   8.159  -0.406  0.00  0.00    +0.033 A 
ATOM     25  C   UNL     1       5.603   9.536  -0.435  0.00  0.00    +0.044 A 
ATOM     26  C   UNL     1       4.459  10.316  -0.392  0.00  0.00    +0.056 A 
ATOM     27  C   UNL     1       3.212   9.725  -0.320  0.00  0.00    +0.175 A 
ATOM     28  C   UNL     1       3.097   8.345  -0.295  0.00  0.00    +0.218 A 
ATOM     29 CL   UNL     1       7.162  10.292  -0.524  0.00  0.00    -0.083 Cl
ATOM     30  O   UNL     1       1.872   7.763  -0.230  0.00  0.00    -0.285 OA
BRANCH  27  31
ATOM     31  N   UNL     1       1.996  10.568  -0.275  0.00  0.00    +0.060 N 
ATOM     32  O   UNL     1       2.095  11.781  -0.301  0.00  0.00    -0.126 OA
ATOM     33  O   UNL     1       0.896  10.047  -0.211  0.00  0.00    -0.126 OA
ENDBRANCH  27  31
ENDBRANCH  22  23
ENDBRANCH   3  21
TORSDOF 7
