REMARK  Name = ZINC67003355
REMARK  12 active torsions:
REMARK  status: ('A' for Active; 'I' for Inactive)
REMARK    1  A    between atoms: C_1  and  C_2
REMARK    2  A    between atoms: C_2  and  C_4
REMARK    3  A    between atoms: C_2  and  N_21
REMARK    4  A    between atoms: C_4  and  O_6
REMARK    5  A    between atoms: O_6  and  C_7
REMARK    6  A    between atoms: C_10  and  N_13
REMARK    7  A    between atoms: C_14  and  O_16
REMARK    8  A    between atoms: O_16  and  C_17
REMARK    9  A    between atoms: C_17  and  C_18
REMARK   10  A    between atoms: C_17  and  C_19
REMARK   11  A    between atoms: C_17  and  C_20
REMARK   12  A    between atoms: C_22  and  C_24
REMARK                            x       y       z     vdW  Elec       q    Type
REMARK                         _______ _______ _______ _____ _____    ______ ____
ROOT
ATOM      1  O   UNL     1       2.014  -0.163   1.425  0.00  0.00    -0.460 OA
ENDROOT
BRANCH   1   2
ATOM      2  C   UNL     1       2.642  -0.672   2.603  0.00  0.00    +0.177 C 
ATOM      3  C   UNL     1       3.292  -2.021   2.292  0.00  0.00    +0.046 C 
ATOM      4  C   UNL     1       3.965  -2.566   3.553  0.00  0.00    +0.026 C 
ATOM      5  C   UNL     1       5.036  -1.581   4.026  0.00  0.00    +0.076 C 
ATOM      6  C   UNL     1       4.386  -0.232   4.337  0.00  0.00    +0.026 C 
ATOM      7  C   UNL     1       3.713   0.313   3.075  0.00  0.00    +0.046 C 
BRANCH   5   8
ATOM      8  N   UNL     1       5.681  -2.103   5.234  0.00  0.00    -0.278 N 
ATOM      9  C   UNL     1       6.933  -1.719   5.549  0.00  0.00    +0.401 C 
ATOM     10  O   UNL     1       7.528  -0.939   4.831  0.00  0.00    -0.226 OA
ATOM     11  H   UNL     1       5.206  -2.725   5.806  0.00  0.00    +0.152 HD
BRANCH   9  12
ATOM     12  O   UNL     1       7.525  -2.198   6.659  0.00  0.00    -0.445 OA
BRANCH  12  13
ATOM     13  C   UNL     1       8.854  -1.748   6.931  0.00  0.00    +0.107 C 
ATOM     14  C   UNL     1       8.854  -0.226   7.090  0.00  0.00    +0.055 C 
ATOM     15  C   UNL     1       9.357  -2.396   8.223  0.00  0.00    +0.055 C 
ATOM     16  C   UNL     1       9.773  -2.140   5.773  0.00  0.00    +0.055 C 
ENDBRANCH  12  13
ENDBRANCH   9  12
ENDBRANCH   5   8
ENDBRANCH   1   2
BRANCH   1  17
ATOM     17  C   UNL     1       0.731  -0.503   1.223  0.00  0.00    +0.328 C 
ATOM     18  O   UNL     1       0.161  -1.210   2.020  0.00  0.00    -0.249 OA
BRANCH  17  20
ATOM     19  C   UNL     1      -0.019   1.526   0.010  0.00  0.00    +0.040 C 
ATOM     20  C   UNL     1       0.002  -0.004   0.002  0.00  0.00    +0.179 C 
BRANCH  20  21
ATOM     21  N   UNL     1      -1.372  -0.511   0.012  0.00  0.00    -0.302 N 
ATOM     22  C   UNL     1      -2.051  -0.643  -1.145  0.00  0.00    +0.217 C 
ATOM     23  O   UNL     1      -1.524  -0.341  -2.194  0.00  0.00    -0.275 OA
ATOM     24  H   UNL     1      -1.794  -0.752   0.852  0.00  0.00    +0.150 HD
BRANCH  22  25
ATOM     25  C   UNL     1      -3.465  -1.164  -1.134  0.00  0.00    +0.079 C 
ATOM     26  C   UNL     1      -3.485  -2.577  -0.541  0.00  0.00    +0.041 C 
ATOM     27  C   UNL     1      -4.912  -3.128  -0.607  0.00  0.00    +0.160 C 
ATOM     28  O   UNL     1      -5.362  -3.120  -1.963  0.00  0.00    -0.380 OA
ATOM     29  C   UNL     1      -5.409  -1.820  -2.555  0.00  0.00    +0.160 C 
ATOM     30  C   UNL     1      -4.003  -1.216  -2.567  0.00  0.00    +0.041 C 
ENDBRANCH  22  25
ENDBRANCH  20  21
ENDBRANCH  17  20
ENDBRANCH   1  17
TORSDOF 8
