REMARK  Name = ZINC39273393
REMARK  6 active torsions:
REMARK  status: ('A' for Active; 'I' for Inactive)
REMARK    1  A    between atoms: C_1  and  C_2
REMARK    2  A    between atoms: C_2  and  O_3
REMARK    3  A    between atoms: O_3  and  C_4
REMARK    4  A    between atoms: C_4  and  C_6
REMARK    5  A    between atoms: C_14  and  N_16
REMARK    6  A    between atoms: C_17  and  C_18
REMARK                            x       y       z     vdW  Elec       q    Type
REMARK                         _______ _______ _______ _____ _____    ______ ____
ROOT
ATOM      1  C   UNL     1      -2.847  -2.417   0.016  0.00  0.00    +0.071 C 
ATOM      2  C   UNL     1      -3.015  -3.726   0.016  0.00  0.00    -0.044 C 
ATOM      3  C   UNL     1      -2.202  -5.000  -0.208  0.00  0.00    +0.032 C 
ATOM      4  C   UNL     1      -3.206  -6.110  -0.591  0.00  0.00    +0.006 C 
ATOM      5  C   UNL     1      -4.511  -5.337  -0.942  0.00  0.00    +0.019 C 
ATOM      6  C   UNL     1      -4.460  -4.226   0.121  0.00  0.00    +0.075 C 
ATOM      7  S   UNL     1      -5.394  -2.739  -0.403  0.00  0.00    -0.122 S 
ATOM      8  C   UNL     1      -4.072  -1.522   0.033  0.00  0.00    +0.199 C 
ENDROOT
BRANCH   1   9
ATOM      9  C   UNL     1      -1.497  -1.837   0.006  0.00  0.00    +0.338 C 
ATOM     10  O   UNL     1      -0.523  -2.564  -0.007  0.00  0.00    -0.245 OA
BRANCH   9  11
ATOM     11  O   UNL     1      -1.339  -0.499   0.012  0.00  0.00    -0.462 OA
BRANCH  11  13
ATOM     12  C   UNL     1      -0.019   1.526   0.010  0.00  0.00    +0.048 C 
ATOM     13  C   UNL     1       0.002  -0.004   0.002  0.00  0.00    +0.229 C 
ENDBRANCH  11  13
ENDBRANCH   9  11
ENDBRANCH   1   9
BRANCH   8  14
ATOM     14  N   UNL     1      -4.292  -0.953   1.365  0.00  0.00    -0.274 NA
ATOM     15  C   UNL     1      -4.288   0.316   1.528  0.00  0.00    +0.109 C 
BRANCH  15  16
ATOM     16  C   UNL     1      -4.515   0.901   2.898  0.00  0.00    +0.163 C 
ATOM     17  C   UNL     1      -5.775   1.738   2.905  0.00  0.00    +0.055 C 
ATOM     18  C   UNL     1      -5.386   2.997   3.229  0.00  0.00    +0.015 A 
ATOM     19  C   UNL     1      -6.126   4.252   3.397  0.00  0.00    +0.011 A 
ATOM     20  C   UNL     1      -5.447   5.375   3.731  0.00  0.00    +0.001 A 
ATOM     21  C   UNL     1      -4.060   5.367   3.919  0.00  0.00    +0.002 A 
ATOM     22  C   UNL     1      -3.312   4.250   3.782  0.00  0.00    +0.026 A 
ATOM     23  C   UNL     1      -3.922   3.015   3.433  0.00  0.00    +0.044 A 
ATOM     24  N   UNL     1      -3.421   1.815   3.245  0.00  0.00    -0.372 N 
ATOM     25 CL   UNL     1      -7.389   1.197   2.568  0.00  0.00    -0.085 Cl
ATOM     26  H   UNL     1      -2.485   1.573   3.321  0.00  0.00    +0.161 HD
ENDBRANCH  15  16
ENDBRANCH   8  14
TORSDOF 5
