REMARK  Name = ZINC21315874
REMARK  7 active torsions:
REMARK  status: ('A' for Active; 'I' for Inactive)
REMARK    1  A    between atoms: C_6  and  C_7
REMARK    2  A    between atoms: N_8  and  N_9
REMARK    3  A    between atoms: C_13  and  S_16
REMARK    4  A    between atoms: N_14  and  N_15
REMARK    5  A    between atoms: S_16  and  C_17
REMARK    6  A    between atoms: C_17  and  C_18
REMARK    7  A    between atoms: C_18  and  C_20
REMARK                            x       y       z     vdW  Elec       q    Type
REMARK                         _______ _______ _______ _____ _____    ______ ____
ROOT
ATOM      1  N   UNL     1      -2.939   1.589   0.046  0.00  0.00    -0.204 N 
ATOM      2  C   UNL     1      -2.081   1.760  -1.031  0.00  0.00    +0.254 A 
ATOM      3  N   UNL     1      -2.412   2.209  -2.217  0.00  0.00    -0.109 NA
ATOM      4  N   UNL     1      -1.258   2.229  -3.011  0.00  0.00    -0.119 NA
ATOM      5  C   UNL     1      -0.257   1.797  -2.281  0.00  0.00    +0.210 A 
ATOM      6  N   UNL     1      -0.741   1.490  -1.041  0.00  0.00    -0.211 N 
ATOM      7  H   UNL     1      -2.554   1.204   1.001  0.00  0.00    +0.177 HD
ENDROOT
BRANCH   6   8
ATOM      8  N   UNL     1      -0.012   1.005   0.008  0.00  0.00    -0.294 N 
ATOM      9  H   UNL     1       1.067   0.823  -0.110  0.00  0.00    +0.163 HD
ATOM     10  H   UNL     1      -0.503   0.796   0.969  0.00  0.00    +0.163 HD
ENDBRANCH   6   8
BRANCH   1  12
ATOM     11  C   UNL     1      -5.101   1.748   0.923  0.00  0.00    +0.138 C 
ATOM     12  N   UNL     1      -4.298   1.907  -0.084  0.00  0.00    -0.188 NA
BRANCH  11  18
ATOM     13  C   UNL     1      -7.022   2.577  -0.423  0.00  0.00    +0.010 A 
ATOM     14  C   UNL     1      -8.361   2.885  -0.545  0.00  0.00    +0.016 A 
ATOM     15  C   UNL     1      -9.215   2.713   0.531  0.00  0.00    +0.018 A 
ATOM     16  C   UNL     1      -8.733   2.227   1.735  0.00  0.00    +0.016 A 
ATOM     17  C   UNL     1      -7.397   1.911   1.869  0.00  0.00    +0.010 A 
ATOM     18  C   UNL     1      -6.530   2.082   0.787  0.00  0.00    -0.005 A 
ATOM     19 BR   UNL     1     -11.048   3.143   0.356  0.00  0.00    -0.050 Br
ENDBRANCH  11  18
ENDBRANCH   1  12
BRANCH   5  20
ATOM     20  S   UNL     1       1.416   1.637  -2.809  0.00  0.00    -0.076 S 
BRANCH  20  21
ATOM     21  C   UNL     1       1.389   2.201  -4.533  0.00  0.00    +0.157 C 
BRANCH  21  22
ATOM     22  C   UNL     1       2.777   2.114  -5.112  0.00  0.00    +0.173 C 
ATOM     23  O   UNL     1       3.695   1.711  -4.430  0.00  0.00    -0.291 OA
BRANCH  22  24
ATOM     24  C   UNL     1       3.019   2.519  -6.506  0.00  0.00    +0.018 A 
ATOM     25  C   UNL     1       1.962   2.979  -7.298  0.00  0.00    +0.012 A 
ATOM     26  C   UNL     1       2.197   3.362  -8.601  0.00  0.00    +0.016 A 
ATOM     27  C   UNL     1       3.475   3.280  -9.130  0.00  0.00    +0.018 A 
ATOM     28  C   UNL     1       4.526   2.820  -8.354  0.00  0.00    +0.016 A 
ATOM     29  C   UNL     1       4.306   2.439  -7.047  0.00  0.00    +0.012 A 
ATOM     30 BR   UNL     1       3.786   3.801 -10.921  0.00  0.00    -0.050 Br
ENDBRANCH  22  24
ENDBRANCH  21  22
ENDBRANCH  20  21
ENDBRANCH   5  20
TORSDOF 7
