REMARK  Name = ZINC09170310
REMARK  4 active torsions:
REMARK  status: ('A' for Active; 'I' for Inactive)
REMARK    1  A    between atoms: C_8  and  C_10
REMARK    2  A    between atoms: C_16  and  C_18
REMARK    3  A    between atoms: N_24  and  S_25
REMARK    4  A    between atoms: S_25  and  C_28
REMARK                            x       y       z     vdW  Elec       q    Type
REMARK                         _______ _______ _______ _____ _____    ______ ____
ROOT
ATOM      1  C   UNL     1      -3.018   0.757   2.082  0.00  0.00    +0.285 A 
ATOM      2  N   UNL     1      -3.116   0.211   0.891  0.00  0.00    -0.103 NA
ATOM      3  N   UNL     1      -4.331   0.304   0.479  0.00  0.00    -0.092 NA
ATOM      4  C   UNL     1      -5.056   0.911   1.387  0.00  0.00    +0.315 A 
ATOM      5  O   UNL     1      -4.246   1.205   2.422  0.00  0.00    -0.402 OA
ATOM      6  N   UNL     1      -6.410   1.192   1.301  0.00  0.00    -0.237 N 
ATOM      7  C   UNL     1      -7.104   0.834   0.203  0.00  0.00    +0.239 C 
ATOM      8  O   UNL     1      -6.544   0.265  -0.710  0.00  0.00    -0.274 OA
ATOM      9  H   UNL     1      -6.858   1.647   2.031  0.00  0.00    +0.159 HD
ENDROOT
BRANCH   1  17
ATOM     10  C   UNL     1       2.244   0.944   5.048  0.00  0.00    +0.001 A 
ATOM     11  C   UNL     1       1.464   1.582   6.002  0.00  0.00    +0.004 A 
ATOM     12  C   UNL     1       0.118   1.790   5.787  0.00  0.00    +0.047 A 
ATOM     13  C   UNL     1      -0.468   1.359   4.604  0.00  0.00    +0.136 A 
ATOM     14  C   UNL     1       0.327   0.713   3.640  0.00  0.00    +0.021 A 
ATOM     15  C   UNL     1       1.688   0.511   3.877  0.00  0.00    +0.011 A 
ATOM     16  C   UNL     1      -0.575   0.391   2.533  0.00  0.00    +0.063 A 
ATOM     17  C   UNL     1      -1.798   0.856   2.897  0.00  0.00    +0.192 A 
ATOM     18  O   UNL     1      -1.726   1.419   4.121  0.00  0.00    -0.450 OA
ENDBRANCH   1  17
BRANCH   7  19
ATOM     19  C   UNL     1      -8.577   1.139   0.109  0.00  0.00    +0.166 C 
ATOM     20  C   UNL     1      -8.831   2.086  -1.069  0.00  0.00    +0.030 C 
ATOM     21  C   UNL     1     -10.339   2.279  -1.246  0.00  0.00    +0.003 C 
ATOM     22  C   UNL     1     -10.997   0.932  -1.554  0.00  0.00    +0.017 C 
ATOM     23  C   UNL     1     -10.768  -0.024  -0.380  0.00  0.00    +0.110 C 
ATOM     24  N   UNL     1      -9.325  -0.105  -0.111  0.00  0.00    -0.164 NA
BRANCH  24  25
ATOM     25  S   UNL     1      -8.558  -1.572  -0.057  0.00  0.00    +0.068 S 
ATOM     26  O   UNL     1      -7.387  -1.389   0.726  0.00  0.00    -0.152 OA
ATOM     27  O   UNL     1      -9.550  -2.537   0.269  0.00  0.00    -0.152 OA
BRANCH  25  28
ATOM     28  C   UNL     1      -8.018  -1.938  -1.693  0.00  0.00    +0.144 A 
ATOM     29  C   UNL     1      -6.793  -1.764  -2.246  0.00  0.00    +0.038 A 
ATOM     30  C   UNL     1      -6.594  -2.132  -3.564  0.00  0.00    +0.030 A 
ATOM     31  C   UNL     1      -7.634  -2.644  -4.268  0.00  0.00    +0.080 A 
ATOM     32  S   UNL     1      -8.944  -2.627  -3.055  0.00  0.00    -0.057 S 
ATOM     33 CL   UNL     1      -7.680  -3.179  -5.919  0.00  0.00    -0.076 Cl
ENDBRANCH  25  28
ENDBRANCH  24  25
ENDBRANCH   7  19
TORSDOF 4
