REMARK  Name = ZINC15730970
REMARK  6 active torsions:
REMARK  status: ('A' for Active; 'I' for Inactive)
REMARK    1  A    between atoms: C_1  and  C_2
REMARK    2  A    between atoms: C_6  and  C_8
REMARK    3  A    between atoms: C_8  and  N_9
REMARK    4  A    between atoms: N_9  and  S_10
REMARK    5  A    between atoms: S_10  and  C_13
REMARK    6  A    between atoms: C_23  and  C_26
REMARK                            x       y       z     vdW  Elec       q    Type
REMARK                         _______ _______ _______ _____ _____    ______ ____
ROOT
ATOM      1  C   UNL     1       0.772   8.422  -0.937  0.00  0.00    +0.107 A 
ATOM      2  C   UNL     1       1.885   8.770  -1.682  0.00  0.00    +0.030 A 
ATOM      3  C   UNL     1       2.878   9.555  -1.126  0.00  0.00    +0.018 A 
ATOM      4  C   UNL     1       2.753   9.994   0.182  0.00  0.00    +0.029 A 
ATOM      5  C   UNL     1       1.632   9.646   0.933  0.00  0.00    +0.049 A 
ATOM      6  C   UNL     1       0.639   8.863   0.368  0.00  0.00    +0.053 A 
ATOM      7  N   UNL     1       1.518  10.103   2.255  0.00  0.00    -0.284 N 
ATOM      8  C   UNL     1       1.686  11.400   2.538  0.00  0.00    +0.218 C 
ATOM      9  O   UNL     1       1.777  11.750   3.696  0.00  0.00    -0.275 OA
ATOM     10  C   UNL     1       1.763  12.431   1.450  0.00  0.00    +0.110 C 
ATOM     11  C   UNL     1       3.223  12.640   1.011  0.00  0.00    +0.057 C 
ATOM     12  S   UNL     1       4.005  10.994   0.919  0.00  0.00    -0.120 S 
ATOM     13  C   UNL     1       3.955  13.508   2.036  0.00  0.00    +0.020 C 
ATOM     14  H   UNL     1       1.316   9.475   2.966  0.00  0.00    +0.155 HD
ENDROOT
BRANCH   1  15
ATOM     15  S   UNL     1      -0.486   7.420  -1.657  0.00  0.00    +0.059 S 
ATOM     16  O   UNL     1      -0.390   7.596  -3.064  0.00  0.00    -0.153 OA
ATOM     17  O   UNL     1      -1.681   7.688  -0.935  0.00  0.00    -0.153 OA
BRANCH  15  18
ATOM     18  N   UNL     1      -0.090   5.842  -1.349  0.00  0.00    -0.186 NA
ATOM     19  H   UNL     1       0.128   5.245  -2.082  0.00  0.00    +0.148 HD
BRANCH  18  20
ATOM     20  C   UNL     1      -0.070   5.347   0.030  0.00  0.00    +0.141 C 
BRANCH  20  26
ATOM     21  C   UNL     1      -2.514   0.980   0.019  0.00  0.00    +0.044 C 
ATOM     22  C   UNL     1      -1.219   1.751   0.017  0.00  0.00    -0.050 A 
ATOM     23  C   UNL     1      -0.013   1.076   0.008  0.00  0.00    +0.003 A 
ATOM     24  C   UNL     1       1.175   1.783   0.000  0.00  0.00    +0.001 A 
ATOM     25  C   UNL     1       1.156   3.166   0.008  0.00  0.00    +0.005 A 
ATOM     26  C   UNL     1      -0.050   3.840   0.022  0.00  0.00    -0.032 A 
ATOM     27  C   UNL     1      -1.238   3.133   0.030  0.00  0.00    +0.008 A 
ENDBRANCH  20  26
ENDBRANCH  18  20
ENDBRANCH  15  18
ENDBRANCH   1  15
TORSDOF 4
