REMARK  Name = ZINC27603516
REMARK  9 active torsions:
REMARK  status: ('A' for Active; 'I' for Inactive)
REMARK    1  A    between atoms: C_1  and  N_2
REMARK    2  A    between atoms: N_2  and  C_3
REMARK    3  A    between atoms: N_2  and  S_9
REMARK    4  A    between atoms: S_9  and  C_12
REMARK    5  A    between atoms: C_16  and  C_18
REMARK    6  A    between atoms: N_20  and  C_21
REMARK    7  A    between atoms: C_21  and  C_22
REMARK    8  A    between atoms: C_22  and  C_24
REMARK    9  A    between atoms: C_22  and  N_29
REMARK                            x       y       z     vdW  Elec       q    Type
REMARK                         _______ _______ _______ _____ _____    ______ ____
ROOT
ATOM      1  C   UNL     1       1.736  -0.974  -1.975  0.00  0.00    +0.106 A 
ATOM      2  C   UNL     1       2.449   0.044  -2.583  0.00  0.00    +0.028 A 
ATOM      3  C   UNL     1       3.794  -0.119  -2.865  0.00  0.00    +0.003 A 
ATOM      4  C   UNL     1       4.432  -1.299  -2.543  0.00  0.00    +0.013 A 
ATOM      5  C   UNL     1       3.718  -2.329  -1.930  0.00  0.00    +0.039 A 
ATOM      6  C   UNL     1       2.363  -2.157  -1.642  0.00  0.00    +0.041 A 
ENDROOT
BRANCH   5   7
ATOM      7  C   UNL     1       4.395  -3.597  -1.581  0.00  0.00    +0.244 C 
ATOM      8  O   UNL     1       3.771  -4.492  -1.047  0.00  0.00    -0.270 OA
ATOM      9  N   UNL     1       5.705  -3.759  -1.856  0.00  0.00    -0.313 N 
ATOM     10  H   UNL     1       6.203  -3.044  -2.282  0.00  0.00    +0.149 HD
BRANCH   9  11
ATOM     11  C   UNL     1       6.376  -5.014  -1.511  0.00  0.00    +0.094 C 
BRANCH  11  12
ATOM     12  C   UNL     1       7.817  -4.979  -2.021  0.00  0.00    -0.013 C 
BRANCH  12  13
ATOM     13  N   UNL     1       8.450  -6.285  -1.793  0.00  0.00    +0.386 N 
ATOM     14  C   UNL     1       7.743  -7.338  -2.565  0.00  0.00    -0.078 C 
ATOM     15  C   UNL     1       8.802  -8.463  -2.683  0.00  0.00    -0.020 C 
ATOM     16  C   UNL     1      10.120  -7.678  -2.872  0.00  0.00    -0.020 C 
ATOM     17  C   UNL     1       9.838  -6.276  -2.302  0.00  0.00    -0.078 C 
ATOM     18  H   UNL     1       8.441  -6.509  -0.809  0.00  0.00    -0.081 HD
ENDBRANCH  12  13
BRANCH  12  19
ATOM     19  C   UNL     1       8.586  -3.913  -1.283  0.00  0.00    -0.022 A 
ATOM     20  C   UNL     1       8.894  -2.654  -1.679  0.00  0.00    +0.009 A 
ATOM     21  C   UNL     1       9.616  -1.841  -0.826  0.00  0.00    +0.008 A 
ATOM     22  C   UNL     1       9.995  -2.327   0.382  0.00  0.00    +0.045 A 
ATOM     23  S   UNL     1       9.319  -3.979   0.344  0.00  0.00    -0.103 S 
ENDBRANCH  12  19
ENDBRANCH  11  12
ENDBRANCH   9  11
ENDBRANCH   5   7
BRANCH   1  24
ATOM     24  S   UNL     1       0.024  -0.756  -1.619  0.00  0.00    +0.061 S 
ATOM     25  O   UNL     1      -0.543  -2.057  -1.540  0.00  0.00    -0.153 OA
ATOM     26  O   UNL     1      -0.457   0.230  -2.523  0.00  0.00    -0.153 OA
BRANCH  24  28
ATOM     27  C   UNL     1      -0.084   1.355   0.067  0.00  0.00    +0.132 C 
ATOM     28  N   UNL     1      -0.082  -0.100  -0.103  0.00  0.00    -0.177 NA
BRANCH  28  29
ATOM     29  C   UNL     1      -0.172  -0.975   1.069  0.00  0.00    +0.080 C 
ATOM     30  C   UNL     1      -1.477  -0.692   1.817  0.00  0.00    +0.020 C 
ATOM     31  C   UNL     1      -1.571  -1.605   3.041  0.00  0.00    +0.002 C 
ATOM     32  C   UNL     1      -0.384  -1.339   3.968  0.00  0.00    +0.000 C 
ATOM     33  C   UNL     1       0.921  -1.622   3.221  0.00  0.00    +0.002 C 
ATOM     34  C   UNL     1       1.015  -0.709   1.997  0.00  0.00    +0.020 C 
ENDBRANCH  28  29
ENDBRANCH  24  28
ENDBRANCH   1  24
TORSDOF 8
