REMARK  Name = ZINC04794112
REMARK  8 active torsions:
REMARK  status: ('A' for Active; 'I' for Inactive)
REMARK    1  A    between atoms: C_1  and  C_2
REMARK    2  A    between atoms: C_5  and  C_32
REMARK    3  A    between atoms: C_6  and  N_8
REMARK    4  A    between atoms: C_14  and  C_16
REMARK    5  A    between atoms: C_19  and  C_22
REMARK    6  A    between atoms: C_22  and  N_23
REMARK    7  A    between atoms: N_23  and  S_24
REMARK    8  A    between atoms: S_24  and  C_27
REMARK                            x       y       z     vdW  Elec       q    Type
REMARK                         _______ _______ _______ _____ _____    ______ ____
ROOT
ATOM      1  C   UNL     1      -1.217  -4.000   6.988  0.00  0.00    +0.075 C 
ATOM      2  C   UNL     1      -1.987  -2.700   7.226  0.00  0.00    +0.013 C 
ATOM      3  C   UNL     1      -3.300  -3.010   7.947  0.00  0.00    +0.005 C 
ATOM      4  C   UNL     1      -2.999  -3.677   9.291  0.00  0.00    +0.005 C 
ATOM      5  C   UNL     1      -2.228  -4.977   9.053  0.00  0.00    +0.005 C 
ATOM      6  C   UNL     1      -0.915  -4.667   8.331  0.00  0.00    +0.013 C 
ENDROOT
BRANCH   1  13
ATOM      7  N   UNL     1       0.395  -4.380   2.360  0.00  0.00    -0.327 N 
ATOM      8  C   UNL     1       1.616  -4.172   3.150  0.00  0.00    +0.124 C 
ATOM      9  C   UNL     1       1.322  -3.138   4.244  0.00  0.00    +0.126 C 
ATOM     10  N   UNL     1       0.088  -3.529   4.940  0.00  0.00    -0.298 N 
ATOM     11  C   UNL     1      -1.134  -3.738   4.150  0.00  0.00    +0.126 C 
ATOM     12  C   UNL     1      -0.841  -4.766   3.056  0.00  0.00    +0.124 C 
ATOM     13  C   UNL     1       0.077  -3.694   6.277  0.00  0.00    +0.219 C 
ATOM     14  O   UNL     1       1.107  -3.596   6.909  0.00  0.00    -0.275 OA
BRANCH   7  20
ATOM     15  C   UNL     1      -0.160  -1.449  -1.545  0.00  0.00    +0.044 C 
ATOM     16  C   UNL     1       0.141  -2.799  -0.947  0.00  0.00    -0.049 A 
ATOM     17  C   UNL     1       0.429  -3.871  -1.772  0.00  0.00    +0.004 A 
ATOM     18  C   UNL     1       0.705  -5.112  -1.228  0.00  0.00    +0.005 A 
ATOM     19  C   UNL     1       0.695  -5.284   0.143  0.00  0.00    -0.029 A 
ATOM     20  C   UNL     1       0.406  -4.209   0.974  0.00  0.00    +0.033 A 
ATOM     21  C   UNL     1       0.134  -2.963   0.424  0.00  0.00    +0.026 A 
ATOM     22  C   UNL     1       0.995  -6.637   0.736  0.00  0.00    +0.045 C 
ENDBRANCH   7  20
ENDBRANCH   1  13
BRANCH   4  23
ATOM     23  C   UNL     1      -4.312  -3.987  10.012  0.00  0.00    +0.109 C 
BRANCH  23  24
ATOM     24  N   UNL     1      -4.022  -4.516  11.348  0.00  0.00    -0.189 NA
ATOM     25  H   UNL     1      -3.127  -4.822  11.565  0.00  0.00    +0.148 HD
BRANCH  24  26
ATOM     26  S   UNL     1      -5.222  -4.592  12.487  0.00  0.00    +0.065 S 
ATOM     27  O   UNL     1      -4.642  -5.167  13.650  0.00  0.00    -0.153 OA
ATOM     28  O   UNL     1      -5.851  -3.317  12.499  0.00  0.00    -0.153 OA
BRANCH  26  29
ATOM     29  C   UNL     1      -6.423  -5.740  11.902  0.00  0.00    +0.142 A 
ATOM     30  C   UNL     1      -6.497  -7.078  12.110  0.00  0.00    +0.036 A 
ATOM     31  C   UNL     1      -7.542  -7.787  11.547  0.00  0.00    +0.010 A 
ATOM     32  C   UNL     1      -8.461  -7.124  10.804  0.00  0.00    +0.047 A 
ATOM     33  S   UNL     1      -7.863  -5.444  10.889  0.00  0.00    -0.077 S 
ENDBRANCH  26  29
ENDBRANCH  24  26
ENDBRANCH  23  24
ENDBRANCH   4  23
TORSDOF 6
