REMARK  Name = ZINC15807383
REMARK  9 active torsions:
REMARK  status: ('A' for Active; 'I' for Inactive)
REMARK    1  A    between atoms: C_1  and  C_2
REMARK    2  A    between atoms: C_2  and  C_4
REMARK    3  A    between atoms: C_2  and  O_16
REMARK    4  A    between atoms: N_6  and  C_7
REMARK    5  A    between atoms: C_12  and  C_13
REMARK    6  A    between atoms: C_13  and  C_15
REMARK    7  A    between atoms: O_16  and  C_17
REMARK    8  A    between atoms: C_17  and  C_19
REMARK    9  A    between atoms: C_21  and  O_29
REMARK                            x       y       z     vdW  Elec       q    Type
REMARK                         _______ _______ _______ _____ _____    ______ ____
ROOT
ATOM      1  C   UNL     1      -4.936   0.119  -1.031  0.00  0.00    +0.062 C 
ATOM      2  C   UNL     1      -4.833   0.065   0.494  0.00  0.00    +0.259 C 
ENDROOT
BRANCH   2   3
ATOM      3  C   UNL     1      -5.901  -0.849   1.038  0.00  0.00    +0.258 C 
ATOM      4  O   UNL     1      -5.590  -1.829   1.681  0.00  0.00    -0.271 OA
ATOM      5  N   UNL     1      -7.201  -0.578   0.809  0.00  0.00    -0.282 N 
ATOM      6  H   UNL     1      -7.448   0.159   0.229  0.00  0.00    +0.155 HD
BRANCH   5   7
ATOM      7  C   UNL     1      -8.189  -1.357   1.403  0.00  0.00    +0.044 A 
ATOM      8  C   UNL     1      -8.044  -2.736   1.472  0.00  0.00    +0.024 A 
ATOM      9  C   UNL     1      -9.023  -3.506   2.067  0.00  0.00    +0.002 A 
ATOM     10  C   UNL     1     -10.162  -2.914   2.591  0.00  0.00    +0.001 A 
ATOM     11  C   UNL     1     -10.328  -1.548   2.528  0.00  0.00    +0.013 A 
ATOM     12  C   UNL     1      -9.342  -0.752   1.933  0.00  0.00    +0.038 A 
BRANCH  12  13
ATOM     13  C   UNL     1      -9.512   0.704   1.862  0.00  0.00    +0.162 C 
ATOM     14  O   UNL     1      -8.642   1.393   1.373  0.00  0.00    -0.292 OA
ATOM     15  C   UNL     1     -10.767   1.343   2.397  0.00  0.00    +0.091 C 
ENDBRANCH  12  13
ENDBRANCH   5   7
ENDBRANCH   2   3
BRANCH   2  16
ATOM     16  O   UNL     1      -3.525  -0.438   0.874  0.00  0.00    -0.449 OA
BRANCH  16  17
ATOM     17  C   UNL     1      -2.546   0.471   1.044  0.00  0.00    +0.341 C 
ATOM     18  O   UNL     1      -2.778   1.652   0.880  0.00  0.00    -0.245 OA
BRANCH  17  19
ATOM     19  C   UNL     1      -1.188   0.031   1.430  0.00  0.00    +0.073 A 
ATOM     20  C   UNL     1      -0.919  -1.296   1.738  0.00  0.00    +0.082 A 
ATOM     21  C   UNL     1       0.382  -1.668   2.098  0.00  0.00    +0.214 A 
ATOM     22  N   UNL     1       1.368  -0.805   2.159  0.00  0.00    -0.213 NA
ATOM     23  C   UNL     1       1.203   0.491   1.881  0.00  0.00    +0.076 A 
ATOM     24  C   UNL     1      -0.074   0.976   1.504  0.00  0.00    +0.015 A 
ATOM     25  C   UNL     1      -0.246   2.334   1.215  0.00  0.00    +0.011 A 
ATOM     26  C   UNL     1       0.821   3.180   1.297  0.00  0.00    +0.001 A 
ATOM     27  C   UNL     1       2.078   2.708   1.666  0.00  0.00    +0.002 A 
ATOM     28  C   UNL     1       2.279   1.394   1.955  0.00  0.00    +0.028 A 
BRANCH  21  29
ATOM     29  O   UNL     1       0.630  -2.967   2.396  0.00  0.00    -0.492 OA
ATOM     30  H   UNL     1       0.512  -3.186   3.330  0.00  0.00    +0.294 HD
ENDBRANCH  21  29
ENDBRANCH  17  19
ENDBRANCH  16  17
ENDBRANCH   2  16
TORSDOF 7
