REMARK  Name = ZINC36347420
REMARK  11 active torsions:
REMARK  status: ('A' for Active; 'I' for Inactive)
REMARK    1  A    between atoms: C_1  and  O_2
REMARK    2  A    between atoms: O_2  and  C_3
REMARK    3  A    between atoms: C_6  and  C_11
REMARK    4  A    between atoms: C_8  and  O_9
REMARK    5  A    between atoms: O_9  and  C_10
REMARK    6  A    between atoms: C_11  and  N_12
REMARK    7  A    between atoms: C_21  and  C_23
REMARK    8  A    between atoms: C_25  and  O_31
REMARK    9  A    between atoms: C_27  and  O_29
REMARK   10  A    between atoms: O_29  and  C_30
REMARK   11  A    between atoms: O_31  and  C_32
REMARK                            x       y       z     vdW  Elec       q    Type
REMARK                         _______ _______ _______ _____ _____    ______ ____
ROOT
ATOM      1  N   UNL     1       4.035  -2.591  -4.103  0.00  0.00    +0.391 N 
ATOM      2  C   UNL     1       4.118  -3.379  -2.872  0.00  0.00    -0.075 C 
ATOM      3  C   UNL     1       5.567  -3.688  -2.516  0.00  0.00    +0.003 C 
ATOM      4  C   UNL     1       6.465  -2.522  -2.938  0.00  0.00    +0.119 C 
ATOM      5  N   UNL     1       6.889  -2.725  -4.327  0.00  0.00    -0.352 N 
ATOM      6  C   UNL     1       8.153  -2.588  -4.815  0.00  0.00    +0.086 A 
ATOM      7  C   UNL     1       8.124  -2.844  -6.139  0.00  0.00    +0.019 A 
ATOM      8  C   UNL     1       6.793  -3.156  -6.480  0.00  0.00    +0.021 A 
ATOM      9  C   UNL     1       6.060  -3.083  -5.352  0.00  0.00    +0.009 A 
ATOM     10  C   UNL     1       4.581  -3.359  -5.231  0.00  0.00    +0.011 C 
ATOM     11  H   UNL     1       4.565  -1.740  -3.991  0.00  0.00    -0.080 HD
ENDROOT
BRANCH  10  12
ATOM     12  C   UNL     1       3.886  -2.948  -6.503  0.00  0.00    -0.048 A 
ATOM     13  C   UNL     1       3.927  -1.630  -6.916  0.00  0.00    +0.048 A 
ATOM     14  C   UNL     1       3.288  -1.249  -8.088  0.00  0.00    +0.124 A 
ATOM     15  C   UNL     1       2.608  -2.192  -8.844  0.00  0.00    +0.091 A 
ATOM     16  C   UNL     1       2.570  -3.513  -8.427  0.00  0.00    +0.124 A 
ATOM     17  C   UNL     1       3.215  -3.890  -7.258  0.00  0.00    +0.048 A 
BRANCH  16  18
ATOM     18  O   UNL     1       1.904  -4.440  -9.166  0.00  0.00    -0.495 OA
ATOM     19  C   UNL     1       1.268  -3.982 -10.361  0.00  0.00    +0.277 C 
ENDBRANCH  16  18
BRANCH  14  20
ATOM     20  O   UNL     1       3.327   0.048  -8.493  0.00  0.00    -0.495 OA
ATOM     21  C   UNL     1       2.648   0.369  -9.708  0.00  0.00    +0.277 C 
ENDBRANCH  14  20
ENDBRANCH  10  12
BRANCH   1  22
ATOM     22  C   UNL     1       2.631  -2.258  -4.375  0.00  0.00    -0.042 C 
BRANCH  22  26
ATOM     23  C   UNL     1       1.115   0.208  -1.227  0.00  0.00    +0.161 A 
ATOM     24  C   UNL     1       1.710   0.785  -2.337  0.00  0.00    +0.049 A 
ATOM     25  C   UNL     1       2.199  -0.015  -3.353  0.00  0.00    +0.005 A 
ATOM     26  C   UNL     1       2.096  -1.391  -3.264  0.00  0.00    -0.060 A 
ATOM     27  C   UNL     1       1.503  -1.973  -2.160  0.00  0.00    +0.051 A 
ATOM     28  C   UNL     1       1.016  -1.177  -1.135  0.00  0.00    +0.162 A 
BRANCH  23  30
ATOM     29  C   UNL     1       0.768   2.406  -0.388  0.00  0.00    +0.277 C 
ATOM     30  O   UNL     1       0.633   0.993  -0.226  0.00  0.00    -0.491 OA
ENDBRANCH  23  30
BRANCH  28  31
ATOM     31  O   UNL     1       0.438  -1.749  -0.044  0.00  0.00    -0.491 OA
ATOM     32  C   UNL     1       0.372  -3.176  -0.018  0.00  0.00    +0.277 C 
ENDBRANCH  28  31
ENDBRANCH  22  26
ENDBRANCH   1  22
TORSDOF 7
