REMARK  Name = ZINC06483948
REMARK  5 active torsions:
REMARK  status: ('A' for Active; 'I' for Inactive)
REMARK    1  A    between atoms: C_1  and  C_2
REMARK    2  A    between atoms: C_7  and  C_9
REMARK    3  A    between atoms: C_14  and  O_15
REMARK    4  A    between atoms: C_19  and  C_21
REMARK    5  A    between atoms: C_24  and  O_27
REMARK                            x       y       z     vdW  Elec       q    Type
REMARK                         _______ _______ _______ _____ _____    ______ ____
ROOT
ATOM      1  C   UNL     1       4.771   2.825   5.626  0.00  0.00    +0.068 C 
ATOM      2  C   UNL     1       3.482   2.295   5.054  0.00  0.00    +0.067 A 
ATOM      3  C   UNL     1       2.440   1.739   5.784  0.00  0.00    +0.037 A 
ATOM      4  C   UNL     1       1.440   1.379   4.897  0.00  0.00    +0.167 A 
ATOM      5  N   UNL     1       1.883   1.709   3.648  0.00  0.00    -0.177 N 
ATOM      6  N   UNL     1       3.159   2.276   3.784  0.00  0.00    -0.167 NA
ATOM      7  C   UNL     1       1.217   1.519   2.492  0.00  0.00    +0.284 C 
ATOM      8  O   UNL     1       0.077   1.096   2.510  0.00  0.00    -0.265 OA
ATOM      9  N   UNL     1       0.277   0.784   5.255  0.00  0.00    -0.207 NA
ATOM     10  C   UNL     1      -0.191   0.837   6.475  0.00  0.00    +0.154 C 
ATOM     11  S   UNL     1       0.605   1.747   7.754  0.00  0.00    -0.078 S 
ATOM     12  C   UNL     1       2.341   1.532   7.276  0.00  0.00    +0.119 C 
ATOM     13  N   UNL     1      -1.347   0.158   6.769  0.00  0.00    -0.338 N 
ATOM     14  H   UNL     1      -1.800  -0.349   6.078  0.00  0.00    +0.144 HD
ATOM     15  H   UNL     1      -1.710   0.185   7.669  0.00  0.00    +0.144 HD
ENDROOT
BRANCH   7  16
ATOM     16  C   UNL     1       1.870   1.822   1.206  0.00  0.00    +0.083 A 
ATOM     17  C   UNL     1       3.132   2.423   1.184  0.00  0.00    +0.017 A 
ATOM     18  C   UNL     1       3.734   2.711  -0.022  0.00  0.00    +0.001 A 
ATOM     19  C   UNL     1       3.098   2.401  -1.213  0.00  0.00    +0.004 A 
ATOM     20  C   UNL     1       1.854   1.801  -1.205  0.00  0.00    +0.046 A 
ATOM     21  C   UNL     1       1.232   1.505  -0.001  0.00  0.00    +0.129 A 
BRANCH  21  22
ATOM     22  O   UNL     1       0.010   0.917   0.008  0.00  0.00    -0.506 OA
ATOM     23  H   UNL     1       0.038  -0.049   0.013  0.00  0.00    +0.292 HD
ENDBRANCH  21  22
ENDBRANCH   7  16
BRANCH  12  24
ATOM     24  C   UNL     1       2.799   0.140   7.628  0.00  0.00    -0.029 A 
ATOM     25  C   UNL     1       2.161  -0.956   7.077  0.00  0.00    +0.008 A 
ATOM     26  C   UNL     1       2.582  -2.233   7.394  0.00  0.00    +0.046 A 
ATOM     27  C   UNL     1       3.638  -2.416   8.276  0.00  0.00    +0.117 A 
ATOM     28  C   UNL     1       4.272  -1.314   8.831  0.00  0.00    +0.046 A 
ATOM     29  C   UNL     1       3.851  -0.039   8.506  0.00  0.00    +0.008 A 
BRANCH  27  30
ATOM     30  O   UNL     1       4.050  -3.671   8.594  0.00  0.00    -0.507 OA
ATOM     31  H   UNL     1       3.601  -4.048   9.363  0.00  0.00    +0.292 HD
ENDBRANCH  27  30
ENDBRANCH  12  24
TORSDOF 4
