REMARK  Name = ZINC49486332
REMARK  8 active torsions:
REMARK  status: ('A' for Active; 'I' for Inactive)
REMARK    1  A    between atoms: C_4  and  N_11
REMARK    2  A    between atoms: C_5  and  C_7
REMARK    3  A    between atoms: C_12  and  C_14
REMARK    4  A    between atoms: N_16  and  C_17
REMARK    5  A    between atoms: C_17  and  C_18
REMARK    6  A    between atoms: C_18  and  C_20
REMARK    7  A    between atoms: C_18  and  N_25
REMARK    8  A    between atoms: N_28  and  C_31
REMARK                            x       y       z     vdW  Elec       q    Type
REMARK                         _______ _______ _______ _____ _____    ______ ____
ROOT
ATOM      1  C   UNL     1       9.417   0.576   0.036  0.00  0.00    +0.017 C 
ENDROOT
BRANCH   1   2
ATOM      2  N   UNL     1       9.280   1.501   1.170  0.00  0.00    +0.389 N 
ATOM      3  C   UNL     1       7.955   2.132   1.128  0.00  0.00    -0.059 C 
ATOM      4  C   UNL     1       7.768   3.008   2.371  0.00  0.00    +0.086 C 
ATOM      5  N   UNL     1       8.890   3.956   2.446  0.00  0.00    -0.333 N 
ATOM      6  C   UNL     1      10.257   3.424   2.331  0.00  0.00    +0.086 C 
ATOM      7  C   UNL     1      10.326   2.528   1.090  0.00  0.00    -0.059 C 
ATOM      8  H   UNL     1       9.379   0.989   2.034  0.00  0.00    -0.081 HD
BRANCH   5   9
ATOM      9  C   UNL     1       8.665   5.325   2.622  0.00  0.00    +0.030 A 
ATOM     10  C   UNL     1       7.378   5.794   2.851  0.00  0.00    +0.026 A 
ATOM     11  C   UNL     1       7.157   7.146   3.025  0.00  0.00    +0.040 A 
ATOM     12  C   UNL     1       8.218   8.034   2.971  0.00  0.00    +0.124 A 
ATOM     13  C   UNL     1       9.502   7.569   2.743  0.00  0.00    +0.040 A 
ATOM     14  C   UNL     1       9.728   6.217   2.574  0.00  0.00    +0.026 A 
ATOM     15  F   UNL     1       8.000   9.357   3.142  0.00  0.00    -0.205 F 
ENDBRANCH   5   9
ENDBRANCH   1   2
BRANCH   1  16
ATOM     16  C   UNL     1      10.728  -0.159   0.143  0.00  0.00    +0.093 A 
ATOM     17  C   UNL     1      11.553  -0.448  -0.880  0.00  0.00    +0.043 A 
ATOM     18  C   UNL     1      12.657  -1.140  -0.332  0.00  0.00    +0.041 A 
ATOM     19  C   UNL     1      12.441  -1.233   0.993  0.00  0.00    +0.195 A 
ATOM     20  O   UNL     1      11.273  -0.632   1.275  0.00  0.00    -0.469 OA
ENDBRANCH   1  16
BRANCH   1  21
ATOM     21  C   UNL     1       8.264  -0.430   0.057  0.00  0.00    +0.097 C 
BRANCH  21  24
ATOM     22  C   UNL     1       7.359  -2.113   1.569  0.00  0.00    +0.299 C 
ATOM     23  O   UNL     1       6.601  -2.456   0.686  0.00  0.00    -0.265 OA
ATOM     24  N   UNL     1       8.232  -1.108   1.356  0.00  0.00    -0.309 N 
ATOM     25  H   UNL     1       8.838  -0.834   2.061  0.00  0.00    +0.149 HD
BRANCH  22  27
ATOM     26  N   UNL     1       6.454  -3.809   3.107  0.00  0.00    -0.277 N 
ATOM     27  C   UNL     1       7.326  -2.804   2.893  0.00  0.00    +0.303 C 
ATOM     28  O   UNL     1       8.085  -2.461   3.776  0.00  0.00    -0.265 OA
ATOM     29  H   UNL     1       5.902  -4.135   2.378  0.00  0.00    +0.155 HD
BRANCH  26  33
ATOM     30  C   UNL     1       6.125  -5.512   6.892  0.00  0.00    +0.001 A 
ATOM     31  C   UNL     1       6.596  -4.219   6.756  0.00  0.00    +0.002 A 
ATOM     32  C   UNL     1       6.707  -3.651   5.502  0.00  0.00    +0.024 A 
ATOM     33  C   UNL     1       6.344  -4.380   4.377  0.00  0.00    +0.045 A 
ATOM     34  C   UNL     1       5.871  -5.679   4.517  0.00  0.00    +0.076 A 
ATOM     35  C   UNL     1       5.763  -6.241   5.774  0.00  0.00    +0.014 A 
BRANCH  34  36
ATOM     36  C   UNL     1       5.476  -6.474   3.300  0.00  0.00    +0.419 C 
ATOM     37  F   UNL     1       5.036  -7.742   3.693  0.00  0.00    -0.166 F 
ATOM     38  F   UNL     1       4.446  -5.811   2.624  0.00  0.00    -0.166 F 
ATOM     39  F   UNL     1       6.580  -6.606   2.451  0.00  0.00    -0.166 F 
ENDBRANCH  34  36
ENDBRANCH  26  33
ENDBRANCH  22  27
ENDBRANCH  21  24
ENDBRANCH   1  21
TORSDOF 8
