REMARK  Name = ZINC08587473
REMARK  5 active torsions:
REMARK  status: ('A' for Active; 'I' for Inactive)
REMARK    1  A    between atoms: C_1  and  C_2
REMARK    2  A    between atoms: C_5  and  C_8
REMARK    3  A    between atoms: C_13  and  C_22
REMARK    4  A    between atoms: N_30  and  C_35
REMARK    5  A    between atoms: N_33  and  C_34
REMARK                            x       y       z     vdW  Elec       q    Type
REMARK                         _______ _______ _______ _____ _____    ______ ____
ROOT
ATOM      1  C   UNL     1       0.449  -3.517  -0.041  0.00  0.00    +0.150 C 
ATOM      2  C   UNL     1       1.714  -4.306   0.214  0.00  0.00    +0.073 A 
ATOM      3  C   UNL     1       2.500  -4.936  -0.647  0.00  0.00    +0.082 A 
ATOM      4  C   UNL     1       3.616  -5.516   0.142  0.00  0.00    +0.089 A 
ATOM      5  C   UNL     1       3.386  -5.177   1.452  0.00  0.00    +0.069 A 
ATOM      6  N   UNL     1       2.231  -4.459   1.493  0.00  0.00    -0.306 N 
ATOM      7  C   UNL     1       1.573  -3.927   2.611  0.00  0.00    +0.068 A 
ATOM      8  C   UNL     1       2.179  -3.880   3.853  0.00  0.00    +0.028 A 
ATOM      9  C   UNL     1       1.502  -3.327   4.926  0.00  0.00    +0.002 A 
ATOM     10  C   UNL     1       0.225  -2.823   4.757  0.00  0.00    +0.002 A 
ATOM     11  C   UNL     1      -0.389  -2.874   3.520  0.00  0.00    +0.025 A 
ATOM     12  C   UNL     1       0.276  -3.433   2.440  0.00  0.00    +0.052 A 
ATOM     13  N   UNL     1      -0.353  -3.535   1.193  0.00  0.00    -0.330 N 
ATOM     14  C   UNL     1       4.663  -6.275  -0.550  0.00  0.00    +0.266 A 
ATOM     15  O   UNL     1       5.602  -6.774   0.042  0.00  0.00    -0.267 OA
ATOM     16  N   UNL     1       4.512  -6.383  -1.895  0.00  0.00    -0.263 N 
ATOM     17  C   UNL     1       3.494  -5.847  -2.574  0.00  0.00    +0.332 A 
ATOM     18  O   UNL     1       3.477  -6.016  -3.778  0.00  0.00    -0.246 OA
ATOM     19  N   UNL     1       2.481  -5.132  -2.036  0.00  0.00    -0.294 N 
ATOM     20  C   UNL     1       1.407  -4.585  -2.869  0.00  0.00    +0.154 C 
ATOM     21  C   UNL     1       5.525  -7.130  -2.645  0.00  0.00    +0.157 C 
ATOM     22  H   UNL     1      -1.318  -3.618   1.142  0.00  0.00    +0.147 HD
ENDROOT
BRANCH   1  27
ATOM     23  C   UNL     1       1.784   1.933  -1.421  0.00  0.00    +0.044 C 
ATOM     24  C   UNL     1       1.436   0.512  -1.061  0.00  0.00    -0.050 A 
ATOM     25  C   UNL     1       1.103  -0.391  -2.054  0.00  0.00    +0.004 A 
ATOM     26  C   UNL     1       0.783  -1.694  -1.724  0.00  0.00    +0.006 A 
ATOM     27  C   UNL     1       0.798  -2.096  -0.401  0.00  0.00    -0.021 A 
ATOM     28  C   UNL     1       1.132  -1.193   0.592  0.00  0.00    +0.006 A 
ATOM     29  C   UNL     1       1.456   0.109   0.261  0.00  0.00    +0.004 A 
ENDBRANCH   1  27
BRANCH   5  30
ATOM     30  C   UNL     1       4.236  -5.528   2.606  0.00  0.00    -0.000 A 
ATOM     31  C   UNL     1       3.705  -6.258   3.672  0.00  0.00    +0.010 A 
ATOM     32  C   UNL     1       4.505  -6.583   4.747  0.00  0.00    +0.001 A 
ATOM     33  C   UNL     1       5.831  -6.188   4.772  0.00  0.00    +0.000 A 
ATOM     34  C   UNL     1       6.364  -5.464   3.719  0.00  0.00    +0.001 A 
ATOM     35  C   UNL     1       5.577  -5.137   2.635  0.00  0.00    +0.010 A 
ENDBRANCH   5  30
TORSDOF 2
