REMARK  Name = ZINC52547654
REMARK  10 active torsions:
REMARK  status: ('A' for Active; 'I' for Inactive)
REMARK    1  A    between atoms: C_1  and  C_2
REMARK    2  A    between atoms: C_2  and  C_3
REMARK    3  A    between atoms: C_3  and  N_4
REMARK    4  A    between atoms: N_4  and  C_5
REMARK    5  A    between atoms: C_5  and  C_6
REMARK    6  A    between atoms: C_9  and  C_12
REMARK    7  A    between atoms: C_12  and  N_13
REMARK    8  A    between atoms: N_13  and  C_14
REMARK    9  A    between atoms: N_13  and  C_15
REMARK   10  A    between atoms: C_15  and  C_16
REMARK                            x       y       z     vdW  Elec       q    Type
REMARK                         _______ _______ _______ _____ _____    ______ ____
ROOT
ATOM      1  C   UNL     1       1.446  -3.947  -2.482  0.00  0.00    -0.064 A 
ATOM      2  C   UNL     1       2.495  -4.627  -1.892  0.00  0.00    +0.002 A 
ATOM      3  C   UNL     1       2.514  -6.009  -1.899  0.00  0.00    +0.002 A 
ATOM      4  C   UNL     1       1.483  -6.711  -2.497  0.00  0.00    -0.064 A 
ATOM      5  C   UNL     1       0.434  -6.031  -3.086  0.00  0.00    +0.002 A 
ATOM      6  C   UNL     1       0.413  -4.649  -3.074  0.00  0.00    +0.002 A 
ENDROOT
BRANCH   1   7
ATOM      7  C   UNL     1       1.426  -2.440  -2.474  0.00  0.00    -0.047 C 
BRANCH   7   8
ATOM      8  N   UNL     1       0.738  -1.966  -1.265  0.00  0.00    +0.382 N 
ATOM      9  H   UNL     1       1.226  -2.301  -0.447  0.00  0.00    -0.085 HD
ATOM     10  H   UNL     1      -0.208  -2.316  -1.258  0.00  0.00    -0.085 HD
BRANCH   8  11
ATOM     11  C   UNL     1       0.718  -0.497  -1.257  0.00  0.00    -0.082 C 
BRANCH  11  13
ATOM     12  C   UNL     1      -0.019   1.526   0.010  0.00  0.00    +0.002 C 
ATOM     13  C   UNL     1       0.002  -0.004   0.002  0.00  0.00    -0.022 C 
ENDBRANCH  11  13
ENDBRANCH   8  11
ENDBRANCH   7   8
ENDBRANCH   1   7
BRANCH   4  14
ATOM     14  C   UNL     1       1.504  -8.218  -2.506  0.00  0.00    -0.043 C 
BRANCH  14  15
ATOM     15  N   UNL     1       0.825  -8.725  -1.306  0.00  0.00    +0.383 N 
ATOM     16  C   UNL     1       1.585  -8.333  -0.111  0.00  0.00    -0.095 C 
ATOM     17  H   UNL     1      -0.104  -8.335  -1.256  0.00  0.00    -0.081 HD
BRANCH  15  18
ATOM     18  C   UNL     1       0.740 -10.190  -1.373  0.00  0.00    -0.042 C 
BRANCH  18  19
ATOM     19  C   UNL     1      -0.063 -10.700  -0.204  0.00  0.00    -0.056 A 
ATOM     20  C   UNL     1       0.559 -11.021   0.988  0.00  0.00    +0.024 A 
ATOM     21  C   UNL     1      -0.193 -11.477   2.020  0.00  0.00    +0.055 A 
ATOM     22  S   UNL     1      -1.833 -11.465   1.315  0.00  0.00    -0.090 S 
ATOM     23  C   UNL     1      -1.407 -10.847  -0.305  0.00  0.00    +0.048 A 
ATOM     24 BR   UNL     1       0.353 -11.994   3.755  0.00  0.00    -0.043 Br
ENDBRANCH  18  19
ENDBRANCH  15  18
ENDBRANCH  14  15
ENDBRANCH   4  14
TORSDOF 8
