REMARK  Name = ZINC39791693
REMARK  8 active torsions:
REMARK  status: ('A' for Active; 'I' for Inactive)
REMARK    1  A    between atoms: C_4  and  C_7
REMARK    2  A    between atoms: N_9  and  C_10
REMARK    3  A    between atoms: C_10  and  C_11
REMARK    4  A    between atoms: C_13  and  C_17
REMARK    5  A    between atoms: C_17  and  S_18
REMARK    6  A    between atoms: S_18  and  C_19
REMARK    7  A    between atoms: C_22  and  C_30
REMARK    8  A    between atoms: C_23  and  C_25
REMARK                            x       y       z     vdW  Elec       q    Type
REMARK                         _______ _______ _______ _____ _____    ______ ____
ROOT
ATOM      1  C   UNL     1       4.746  -4.230  -0.067  0.00  0.00    +0.120 C 
ATOM      2  N   UNL     1       4.631  -4.947   0.997  0.00  0.00    -0.345 N 
ATOM      3  C   UNL     1       4.392  -6.341   0.603  0.00  0.00    +0.253 C 
ATOM      4  O   UNL     1       4.385  -6.331  -0.833  0.00  0.00    -0.247 OA
ATOM      5  N   UNL     1       4.607  -4.978  -1.199  0.00  0.00    -0.250 N 
ATOM      6  H   UNL     1       4.654  -4.641  -2.107  0.00  0.00    +0.196 HD
ATOM      7  H   UNL     1       4.693  -4.620   1.908  0.00  0.00    +0.163 HD
ENDROOT
BRANCH   1   8
ATOM      8  C   UNL     1       4.997  -2.744  -0.061  0.00  0.00    +0.178 C 
BRANCH   8  11
ATOM      9  C   UNL     1       3.696  -0.685  -0.037  0.00  0.00    +0.244 C 
ATOM     10  O   UNL     1       4.738  -0.060  -0.044  0.00  0.00    -0.270 OA
ATOM     11  N   UNL     1       3.717  -2.032  -0.045  0.00  0.00    -0.304 N 
ATOM     12  H   UNL     1       2.885  -2.531  -0.039  0.00  0.00    +0.149 HD
BRANCH   9  16
ATOM     13  C   UNL     1      -0.017   1.379   0.010  0.00  0.00    +0.000 A 
ATOM     14  C   UNL     1       1.168   2.094   0.002  0.00  0.00    +0.001 A 
ATOM     15  C   UNL     1       2.377   1.429  -0.013  0.00  0.00    +0.013 A 
ATOM     16  C   UNL     1       2.403   0.034  -0.021  0.00  0.00    +0.037 A 
ATOM     17  C   UNL     1       1.204  -0.681  -0.013  0.00  0.00    +0.013 A 
ATOM     18  C   UNL     1       0.002  -0.004   0.002  0.00  0.00    +0.001 A 
ENDBRANCH   9  16
ENDBRANCH   8  11
ENDBRANCH   1   8
BRANCH   3  19
ATOM     19  C   UNL     1       5.515  -7.239   1.124  0.00  0.00    +0.133 C 
BRANCH  19  20
ATOM     20  S   UNL     1       7.099  -6.691   0.430  0.00  0.00    -0.083 S 
BRANCH  20  21
ATOM     21  C   UNL     1       8.275  -7.810   1.116  0.00  0.00    +0.167 A 
ATOM     22  N   UNL     1       9.617  -7.785   0.880  0.00  0.00    -0.332 N 
ATOM     23  H   UNL     1      10.091  -7.157   0.312  0.00  0.00    +0.168 HD
ATOM     24  C   UNL     1      10.179  -8.824   1.603  0.00  0.00    +0.082 A 
ATOM     25  C   UNL     1       9.131  -9.449   2.261  0.00  0.00    +0.105 A 
ATOM     26  N   UNL     1       7.997  -8.794   1.937  0.00  0.00    -0.221 NA
BRANCH  25  27
ATOM     27  C   UNL     1       9.237 -10.616   3.157  0.00  0.00    +0.040 A 
ATOM     28  C   UNL     1       8.509 -10.912   4.280  0.00  0.00    +0.018 A 
ATOM     29  C   UNL     1       8.791 -12.075   4.963  0.00  0.00    +0.008 A 
ATOM     30  C   UNL     1       9.775 -12.890   4.505  0.00  0.00    +0.046 A 
ATOM     31  S   UNL     1      10.341 -12.016   3.055  0.00  0.00    -0.095 S 
ENDBRANCH  25  27
BRANCH  24  32
ATOM     32  C   UNL     1      11.600  -9.191   1.661  0.00  0.00    +0.038 A 
ATOM     33  C   UNL     1      12.706  -8.375   1.822  0.00  0.00    +0.017 A 
ATOM     34  C   UNL     1      13.952  -8.960   1.846  0.00  0.00    +0.008 A 
ATOM     35  C   UNL     1      14.056 -10.307   1.713  0.00  0.00    +0.046 A 
ATOM     36  S   UNL     1      12.351 -10.807   1.551  0.00  0.00    -0.095 S 
ENDBRANCH  24  32
ENDBRANCH  20  21
ENDBRANCH  19  20
ENDBRANCH   3  19
TORSDOF 8
