REMARK  Name = ZINC01437070
REMARK  10 active torsions:
REMARK  status: ('A' for Active; 'I' for Inactive)
REMARK    1  A    between atoms: C_1  and  C_2
REMARK    2  A    between atoms: C_2  and  C_32
REMARK    3  A    between atoms: C_6  and  C_24
REMARK    4  A    between atoms: C_8  and  C_22
REMARK    5  A    between atoms: C_9  and  N_21
REMARK    6  A    between atoms: N_10  and  C_11
REMARK    7  A    between atoms: C_14  and  O_19
REMARK    8  A    between atoms: C_16  and  O_17
REMARK    9  A    between atoms: O_17  and  C_18
REMARK   10  A    between atoms: O_19  and  C_20
REMARK                            x       y       z     vdW  Elec       q    Type
REMARK                         _______ _______ _______ _____ _____    ______ ____
ROOT
ATOM      1  C   UNL     1      -0.848  -0.646   3.505  0.00  0.00    +0.011 C 
ATOM      2  C   UNL     1      -2.349  -0.895   3.662  0.00  0.00    -0.023 C 
ATOM      3  C   UNL     1      -2.879  -1.647   2.442  0.00  0.00    +0.058 C 
ATOM      4  C   UNL     1      -2.668  -0.812   1.202  0.00  0.00    +0.025 C 
ATOM      5  C   UNL     1      -2.686   0.536   1.259  0.00  0.00    +0.025 C 
ATOM      6  C   UNL     1      -2.482   1.369   0.019  0.00  0.00    +0.098 C 
ATOM      7  C   UNL     1      -2.694   0.553  -1.222  0.00  0.00    +0.077 C 
ATOM      8  C   UNL     1      -2.672  -0.805  -1.182  0.00  0.00    +0.107 C 
ATOM      9  N   UNL     1      -2.462  -1.457   0.012  0.00  0.00    -0.257 N 
ATOM     10  C   UNL     1      -2.894   1.205   2.478  0.00  0.00    +0.162 C 
ATOM     11  O   UNL     1      -2.920   2.420   2.494  0.00  0.00    -0.292 OA
ATOM     12  C   UNL     1      -3.086   0.445   3.762  0.00  0.00    +0.086 C 
ATOM     13  C   UNL     1      -2.604  -1.717   4.927  0.00  0.00    +0.011 C 
ENDROOT
BRANCH   9  14
ATOM     14  C   UNL     1      -2.032  -2.792   0.009  0.00  0.00    +0.081 A 
ATOM     15  C   UNL     1      -0.676  -3.086   0.001  0.00  0.00    +0.031 A 
ATOM     16  C   UNL     1      -0.254  -4.401   0.002  0.00  0.00    +0.048 A 
ATOM     17  C   UNL     1      -1.183  -5.431   0.002  0.00  0.00    +0.124 A 
ATOM     18  C   UNL     1      -2.540  -5.143   0.005  0.00  0.00    +0.093 A 
ATOM     19  C   UNL     1      -2.967  -3.825   0.008  0.00  0.00    +0.145 A 
BRANCH  19  20
ATOM     20  O   UNL     1      -4.296  -3.541   0.012  0.00  0.00    -0.493 OA
ATOM     21  C   UNL     1      -5.197  -4.650   0.011  0.00  0.00    +0.277 C 
ENDBRANCH  19  20
BRANCH  17  22
ATOM     22  O   UNL     1      -0.764  -6.724  -0.001  0.00  0.00    -0.495 OA
ATOM     23  C   UNL     1       0.647  -6.948  -0.004  0.00  0.00    +0.277 C 
ENDBRANCH  17  22
ENDBRANCH   9  14
BRANCH   6  24
ATOM     24  C   UNL     1      -1.077   1.915   0.017  0.00  0.00    -0.028 A 
ATOM     25  C   UNL     1      -0.855   3.279   0.027  0.00  0.00    +0.012 A 
ATOM     26  C   UNL     1       0.421   3.738   0.017  0.00  0.00    +0.045 A 
ATOM     27  S   UNL     1       1.359   2.219   0.001  0.00  0.00    -0.105 S 
ATOM     28  C   UNL     1      -0.013   1.076   0.008  0.00  0.00    +0.049 A 
ENDBRANCH   6  24
BRANCH   8  29
ATOM     29  N   UNL     1      -2.861  -1.529  -2.335  0.00  0.00    -0.345 N 
ATOM     30  H   UNL     1      -3.010  -1.070  -3.176  0.00  0.00    +0.144 HD
ATOM     31  H   UNL     1      -2.846  -2.498  -2.307  0.00  0.00    +0.144 HD
ENDBRANCH   8  29
BRANCH   7  32
ATOM     32  C   UNL     1      -2.924   1.216  -2.470  0.00  0.00    +0.099 C 
ATOM     33  N   UNL     1      -3.106   1.743  -3.460  0.00  0.00    -0.191 NA
ENDBRANCH   7  32
TORSDOF 6
