REMARK  Name = ZINC04222430
REMARK  10 active torsions:
REMARK  status: ('A' for Active; 'I' for Inactive)
REMARK    1  A    between atoms: C_1  and  C_2
REMARK    2  A    between atoms: C_5  and  O_39
REMARK    3  A    between atoms: C_7  and  C_36
REMARK    4  A    between atoms: C_7  and  C_37
REMARK    5  A    between atoms: C_17  and  C_19
REMARK    6  A    between atoms: C_24  and  C_26
REMARK    7  A    between atoms: C_26  and  C_27
REMARK    8  A    between atoms: N_29  and  C_30
REMARK    9  A    between atoms: C_30  and  C_31
REMARK   10  A    between atoms: C_37  and  O_38
REMARK                            x       y       z     vdW  Elec       q    Type
REMARK                         _______ _______ _______ _____ _____    ______ ____
ROOT
ATOM      1  C   UNL     1       1.145   1.875   2.358  0.00  0.00    +0.012 C 
ATOM      2  C   UNL     1       1.978   1.465   1.142  0.00  0.00    -0.019 C 
ATOM      3  C   UNL     1       2.161  -0.056   1.134  0.00  0.00    +0.010 C 
ATOM      4  C   UNL     1       0.810  -0.753   0.990  0.00  0.00    +0.032 C 
ATOM      5  C   UNL     1       0.175  -0.328  -0.337  0.00  0.00    +0.123 C 
ATOM      6  C   UNL     1      -0.052   1.183  -0.311  0.00  0.00    +0.021 C 
ATOM      7  C   UNL     1       1.281   1.918  -0.143  0.00  0.00    +0.011 C 
ATOM      8  C   UNL     1       0.961   3.422  -0.035  0.00  0.00    +0.049 C 
ATOM      9  C   UNL     1       2.161   4.139   0.473  0.00  0.00    +0.015 A 
ATOM     10  C   UNL     1       3.266   3.601   1.052  0.00  0.00    +0.058 A 
ATOM     11  N   UNL     1       4.207   4.465   1.426  0.00  0.00    -0.229 NA
ATOM     12  C   UNL     1       4.080   5.763   1.247  0.00  0.00    +0.165 A 
ATOM     13  S   UNL     1       2.519   5.875   0.488  0.00  0.00    -0.057 S 
ATOM     14  N   UNL     1       4.964   6.782   1.578  0.00  0.00    -0.258 N 
ATOM     15  C   UNL     1       4.647   8.064   1.310  0.00  0.00    +0.285 C 
ATOM     16  O   UNL     1       3.585   8.329   0.777  0.00  0.00    -0.266 OA
ATOM     17  C   UNL     1       3.374   2.096   1.238  0.00  0.00    +0.054 C 
ATOM     18  C   UNL     1      -0.710   1.619  -1.621  0.00  0.00    +0.016 C 
ATOM     19  H   UNL     1       5.810   6.570   2.003  0.00  0.00    +0.157 HD
ENDROOT
BRANCH  15  20
ATOM     20  C   UNL     1       5.580   9.139   1.660  0.00  0.00    +0.189 A 
ATOM     21  C   UNL     1       5.387  10.473   1.440  0.00  0.00    +0.054 A 
ATOM     22  C   UNL     1       6.525  11.131   1.931  0.00  0.00    +0.042 A 
ATOM     23  C   UNL     1       7.356  10.182   2.415  0.00  0.00    +0.196 A 
ATOM     24  O   UNL     1       6.783   8.983   2.250  0.00  0.00    -0.458 OA
ENDBRANCH  15  20
BRANCH   5  25
ATOM     25  O   UNL     1      -1.076  -0.997  -0.506  0.00  0.00    -0.391 OA
ATOM     26  H   UNL     1      -1.006  -1.961  -0.532  0.00  0.00    +0.210 HD
ENDBRANCH   5  25
BRANCH  17  27
ATOM     27  C   UNL     1       3.975   1.794   2.612  0.00  0.00    +0.106 C 
BRANCH  27  28
ATOM     28  C   UNL     1       5.415   2.239   2.639  0.00  0.00    +0.214 C 
ATOM     29  O   UNL     1       5.911   2.747   1.655  0.00  0.00    -0.276 OA
ATOM     30  N   UNL     1       6.151   2.072   3.755  0.00  0.00    -0.308 N 
ATOM     31  H   UNL     1       5.755   1.666   4.542  0.00  0.00    +0.149 HD
BRANCH  30  32
ATOM     32  C   UNL     1       7.551   2.505   3.781  0.00  0.00    +0.178 C 
BRANCH  32  33
ATOM     33  C   UNL     1       8.143   2.208   5.134  0.00  0.00    +0.122 A 
ATOM     34  C   UNL     1       8.759   1.066   5.490  0.00  0.00    +0.046 A 
ATOM     35  C   UNL     1       9.158   1.219   6.838  0.00  0.00    +0.041 A 
ATOM     36  C   UNL     1       8.756   2.442   7.228  0.00  0.00    +0.195 A 
ATOM     37  O   UNL     1       8.142   3.036   6.191  0.00  0.00    -0.466 OA
ENDBRANCH  32  33
ENDBRANCH  30  32
ENDBRANCH  27  28
ENDBRANCH  17  27
BRANCH   6  38
ATOM     38  C   UNL     1      -0.975   1.535   0.857  0.00  0.00    +0.165 C 
BRANCH  38  39
ATOM     39  O   UNL     1      -2.277   0.998   0.614  0.00  0.00    -0.394 OA
ATOM     40  H   UNL     1      -2.916   1.184   1.315  0.00  0.00    +0.209 HD
ENDBRANCH  38  39
ENDBRANCH   6  38
TORSDOF 8
