REMARK  Name = ZINC20690915
REMARK  9 active torsions:
REMARK  status: ('A' for Active; 'I' for Inactive)
REMARK    1  A    between atoms: C_1  and  C_2
REMARK    2  A    between atoms: C_2  and  C_3
REMARK    3  A    between atoms: C_2  and  C_4
REMARK    4  A    between atoms: C_2  and  N_5
REMARK    5  A    between atoms: C_6  and  C_8
REMARK    6  A    between atoms: C_21  and  C_24
REMARK    7  A    between atoms: C_27  and  O_31
REMARK    8  A    between atoms: C_28  and  O_30
REMARK    9  A    between atoms: O_31  and  C_32
REMARK                            x       y       z     vdW  Elec       q    Type
REMARK                         _______ _______ _______ _____ _____    ______ ____
ROOT
ATOM      1  C   UNL     1      -3.630   4.587   0.191  0.00  0.00    +0.037 A 
ATOM      2  C   UNL     1      -3.623   5.231  -1.050  0.00  0.00    +0.015 A 
ATOM      3  C   UNL     1      -2.516   5.130  -1.861  0.00  0.00    +0.024 A 
ATOM      4  C   UNL     1      -1.410   4.391  -1.448  0.00  0.00    +0.031 A 
ATOM      5  C   UNL     1      -1.405   3.750  -0.215  0.00  0.00    -0.019 A 
ATOM      6  C   UNL     1      -2.518   3.850   0.600  0.00  0.00    +0.019 A 
ATOM      7  C   UNL     1      -0.234   2.954   0.268  0.00  0.00    +0.049 C 
ATOM      8  C   UNL     1      -0.502   1.471   0.173  0.00  0.00    -0.023 C 
ATOM      9  C   UNL     1       0.594   0.832  -0.158  0.00  0.00    -0.030 C 
ATOM     10  C   UNL     1       1.744   1.805  -0.333  0.00  0.00    +0.033 C 
ATOM     11  C   UNL     1       1.030   3.164  -0.590  0.00  0.00    +0.029 C 
ATOM     12  C   UNL     1       0.651   3.208  -2.073  0.00  0.00    +0.105 C 
ATOM     13  N   UNL     1      -0.302   4.301  -2.288  0.00  0.00    -0.336 N 
ATOM     14  H   UNL     1      -0.133   5.027  -3.098  0.00  0.00    +0.147 HD
ENDROOT
BRANCH  12  15
ATOM     15  C   UNL     1       0.016   1.900  -2.470  0.00  0.00    -0.023 A 
ATOM     16  C   UNL     1      -1.352   1.736  -2.361  0.00  0.00    +0.009 A 
ATOM     17  C   UNL     1      -1.939   0.538  -2.724  0.00  0.00    +0.050 A 
ATOM     18  C   UNL     1      -1.156  -0.501  -3.199  0.00  0.00    +0.161 A 
ATOM     19  C   UNL     1       0.221  -0.336  -3.309  0.00  0.00    +0.159 A 
ATOM     20  C   UNL     1       0.803   0.869  -2.948  0.00  0.00    +0.054 A 
BRANCH  19  21
ATOM     21  O   UNL     1       0.994  -1.354  -3.775  0.00  0.00    -0.503 OA
ATOM     22  H   UNL     1       2.083  -1.222  -3.862  0.00  0.00    +0.292 HD
ENDBRANCH  19  21
BRANCH  18  23
ATOM     23  O   UNL     1      -1.732  -1.680  -3.556  0.00  0.00    -0.491 OA
ATOM     24  C   UNL     1      -3.151  -1.778  -3.415  0.00  0.00    +0.277 C 
ENDBRANCH  18  23
ENDBRANCH  12  15
BRANCH   1  26
ATOM     25  N   UNL     1      -5.885   5.399   0.673  0.00  0.00    -0.307 N 
ATOM     26  C   UNL     1      -4.812   4.687   1.068  0.00  0.00    +0.244 C 
ATOM     27  O   UNL     1      -4.817   4.127   2.147  0.00  0.00    -0.270 OA
ATOM     28  H   UNL     1      -5.880   5.906  -0.304  0.00  0.00    +0.150 HD
BRANCH  25  30
ATOM     29  C   UNL     1      -6.656   6.144   2.871  0.00  0.00    +0.031 C 
ATOM     30  C   UNL     1      -7.059   5.499   1.544  0.00  0.00    +0.026 C 
ATOM     31  C   UNL     1      -8.127   6.358   0.863  0.00  0.00    +0.031 C 
ATOM     32  C   UNL     1      -7.620   4.100   1.806  0.00  0.00    +0.031 C 
ENDBRANCH  25  30
ENDBRANCH   1  26
TORSDOF 5
