REMARK  Name = ZINC20212020
REMARK  7 active torsions:
REMARK  status: ('A' for Active; 'I' for Inactive)
REMARK    1  A    between atoms: C_3  and  C_8
REMARK    2  A    between atoms: C_8  and  C_9
REMARK    3  A    between atoms: C_9  and  N_10
REMARK    4  A    between atoms: C_21  and  N_25
REMARK    5  A    between atoms: N_25  and  C_26
REMARK    6  A    between atoms: C_26  and  C_27
REMARK    7  A    between atoms: C_29  and  C_33
REMARK                            x       y       z     vdW  Elec       q    Type
REMARK                         _______ _______ _______ _____ _____    ______ ____
ROOT
ATOM      1  N   UNL     1       1.601   1.359   4.185  0.00  0.00    -0.298 N 
ATOM      2  C   UNL     1       0.764   1.835   5.138  0.00  0.00    +0.203 A 
ATOM      3  N   UNL     1      -0.471   2.208   4.885  0.00  0.00    -0.230 NA
ATOM      4  C   UNL     1      -0.895   2.105   3.629  0.00  0.00    +0.116 A 
ATOM      5  C   UNL     1      -0.100   1.622   2.567  0.00  0.00    +0.076 A 
ATOM      6  C   UNL     1       1.242   1.225   2.886  0.00  0.00    +0.262 A 
ATOM      7  O   UNL     1       2.010   0.796   2.042  0.00  0.00    -0.267 OA
ATOM      8  C   UNL     1      -0.732   1.580   1.260  0.00  0.00    -0.023 A 
ATOM      9  C   UNL     1      -2.017   2.007   1.189  0.00  0.00    -0.003 A 
ATOM     10  S   UNL     1      -2.441   2.480   2.847  0.00  0.00    -0.073 S 
ATOM     11  C   UNL     1      -2.889   2.065  -0.027  0.00  0.00    +0.061 C 
ATOM     12  C   UNL     1      -2.239   1.220  -1.132  0.00  0.00    +0.059 C 
ATOM     13  C   UNL     1      -0.757   1.595  -1.227  0.00  0.00    +0.024 C 
ATOM     14  C   UNL     1      -0.013   1.086   0.008  0.00  0.00    +0.038 C 
ENDROOT
BRANCH  12  15
ATOM     15  N   UNL     1      -2.899   1.495  -2.415  0.00  0.00    -0.307 NA
ATOM     16  H   UNL     1      -3.207   2.550  -2.451  0.00  0.00    +0.123 HD
BRANCH  15  17
ATOM     17  C   UNL     1      -4.090   0.651  -2.586  0.00  0.00    +0.138 C 
BRANCH  17  18
ATOM     18  C   UNL     1      -4.739   0.960  -3.910  0.00  0.00    +0.077 A 
ATOM     19  C   UNL     1      -4.529   0.268  -5.107  0.00  0.00    +0.049 A 
ATOM     20  C   UNL     1      -5.291   0.849  -6.063  0.00  0.00    +0.039 A 
ATOM     21  N   UNL     1      -5.960   1.872  -5.490  0.00  0.00    -0.281 N 
ATOM     22  H   UNL     1      -6.641   2.490  -6.093  0.00  0.00    +0.189 HD
ATOM     23  N   UNL     1      -5.600   1.918  -4.137  0.00  0.00    -0.177 NA
BRANCH  20  24
ATOM     24  C   UNL     1      -5.378   0.429  -7.508  0.00  0.00    +0.037 C 
ATOM     25  C   UNL     1      -5.590   1.527  -8.551  0.00  0.00    +0.010 C 
ATOM     26  C   UNL     1      -6.733   0.569  -8.204  0.00  0.00    +0.010 C 
ENDBRANCH  20  24
ENDBRANCH  17  18
ENDBRANCH  15  17
ENDBRANCH  12  15
BRANCH   1  27
ATOM     27  C   UNL     1       2.958   0.972   4.578  0.00  0.00    +0.131 C 
BRANCH  27  28
ATOM     28  C   UNL     1       2.971  -0.504   4.980  0.00  0.00    +0.057 C 
BRANCH  28  31
ATOM     29  C   UNL     1       6.047  -1.145   7.074  0.00  0.00    +0.002 A 
ATOM     30  C   UNL     1       4.767  -0.779   6.702  0.00  0.00    +0.004 A 
ATOM     31  C   UNL     1       4.367  -0.903   5.384  0.00  0.00    -0.044 A 
ATOM     32  C   UNL     1       5.246  -1.397   4.439  0.00  0.00    +0.023 A 
ATOM     33  C   UNL     1       6.529  -1.759   4.809  0.00  0.00    +0.041 A 
ATOM     34  C   UNL     1       6.928  -1.635   6.128  0.00  0.00    +0.020 A 
ATOM     35 CL   UNL     1       7.635  -2.374   3.621  0.00  0.00    -0.084 Cl
ENDBRANCH  28  31
ENDBRANCH  27  28
ENDBRANCH   1  27
TORSDOF 7
