REMARK  Name = ZINC36056962
REMARK  8 active torsions:
REMARK  status: ('A' for Active; 'I' for Inactive)
REMARK    1  A    between atoms: C_1  and  C_2
REMARK    2  A    between atoms: C_2  and  C_3
REMARK    3  A    between atoms: C_2  and  C_4
REMARK    4  A    between atoms: C_2  and  C_5
REMARK    5  A    between atoms: C_15  and  C_16
REMARK    6  A    between atoms: C_15  and  O_20
REMARK    7  A    between atoms: C_23  and  C_26
REMARK    8  A    between atoms: C_26  and  N_28
REMARK                            x       y       z     vdW  Elec       q    Type
REMARK                         _______ _______ _______ _____ _____    ______ ____
ROOT
ATOM      1  C   UNL     1       0.628  -0.441  -1.324  0.00  0.00    +0.041 C 
ATOM      2  C   UNL     1      -0.118   0.212  -2.499  0.00  0.00    +0.010 C 
ATOM      3  C   UNL     1       0.119   1.721  -2.502  0.00  0.00    +0.001 C 
ATOM      4  C   UNL     1       1.600   2.050  -2.720  0.00  0.00    +0.014 C 
ATOM      5  C   UNL     1       2.393   1.519  -1.524  0.00  0.00    +0.097 C 
ATOM      6  C   UNL     1       2.063   0.035  -1.403  0.00  0.00    +0.049 C 
ATOM      7  N   UNL     1       3.128  -0.640  -1.404  0.00  0.00    -0.183 NA
ATOM      8  N   UNL     1       4.288   0.112  -1.600  0.00  0.00    -0.160 N 
ATOM      9  C   UNL     1       3.905   1.549  -1.780  0.00  0.00    +0.258 C 
ATOM     10  C   UNL     1       5.580  -0.386  -1.618  0.00  0.00    +0.184 A 
ATOM     11  N   UNL     1       5.995  -1.628  -1.468  0.00  0.00    -0.221 NA
ATOM     12  C   UNL     1       7.293  -1.933  -1.514  0.00  0.00    +0.101 A 
ATOM     13  C   UNL     1       8.206  -0.929  -1.723  0.00  0.00    +0.078 A 
ATOM     14  S   UNL     1       7.121   0.486  -1.859  0.00  0.00    -0.058 S 
ENDROOT
BRANCH   1  16
ATOM     15  C   UNL     1       0.649   1.303   0.465  0.00  0.00    +0.011 C 
ATOM     16  C   UNL     1       0.002  -0.004   0.002  0.00  0.00    -0.030 C 
ATOM     17  C   UNL     1       0.233  -1.088   1.057  0.00  0.00    +0.011 C 
ATOM     18  C   UNL     1      -1.501   0.210  -0.189  0.00  0.00    +0.011 C 
ENDBRANCH   1  16
BRANCH   9  19
ATOM     19  C   UNL     1       4.609   2.442  -0.756  0.00  0.00    +0.438 C 
ATOM     20  F   UNL     1       4.378   1.946   0.532  0.00  0.00    -0.166 F 
ATOM     21  F   UNL     1       5.984   2.451  -1.012  0.00  0.00    -0.166 F 
ATOM     22  F   UNL     1       4.108   3.745  -0.851  0.00  0.00    -0.166 F 
ENDBRANCH   9  19
BRANCH   9  23
ATOM     23  O   UNL     1       4.183   1.989  -3.111  0.00  0.00    -0.363 OA
ATOM     24  H   UNL     1       5.125   2.026  -3.324  0.00  0.00    +0.212 HD
ENDBRANCH   9  23
BRANCH  12  25
ATOM     25  C   UNL     1       7.739  -3.323  -1.344  0.00  0.00    +0.096 C 
ATOM     26  S   UNL     1       6.590  -4.566  -1.084  0.00  0.00    -0.034 S 
BRANCH  25  27
ATOM     27  N   UNL     1       9.053  -3.620  -1.393  0.00  0.00    -0.351 N 
ATOM     28  H   UNL     1       9.704  -2.917  -1.540  0.00  0.00    +0.143 HD
ATOM     29  H   UNL     1       9.348  -4.538  -1.280  0.00  0.00    +0.143 HD
ENDBRANCH  25  27
ENDBRANCH  12  25
TORSDOF 5
