REMARK  Name = ZINC12412177
REMARK  10 active torsions:
REMARK  status: ('A' for Active; 'I' for Inactive)
REMARK    1  A    between atoms: C_1  and  C_2
REMARK    2  A    between atoms: C_2  and  O_3
REMARK    3  A    between atoms: O_3  and  C_4
REMARK    4  A    between atoms: C_7  and  C_13
REMARK    5  A    between atoms: C_9  and  O_10
REMARK    6  A    between atoms: O_10  and  C_11
REMARK    7  A    between atoms: C_11  and  C_12
REMARK    8  A    between atoms: C_13  and  C_14
REMARK    9  A    between atoms: C_22  and  C_24
REMARK   10  A    between atoms: C_22  and  C_30
REMARK                            x       y       z     vdW  Elec       q    Type
REMARK                         _______ _______ _______ _____ _____    ______ ____
ROOT
ATOM      1  C   UNL     1      -1.893  -6.557   1.587  0.00  0.00    +0.078 C 
ATOM      2  N   UNL     1      -0.849  -7.057   2.179  0.00  0.00    -0.346 N 
ATOM      3  C   UNL     1      -0.953  -7.696   3.386  0.00  0.00    +0.046 A 
ATOM      4  C   UNL     1       0.191  -7.994   4.127  0.00  0.00    +0.026 A 
ATOM      5  C   UNL     1       0.071  -8.626   5.348  0.00  0.00    +0.002 A 
ATOM      6  C   UNL     1      -1.177  -8.964   5.840  0.00  0.00    +0.000 A 
ATOM      7  C   UNL     1      -2.316  -8.676   5.107  0.00  0.00    +0.008 A 
ATOM      8  C   UNL     1      -2.207  -8.050   3.885  0.00  0.00    +0.008 A 
ATOM      9  C   UNL     1      -3.436  -7.756   3.058  0.00  0.00    +0.111 C 
ATOM     10  N   UNL     1      -3.125  -6.611   2.184  0.00  0.00    -0.316 N 
ATOM     11  H   UNL     1      -3.779  -5.911   2.031  0.00  0.00    +0.149 HD
ATOM     12  H   UNL     1       0.020  -6.977   1.757  0.00  0.00    +0.167 HD
ENDROOT
BRANCH   9  13
ATOM     13  C   UNL     1      -3.789  -8.959   2.223  0.00  0.00    -0.015 A 
ATOM     14  C   UNL     1      -3.495 -10.230   2.682  0.00  0.00    +0.006 A 
ATOM     15  C   UNL     1      -3.819 -11.334   1.916  0.00  0.00    +0.000 A 
ATOM     16  C   UNL     1      -4.438 -11.167   0.691  0.00  0.00    +0.000 A 
ATOM     17  C   UNL     1      -4.734  -9.897   0.233  0.00  0.00    +0.000 A 
ATOM     18  C   UNL     1      -4.413  -8.793   1.000  0.00  0.00    +0.006 A 
ENDBRANCH   9  13
BRANCH   9  19
ATOM     19  C   UNL     1      -4.588  -7.405   3.963  0.00  0.00    -0.015 A 
ATOM     20  C   UNL     1      -4.850  -6.083   4.269  0.00  0.00    +0.006 A 
ATOM     21  C   UNL     1      -5.907  -5.761   5.099  0.00  0.00    +0.000 A 
ATOM     22  C   UNL     1      -6.703  -6.762   5.624  0.00  0.00    +0.000 A 
ATOM     23  C   UNL     1      -6.442  -8.085   5.318  0.00  0.00    +0.000 A 
ATOM     24  C   UNL     1      -5.387  -8.406   4.484  0.00  0.00    +0.006 A 
ENDBRANCH   9  19
BRANCH   1  25
ATOM     25  C   UNL     1      -1.744  -5.906   0.236  0.00  0.00    +0.104 C 
BRANCH  25  29
ATOM     26  C   UNL     1      -0.889  -1.747   0.742  0.00  0.00    +0.162 A 
ATOM     27  C   UNL     1       0.145  -2.666   0.672  0.00  0.00    +0.050 A 
ATOM     28  C   UNL     1      -0.135  -4.010   0.509  0.00  0.00    +0.008 A 
ATOM     29  C   UNL     1      -1.445  -4.440   0.415  0.00  0.00    -0.037 A 
ATOM     30  C   UNL     1      -2.482  -3.528   0.483  0.00  0.00    +0.053 A 
ATOM     31  C   UNL     1      -2.209  -2.180   0.653  0.00  0.00    +0.162 A 
BRANCH  26  32
ATOM     32  O   UNL     1      -0.616  -0.424   0.903  0.00  0.00    -0.489 OA
BRANCH  32  34
ATOM     33  C   UNL     1       0.870   1.463   1.166  0.00  0.00    +0.048 C 
ATOM     34  C   UNL     1       0.761  -0.052   0.987  0.00  0.00    +0.226 C 
ENDBRANCH  32  34
ENDBRANCH  26  32
BRANCH  31  35
ATOM     35  O   UNL     1      -3.227  -1.282   0.727  0.00  0.00    -0.489 OA
BRANCH  35  36
ATOM     36  C   UNL     1      -4.556  -1.799   0.628  0.00  0.00    +0.226 C 
ATOM     37  C   UNL     1      -5.560  -0.649   0.732  0.00  0.00    +0.048 C 
ENDBRANCH  35  36
ENDBRANCH  31  35
ENDBRANCH  25  29
ENDBRANCH   1  25
TORSDOF 8
