REMARK  Name = ZINC13657057
REMARK  8 active torsions:
REMARK  status: ('A' for Active; 'I' for Inactive)
REMARK    1  A    between atoms: C_1  and  C_2
REMARK    2  A    between atoms: C_4  and  N_10
REMARK    3  A    between atoms: N_5  and  C_7
REMARK    4  A    between atoms: C_7  and  C_8
REMARK    5  A    between atoms: C_7  and  C_9
REMARK    6  A    between atoms: C_11  and  C_13
REMARK    7  A    between atoms: N_19  and  S_20
REMARK    8  A    between atoms: S_20  and  C_23
REMARK                            x       y       z     vdW  Elec       q    Type
REMARK                         _______ _______ _______ _____ _____    ______ ____
ROOT
ATOM      1  C   UNL     1       2.627   0.877   0.054  0.00  0.00    +0.166 C 
ATOM      2  C   UNL     1       2.625  -0.089  -1.135  0.00  0.00    +0.030 C 
ATOM      3  C   UNL     1       4.037  -0.644  -1.338  0.00  0.00    +0.003 C 
ATOM      4  C   UNL     1       5.001   0.503  -1.646  0.00  0.00    +0.017 C 
ATOM      5  C   UNL     1       5.029   1.474  -0.461  0.00  0.00    +0.110 C 
ATOM      6  N   UNL     1       3.655   1.903  -0.169  0.00  0.00    -0.164 NA
ENDROOT
BRANCH   1   8
ATOM      7  N   UNL     1       0.529   1.344   1.280  0.00  0.00    -0.269 N 
ATOM      8  C   UNL     1       1.275   1.534   0.174  0.00  0.00    +0.237 C 
ATOM      9  O   UNL     1       0.859   2.233  -0.726  0.00  0.00    -0.274 OA
ATOM     10  H   UNL     1       0.862   0.784   1.999  0.00  0.00    +0.156 HD
BRANCH   7  14
ATOM     11  C   UNL     1      -3.548   4.036   0.262  0.00  0.00    +0.067 C 
ATOM     12  C   UNL     1      -2.557   3.141   0.961  0.00  0.00    +0.062 A 
ATOM     13  C   UNL     1      -1.309   2.756   0.464  0.00  0.00    +0.068 A 
ATOM     14  C   UNL     1      -0.724   1.947   1.388  0.00  0.00    +0.124 A 
ATOM     15  N   UNL     1      -1.575   1.838   2.433  0.00  0.00    -0.248 N 
ATOM     16  N   UNL     1      -2.716   2.596   2.140  0.00  0.00    -0.175 NA
BRANCH  15  17
ATOM     17  C   UNL     1      -1.345   1.064   3.656  0.00  0.00    +0.103 C 
ATOM     18  C   UNL     1      -1.382   1.999   4.866  0.00  0.00    +0.032 C 
ATOM     19  C   UNL     1      -2.436   0.001   3.799  0.00  0.00    +0.032 C 
ENDBRANCH  15  17
ENDBRANCH   7  14
ENDBRANCH   1   8
BRANCH   6  20
ATOM     20  S   UNL     1       3.272   3.512  -0.091  0.00  0.00    +0.068 S 
ATOM     21  O   UNL     1       2.100   3.613   0.707  0.00  0.00    -0.152 OA
ATOM     22  O   UNL     1       4.473   4.201   0.229  0.00  0.00    -0.152 OA
BRANCH  20  23
ATOM     23  C   UNL     1       2.818   4.019  -1.716  0.00  0.00    +0.144 A 
ATOM     24  C   UNL     1       1.582   4.157  -2.253  0.00  0.00    +0.038 A 
ATOM     25  C   UNL     1       1.463   4.577  -3.565  0.00  0.00    +0.030 A 
ATOM     26  C   UNL     1       2.589   4.828  -4.279  0.00  0.00    +0.080 A 
ATOM     27  S   UNL     1       3.869   4.476  -3.085  0.00  0.00    -0.057 S 
ATOM     28 CL   UNL     1       2.745   5.355  -5.926  0.00  0.00    -0.076 Cl
ENDBRANCH  20  23
ENDBRANCH   6  20
TORSDOF 5
