REMARK  Name = ZINC43763985
REMARK  14 active torsions:
REMARK  status: ('A' for Active; 'I' for Inactive)
REMARK    1  A    between atoms: C_1  and  C_2
REMARK    2  A    between atoms: C_2  and  C_3
REMARK    3  A    between atoms: C_2  and  C_4
REMARK    4  A    between atoms: C_14  and  C_15
REMARK    5  A    between atoms: C_14  and  O_32
REMARK    6  A    between atoms: C_15  and  C_16
REMARK    7  A    between atoms: C_16  and  N_17
REMARK    8  A    between atoms: N_17  and  C_18
REMARK    9  A    between atoms: N_17  and  C_19
REMARK   10  A    between atoms: C_19  and  C_20
REMARK   11  A    between atoms: C_20  and  C_21
REMARK   12  A    between atoms: C_21  and  C_22
REMARK   13  A    between atoms: O_32  and  C_33
REMARK   14  A    between atoms: C_33  and  C_35
REMARK                            x       y       z     vdW  Elec       q    Type
REMARK                         _______ _______ _______ _____ _____    ______ ____
ROOT
ATOM      1  C   UNL     1      -1.733  -0.733   0.354  0.00  0.00    +0.066 C 
ATOM      2  C   UNL     1      -2.697  -0.552  -0.790  0.00  0.00    -0.037 A 
ATOM      3  C   UNL     1      -3.317   0.683  -0.924  0.00  0.00    +0.007 A 
ATOM      4  C   UNL     1      -4.205   0.915  -1.953  0.00  0.00    +0.038 A 
ATOM      5  C   UNL     1      -4.481  -0.093  -2.862  0.00  0.00    +0.124 A 
ATOM      6  C   UNL     1      -3.866  -1.323  -2.729  0.00  0.00    +0.042 A 
ATOM      7  C   UNL     1      -2.974  -1.557  -1.690  0.00  0.00    -0.041 A 
ATOM      8  C   UNL     1      -2.352  -2.925  -1.595  0.00  0.00    +0.039 C 
ATOM      9  C   UNL     1      -1.113  -2.891  -0.703  0.00  0.00    +0.053 C 
ATOM     10  C   UNL     1      -1.489  -2.216   0.621  0.00  0.00    +0.119 C 
ATOM     11  F   UNL     1      -5.348   0.126  -3.875  0.00  0.00    -0.205 F 
ENDROOT
BRANCH   1  13
ATOM     12  C   UNL     1       0.016  -0.458  -1.409  0.00  0.00    +0.008 C 
ATOM     13  C   UNL     1      -0.405  -0.058   0.006  0.00  0.00    -0.006 C 
ATOM     14  C   UNL     1      -0.571   1.462   0.078  0.00  0.00    +0.008 C 
ENDBRANCH   1  13
BRANCH  10  15
ATOM     15  C   UNL     1      -0.346  -2.378   1.624  0.00  0.00    +0.030 C 
BRANCH  15  16
ATOM     16  C   UNL     1      -0.687  -1.627   2.912  0.00  0.00    -0.075 C 
BRANCH  16  17
ATOM     17  N   UNL     1       0.350  -1.887   3.920  0.00  0.00    +0.378 N 
ATOM     18  C   UNL     1       1.627  -1.320   3.466  0.00  0.00    -0.096 C 
ATOM     19  H   UNL     1       0.451  -2.882   4.050  0.00  0.00    -0.082 HD
BRANCH  17  20
ATOM     20  C   UNL     1      -0.038  -1.264   5.193  0.00  0.00    -0.079 C 
BRANCH  20  21
ATOM     21  C   UNL     1       0.978  -1.638   6.274  0.00  0.00    -0.011 C 
BRANCH  21  22
ATOM     22  C   UNL     1       0.575  -0.990   7.599  0.00  0.00    +0.072 C 
BRANCH  22  23
ATOM     23  C   UNL     1       1.575  -1.359   8.664  0.00  0.00    +0.108 A 
ATOM     24  N   UNL     1       2.255  -0.469   9.437  0.00  0.00    -0.342 N 
ATOM     25  H   UNL     1       2.183   0.498   9.399  0.00  0.00    +0.167 HD
ATOM     26  C   UNL     1       3.068  -1.196  10.283  0.00  0.00    +0.066 A 
ATOM     27  C   UNL     1       3.976  -0.860  11.278  0.00  0.00    +0.028 A 
ATOM     28  C   UNL     1       4.644  -1.855  11.957  0.00  0.00    +0.002 A 
ATOM     29  C   UNL     1       4.415  -3.190  11.653  0.00  0.00    +0.002 A 
ATOM     30  C   UNL     1       3.526  -3.540  10.678  0.00  0.00    +0.030 A 
ATOM     31  C   UNL     1       2.836  -2.548   9.976  0.00  0.00    +0.089 A 
ATOM     32  N   UNL     1       1.910  -2.575   8.983  0.00  0.00    -0.232 NA
ENDBRANCH  22  23
ENDBRANCH  21  22
ENDBRANCH  20  21
ENDBRANCH  17  20
ENDBRANCH  16  17
ENDBRANCH  15  16
ENDBRANCH  10  15
BRANCH  10  33
ATOM     33  O   UNL     1      -2.678  -2.813   1.144  0.00  0.00    -0.457 OA
BRANCH  33  34
ATOM     34  C   UNL     1      -2.658  -4.141   1.341  0.00  0.00    +0.311 C 
ATOM     35  O   UNL     1      -1.656  -4.772   1.100  0.00  0.00    -0.251 OA
BRANCH  34  36
ATOM     36  C   UNL     1      -3.884  -4.844   1.863  0.00  0.00    +0.098 C 
ATOM     37  C   UNL     1      -3.818  -5.423   3.278  0.00  0.00    +0.015 C 
ATOM     38  C   UNL     1      -3.797  -6.358   2.066  0.00  0.00    +0.015 C 
ENDBRANCH  34  36
ENDBRANCH  33  34
ENDBRANCH  10  33
TORSDOF 11
