REMARK  Name = ZINC43667441
REMARK  5 active torsions:
REMARK  status: ('A' for Active; 'I' for Inactive)
REMARK    1  A    between atoms: C_1  and  C_2
REMARK    2  A    between atoms: C_4  and  N_18
REMARK    3  A    between atoms: N_5  and  C_7
REMARK    4  A    between atoms: C_7  and  C_9
REMARK    5  A    between atoms: C_7  and  C_10
REMARK                            x       y       z     vdW  Elec       q    Type
REMARK                         _______ _______ _______ _____ _____    ______ ____
ROOT
ATOM      1  C   UNL     1      -0.018   1.503   0.010  0.00  0.00    +0.069 C 
ATOM      2  C   UNL     1       0.002  -0.004   0.002  0.00  0.00    +0.080 A 
ATOM      3  C   UNL     1       0.008  -0.815  -1.136  0.00  0.00    +0.103 A 
ATOM      4  C   UNL     1       0.027  -2.113  -0.724  0.00  0.00    +0.134 A 
ATOM      5  N   UNL     1       0.034  -2.109   0.634  0.00  0.00    -0.242 N 
ATOM      6  N   UNL     1       0.023  -0.775   1.059  0.00  0.00    -0.173 NA
ATOM      7 CL   UNL     1      -0.008  -0.266  -2.783  0.00  0.00    -0.078 Cl
ENDROOT
BRANCH   4   8
ATOM      8  N   UNL     1       0.039  -3.238  -1.545  0.00  0.00    -0.342 N 
ATOM      9  H   UNL     1       0.033  -3.135  -2.510  0.00  0.00    +0.144 HD
ATOM     10  H   UNL     1       0.052  -4.125  -1.153  0.00  0.00    +0.144 HD
ENDBRANCH   4   8
BRANCH   5  11
ATOM     11  C   UNL     1       0.053  -3.291   1.500  0.00  0.00    +0.142 C 
ATOM     12  C   UNL     1       1.306  -3.259   2.378  0.00  0.00    +0.038 C 
BRANCH  11  13
ATOM     13  C   UNL     1      -1.173  -3.293   2.376  0.00  0.00    +0.047 A 
ATOM     14  C   UNL     1      -1.406  -2.240   3.244  0.00  0.00    +0.131 A 
ATOM     15  C   UNL     1      -2.533  -2.243   4.048  0.00  0.00    +0.039 A 
ATOM     16  C   UNL     1      -3.426  -3.296   3.984  0.00  0.00    +0.006 A 
ATOM     17  C   UNL     1      -3.194  -4.348   3.118  0.00  0.00    +0.039 A 
ATOM     18  C   UNL     1      -2.071  -4.344   2.308  0.00  0.00    +0.131 A 
ATOM     19  F   UNL     1      -1.848  -5.369   1.457  0.00  0.00    -0.205 F 
ATOM     20  F   UNL     1      -0.533  -1.210   3.307  0.00  0.00    -0.205 F 
ENDBRANCH  11  13
ENDBRANCH   5  11
TORSDOF 3
