REMARK  Name = ZINC14958142
REMARK  14 active torsions:
REMARK  status: ('A' for Active; 'I' for Inactive)
REMARK    1  A    between atoms: C_1  and  C_2
REMARK    2  A    between atoms: C_4  and  C_31
REMARK    3  A    between atoms: C_6  and  C_8
REMARK    4  A    between atoms: N_10  and  C_11
REMARK    5  A    between atoms: C_11  and  C_13
REMARK    6  A    between atoms: C_11  and  C_17
REMARK    7  A    between atoms: C_13  and  C_14
REMARK    8  A    between atoms: C_14  and  C_15
REMARK    9  A    between atoms: C_14  and  C_16
REMARK   10  A    between atoms: C_26  and  C_27
REMARK   11  A    between atoms: C_26  and  N_70
REMARK   12  A    between atoms: C_27  and  C_28
REMARK   13  A    between atoms: C_28  and  C_29
REMARK   14  A    between atoms: C_28  and  C_30
REMARK                            x       y       z     vdW  Elec       q    Type
REMARK                         _______ _______ _______ _____ _____    ______ ____
ROOT
ATOM      1  C   UNL     1      -1.133   5.288   5.816  0.00  0.00    +0.142 C 
ENDROOT
BRANCH   1   2
ATOM      2  C   UNL     1       0.055   4.410   5.514  0.00  0.00    +0.154 A 
ATOM      3  N   UNL     1       1.262   4.545   5.996  0.00  0.00    -0.132 NA
ATOM      4  N   UNL     1       2.022   3.614   5.533  0.00  0.00    -0.134 NA
ATOM      5  C   UNL     1       1.333   2.843   4.743  0.00  0.00    +0.132 A 
ATOM      6  N   UNL     1       0.071   3.337   4.696  0.00  0.00    -0.315 N 
ATOM      7  C   UNL     1      -1.031   2.807   3.892  0.00  0.00    +0.106 C 
ATOM      8  C   UNL     1      -0.816   1.307   3.670  0.00  0.00    -0.057 C 
ATOM      9  C   UNL     1       1.313   1.694   2.555  0.00  0.00    -0.071 C 
ATOM     10  C   UNL     1       1.807   1.619   4.004  0.00  0.00    +0.058 C 
ATOM     11  N   UNL     1      -0.017   1.056   2.447  0.00  0.00    +0.381 N 
ATOM     12  H   UNL     1       0.110   0.043   2.337  0.00  0.00    -0.082 HD
BRANCH  11  13
ATOM     13  C   UNL     1      -0.729   1.579   1.267  0.00  0.00    -0.078 C 
BRANCH  13  14
ATOM     14  C   UNL     1      -0.013   1.086   0.008  0.00  0.00    -0.016 C 
BRANCH  14  15
ATOM     15  C   UNL     1      -0.753   1.593  -1.232  0.00  0.00    -0.019 C 
ATOM     16  C   UNL     1       0.031   1.205  -2.487  0.00  0.00    +0.007 C 
ATOM     17  C   UNL     1      -2.147   0.964  -1.286  0.00  0.00    +0.007 C 
ENDBRANCH  14  15
ENDBRANCH  13  14
ENDBRANCH  11  13
ENDBRANCH   1   2
BRANCH   1  20
ATOM     18  C   UNL     1      -2.379   5.845   7.834  0.00  0.00    +0.245 C 
ATOM     19  O   UNL     1      -3.388   5.910   7.158  0.00  0.00    -0.270 OA
ATOM     20  N   UNL     1      -1.200   5.540   7.257  0.00  0.00    -0.301 N 
ATOM     21  H   UNL     1      -0.396   5.488   7.797  0.00  0.00    +0.150 HD
BRANCH  18  27
ATOM     22  C   UNL     1      -0.115   6.184  12.268  0.00  0.00    +0.044 C 
ATOM     23  C   UNL     1      -1.362   6.263  11.425  0.00  0.00    -0.049 A 
ATOM     24  C   UNL     1      -2.575   6.576  12.014  0.00  0.00    +0.006 A 
ATOM     25  C   UNL     1      -3.724   6.651  11.247  0.00  0.00    -0.049 A 
ATOM     26  C   UNL     1      -3.667   6.415   9.889  0.00  0.00    +0.016 A 
ATOM     27  C   UNL     1      -2.447   6.099   9.289  0.00  0.00    +0.037 A 
ATOM     28  C   UNL     1      -1.293   6.019  10.069  0.00  0.00    +0.016 A 
ATOM     29  C   UNL     1      -5.040   6.992  11.897  0.00  0.00    +0.044 C 
ENDBRANCH  18  27
ENDBRANCH   1  20
BRANCH   1  30
ATOM     30  C   UNL     1      -0.986   6.617   5.072  0.00  0.00    +0.033 C 
BRANCH  30  31
ATOM     31  C   UNL     1      -2.248   7.458   5.277  0.00  0.00    -0.015 C 
ATOM     32  C   UNL     1      -2.052   8.834   4.638  0.00  0.00    +0.007 C 
ATOM     33  C   UNL     1      -3.440   6.757   4.623  0.00  0.00    +0.007 C 
ENDBRANCH  30  31
ENDBRANCH   1  30
TORSDOF 8
