REMARK  Name = ZINC12522139
REMARK  8 active torsions:
REMARK  status: ('A' for Active; 'I' for Inactive)
REMARK    1  A    between atoms: C_1  and  C_2
REMARK    2  A    between atoms: C_4  and  C_14
REMARK    3  A    between atoms: C_5  and  C_13
REMARK    4  A    between atoms: N_6  and  C_7
REMARK    5  A    between atoms: C_15  and  C_16
REMARK    6  A    between atoms: N_18  and  C_19
REMARK    7  A    between atoms: C_22  and  S_25
REMARK    8  A    between atoms: S_25  and  N_28
REMARK                            x       y       z     vdW  Elec       q    Type
REMARK                         _______ _______ _______ _____ _____    ______ ____
ROOT
ATOM      1  C   UNL     1       0.049  -4.440  -3.612  0.00  0.00    +0.241 C 
ATOM      2  O   UNL     1       0.074  -5.538  -3.087  0.00  0.00    -0.270 OA
ATOM      3  N   UNL     1       0.040  -4.335  -4.956  0.00  0.00    -0.282 N 
ATOM      4  H   UNL     1      -0.048  -3.464  -5.373  0.00  0.00    +0.155 HD
ENDROOT
BRANCH   3   5
ATOM      5  C   UNL     1       0.157  -5.481  -5.747  0.00  0.00    +0.034 A 
ATOM      6  C   UNL     1       0.853  -5.430  -6.948  0.00  0.00    +0.025 A 
ATOM      7  C   UNL     1       0.967  -6.564  -7.728  0.00  0.00    +0.031 A 
ATOM      8  C   UNL     1       0.389  -7.750  -7.314  0.00  0.00    +0.113 A 
ATOM      9  C   UNL     1      -0.304  -7.805  -6.119  0.00  0.00    +0.031 A 
ATOM     10  C   UNL     1      -0.417  -6.676  -5.332  0.00  0.00    +0.025 A 
BRANCH   8  11
ATOM     11  S   UNL     1       0.537  -9.195  -8.312  0.00  0.00    +0.100 S 
ATOM     12  O   UNL     1      -0.554 -10.039  -7.969  0.00  0.00    -0.146 OA
ATOM     13  O   UNL     1       0.767  -8.749  -9.641  0.00  0.00    -0.146 OA
BRANCH  11  14
ATOM     14  N   UNL     1       1.913  -9.982  -7.833  0.00  0.00    -0.118 NA
ATOM     15  C   UNL     1       2.261 -11.086  -8.410  0.00  0.00    +0.117 C 
ATOM     16  C   UNL     1       1.408 -11.662  -9.537  0.00  0.00    +0.073 C 
ATOM     17  C   UNL     1       2.201 -11.520 -10.819  0.00  0.00    +0.008 C 
ATOM     18  C   UNL     1       3.122 -12.708 -11.099  0.00  0.00    +0.002 C 
ATOM     19  C   UNL     1       3.868 -13.196  -9.856  0.00  0.00    +0.019 C 
ATOM     20  C   UNL     1       4.409 -12.068  -9.004  0.00  0.00    +0.102 C 
ATOM     21  N   UNL     1       3.356 -11.714  -8.030  0.00  0.00    -0.331 N 
ATOM     22  H   UNL     1       3.474 -11.950  -7.096  0.00  0.00    +0.147 HD
ENDBRANCH  11  14
ENDBRANCH   8  11
ENDBRANCH   3   5
BRANCH   1  24
ATOM     23  C   UNL     1       0.037  -3.378  -1.462  0.00  0.00    +0.015 C 
ATOM     24  C   UNL     1       0.028  -3.272  -2.810  0.00  0.00    +0.068 C 
BRANCH  23  28
ATOM     25  C   UNL     1      -0.059   1.503   0.010  0.00  0.00    +0.064 C 
ATOM     26  C   UNL     1      -0.027  -0.004   0.002  0.00  0.00    +0.022 A 
ATOM     27  C   UNL     1      -0.016  -0.777  -1.098  0.00  0.00    +0.031 A 
ATOM     28  C   UNL     1       0.016  -2.168  -0.631  0.00  0.00    -0.004 A 
ATOM     29  C   UNL     1       0.022  -2.108   0.748  0.00  0.00    +0.028 A 
ATOM     30  N   UNL     1       0.002  -0.801   1.111  0.00  0.00    -0.317 N 
ATOM     31  C   UNL     1       0.052  -3.287   1.686  0.00  0.00    +0.064 C 
BRANCH  30  32
ATOM     32  C   UNL     1       0.006  -0.337   2.433  0.00  0.00    +0.047 A 
ATOM     33  C   UNL     1       1.111  -0.556   3.244  0.00  0.00    +0.026 A 
ATOM     34  C   UNL     1       1.113  -0.096   4.547  0.00  0.00    +0.002 A 
ATOM     35  C   UNL     1       0.015   0.582   5.043  0.00  0.00    +0.000 A 
ATOM     36  C   UNL     1      -1.088   0.802   4.238  0.00  0.00    +0.002 A 
ATOM     37  C   UNL     1      -1.093   0.350   2.933  0.00  0.00    +0.026 A 
ENDBRANCH  30  32
ENDBRANCH  23  28
ENDBRANCH   1  24
TORSDOF 6
