REMARK  Name = ZINC36310150
REMARK  16 active torsions:
REMARK  status: ('A' for Active; 'I' for Inactive)
REMARK    1  A    between atoms: C_1  and  O_2
REMARK    2  A    between atoms: O_2  and  C_3
REMARK    3  A    between atoms: C_3  and  C_4
REMARK    4  A    between atoms: C_4  and  N_5
REMARK    5  A    between atoms: N_5  and  C_6
REMARK    6  A    between atoms: N_5  and  C_15
REMARK    7  A    between atoms: C_6  and  C_7
REMARK    8  A    between atoms: C_7  and  C_9
REMARK    9  A    between atoms: C_7  and  O_14
REMARK   10  A    between atoms: C_9  and  O_10
REMARK   11  A    between atoms: O_10  and  C_11
REMARK   12  A    between atoms: C_11  and  C_12
REMARK   13  A    between atoms: C_15  and  C_16
REMARK   14  A    between atoms: C_26  and  C_28
REMARK   15  A    between atoms: C_28  and  O_29
REMARK   16  A    between atoms: O_29  and  C_30
REMARK                            x       y       z     vdW  Elec       q    Type
REMARK                         _______ _______ _______ _____ _____    ______ ____
ROOT
ATOM      1  C   UNL     1      -0.246  -3.435   1.038  0.00  0.00    +0.200 C 
ATOM      2  O   UNL     1       0.158  -2.373   1.463  0.00  0.00    -0.278 OA
ATOM      3  N   UNL     1      -0.162  -4.543   1.801  0.00  0.00    -0.292 N 
ATOM      4  C   UNL     1      -0.643  -5.836   1.293  0.00  0.00    +0.113 C 
ATOM      5  C   UNL     1       0.561  -6.782   1.165  0.00  0.00    +0.061 C 
ATOM      6  C   UNL     1       1.418  -6.634   2.380  0.00  0.00    -0.004 A 
ATOM      7  C   UNL     1       1.403  -5.629   3.296  0.00  0.00    -0.014 A 
ATOM      8  C   UNL     1       2.318  -5.723   4.344  0.00  0.00    +0.013 A 
ATOM      9  C   UNL     1       3.159  -6.780   4.414  0.00  0.00    +0.046 A 
ATOM     10  S   UNL     1       2.691  -7.720   2.969  0.00  0.00    -0.101 S 
ATOM     11  C   UNL     1       0.418  -4.476   3.149  0.00  0.00    +0.144 C 
ENDROOT
BRANCH   1  12
ATOM     12  C   UNL     1      -0.843  -3.515  -0.344  0.00  0.00    +0.019 C 
BRANCH  12  13
ATOM     13  N   UNL     1      -0.820  -2.184  -0.965  0.00  0.00    +0.389 N 
ATOM     14  H   UNL     1      -1.259  -1.518  -0.348  0.00  0.00    -0.081 HD
BRANCH  13  15
ATOM     15  C   UNL     1       0.571  -1.782  -1.211  0.00  0.00    -0.050 C 
BRANCH  15  16
ATOM     16  C   UNL     1       0.600  -0.354  -1.760  0.00  0.00    +0.141 C 
BRANCH  16  18
ATOM     17  C   UNL     1       0.081   1.914  -1.185  0.00  0.00    +0.193 C 
ATOM     18  O   UNL     1       0.097   0.546  -0.771  0.00  0.00    -0.385 OA
ENDBRANCH  16  18
ENDBRANCH  15  16
ENDBRANCH  13  15
BRANCH  13  19
ATOM     19  C   UNL     1      -1.550  -2.226  -2.239  0.00  0.00    -0.044 C 
BRANCH  19  20
ATOM     20  C   UNL     1      -3.040  -2.446  -1.966  0.00  0.00    +0.124 C 
BRANCH  20  21
ATOM     21  O   UNL     1      -3.247  -3.779  -1.496  0.00  0.00    -0.391 OA
ATOM     22  H   UNL     1      -2.967  -4.464  -2.119  0.00  0.00    +0.210 HD
ENDBRANCH  20  21
BRANCH  20  23
ATOM     23  C   UNL     1      -3.832  -2.232  -3.258  0.00  0.00    +0.189 C 
BRANCH  23  24
ATOM     24  O   UNL     1      -5.231  -2.322  -2.979  0.00  0.00    -0.373 OA
BRANCH  24  25
ATOM     25  C   UNL     1      -6.064  -2.136  -4.125  0.00  0.00    +0.186 C 
BRANCH  25  26
ATOM     26  C   UNL     1      -7.511  -2.251  -3.717  0.00  0.00    -0.007 C 
ATOM     27  C   UNL     1      -8.386  -1.380  -4.154  0.00  0.00    +0.006 C 
ENDBRANCH  25  26
ENDBRANCH  24  25
ENDBRANCH  23  24
ENDBRANCH  20  23
ENDBRANCH  19  20
ENDBRANCH  13  19
ENDBRANCH  12  13
ENDBRANCH   1  12
BRANCH  11  28
ATOM     28  C   UNL     1      -0.689  -4.609   4.197  0.00  0.00    +0.256 C 
BRANCH  28  29
ATOM     29  O   UNL     1      -1.277  -5.908   4.106  0.00  0.00    -0.490 OA
BRANCH  29  30
ATOM     30  C   UNL     1      -2.285  -6.192   4.973  0.00  0.00    +0.121 A 
ATOM     31  C   UNL     1      -2.702  -5.237   5.888  0.00  0.00    +0.048 A 
ATOM     32  C   UNL     1      -3.726  -5.526   6.769  0.00  0.00    +0.042 A 
ATOM     33  C   UNL     1      -4.335  -6.769   6.739  0.00  0.00    +0.124 A 
ATOM     34  C   UNL     1      -3.920  -7.723   5.827  0.00  0.00    +0.042 A 
ATOM     35  C   UNL     1      -2.900  -7.434   4.940  0.00  0.00    +0.048 A 
ATOM     36  F   UNL     1      -5.336  -7.051   7.602  0.00  0.00    -0.205 F 
ENDBRANCH  29  30
ENDBRANCH  28  29
ENDBRANCH  11  28
TORSDOF 15
