REMARK  Name = ZINC39670905
REMARK  5 active torsions:
REMARK  status: ('A' for Active; 'I' for Inactive)
REMARK    1  A    between atoms: C_3  and  C_6
REMARK    2  A    between atoms: C_6  and  C_7
REMARK    3  A    between atoms: C_7  and  N_8
REMARK    4  A    between atoms: C_9  and  C_11
REMARK    5  A    between atoms: C_22  and  C_24
REMARK                            x       y       z     vdW  Elec       q    Type
REMARK                         _______ _______ _______ _____ _____    ______ ____
ROOT
ATOM      1  C   UNL     1       7.782   0.515   2.531  0.00  0.00    +0.100 C 
ATOM      2  C   UNL     1       8.345   1.735   1.768  0.00  0.00    +0.121 C 
ATOM      3  N   UNL     1       8.621   2.741   2.821  0.00  0.00    -0.296 N 
ATOM      4  C   UNL     1       9.167   1.951   3.951  0.00  0.00    +0.115 C 
ATOM      5  C   UNL     1       8.327   0.659   3.962  0.00  0.00    -0.004 C 
ATOM      6  C   UNL     1       7.175   0.788   4.955  0.00  0.00    -0.010 C 
ATOM      7  C   UNL     1       7.740   0.872   6.376  0.00  0.00    -0.082 C 
ATOM      8  N   UNL     1       8.528  -0.332   6.663  0.00  0.00    +0.379 N 
ATOM      9  C   UNL     1       9.686  -0.400   5.764  0.00  0.00    -0.082 C 
ATOM     10  C   UNL     1       9.203  -0.538   4.317  0.00  0.00    -0.010 C 
ATOM     11  C   UNL     1       8.420   4.072   2.765  0.00  0.00    +0.249 C 
ATOM     12  O   UNL     1       7.871   4.564   1.798  0.00  0.00    -0.270 OA
ATOM     13  H   UNL     1       8.848  -0.303   7.620  0.00  0.00    -0.086 HD
ATOM     14  H   UNL     1       7.951  -1.150   6.530  0.00  0.00    -0.086 HD
ENDROOT
BRANCH  11  15
ATOM     15  C   UNL     1       8.867   4.934   3.876  0.00  0.00    +0.072 A 
ATOM     16  C   UNL     1      10.038   4.627   4.574  0.00  0.00    +0.019 A 
ATOM     17  C   UNL     1      10.451   5.434   5.611  0.00  0.00    +0.039 A 
ATOM     18  C   UNL     1       9.708   6.551   5.965  0.00  0.00    +0.126 A 
ATOM     19  C   UNL     1       8.546   6.863   5.278  0.00  0.00    +0.077 A 
ATOM     20  C   UNL     1       8.124   6.064   4.232  0.00  0.00    +0.138 A 
ATOM     21  F   UNL     1       6.994   6.371   3.558  0.00  0.00    -0.205 F 
ATOM     22  F   UNL     1      10.119   7.338   6.983  0.00  0.00    -0.205 F 
ENDBRANCH  11  15
BRANCH   1  24
ATOM     23  N   UNL     1       5.576  -0.602   2.566  0.00  0.00    -0.315 N 
ATOM     24  C   UNL     1       6.276   0.549   2.537  0.00  0.00    +0.218 C 
ATOM     25  O   UNL     1       5.693   1.613   2.516  0.00  0.00    -0.275 OA
ATOM     26  H   UNL     1       6.041  -1.453   2.583  0.00  0.00    +0.149 HD
BRANCH  23  27
ATOM     27  C   UNL     1       4.111  -0.569   2.571  0.00  0.00    +0.112 C 
BRANCH  27  28
ATOM     28  C   UNL     1       3.568  -1.999   2.605  0.00  0.00    +0.093 C 
BRANCH  28  31
ATOM     29  C   UNL     1      -0.064  -1.931   1.987  0.00  0.00    +0.041 A 
ATOM     30  C   UNL     1       1.271  -1.971   1.523  0.00  0.00    +0.044 A 
ATOM     31  C   UNL     1       2.062  -1.965   2.611  0.00  0.00    +0.106 A 
ATOM     32  O   UNL     1       1.281  -1.923   3.703  0.00  0.00    -0.468 OA
ATOM     33  C   UNL     1      -0.009  -1.903   3.331  0.00  0.00    +0.195 A 
ENDBRANCH  28  31
ENDBRANCH  27  28
ENDBRANCH  23  27
ENDBRANCH   1  24
TORSDOF 5
