REMARK  Name = ZINC31046688
REMARK  10 active torsions:
REMARK  status: ('A' for Active; 'I' for Inactive)
REMARK    1  A    between atoms: C_1  and  C_2
REMARK    2  A    between atoms: C_2  and  C_3
REMARK    3  A    between atoms: C_2  and  C_4
REMARK    4  A    between atoms: C_4  and  C_5
REMARK    5  A    between atoms: C_5  and  C_7
REMARK    6  A    between atoms: C_5  and  N_13
REMARK    7  A    between atoms: C_14  and  C_16
REMARK    8  A    between atoms: N_21  and  C_23
REMARK    9  A    between atoms: C_23  and  C_24
REMARK   10  A    between atoms: C_26  and  C_29
REMARK                            x       y       z     vdW  Elec       q    Type
REMARK                         _______ _______ _______ _____ _____    ______ ____
ROOT
ATOM      1  C   UNL     1       0.325   1.329   0.253  0.00  0.00    +0.058 C 
ATOM      2  C   UNL     1      -0.322   1.859  -1.030  0.00  0.00    +0.009 C 
ATOM      3  C   UNL     1       0.554   1.482  -2.228  0.00  0.00    -0.018 C 
ATOM      4  C   UNL     1       1.959   2.055  -2.026  0.00  0.00    -0.078 C 
ATOM      5  N   UNL     1       2.535   1.518  -0.786  0.00  0.00    +0.386 N 
ATOM      6  C   UNL     1       1.736   1.907   0.383  0.00  0.00    -0.065 C 
ATOM      7  H   UNL     1       2.515   0.420  -0.856  0.00  0.00    -0.081 HD
ENDROOT
BRANCH   1   9
ATOM      8  N   UNL     1      -1.786   1.352   1.542  0.00  0.00    -0.308 N 
ATOM      9  C   UNL     1      -0.501   1.746   1.442  0.00  0.00    +0.215 C 
ATOM     10  O   UNL     1      -0.009   2.436   2.310  0.00  0.00    -0.276 OA
ATOM     11  H   UNL     1      -2.257   0.799   0.717  0.00  0.00    +0.149 HD
BRANCH   8  12
ATOM     12  C   UNL     1      -2.556   1.661   2.750  0.00  0.00    +0.103 C 
BRANCH  12  13
ATOM     13  C   UNL     1      -4.028   1.619   2.432  0.00  0.00    -0.027 A 
ATOM     14  C   UNL     1      -4.526   0.641   1.592  0.00  0.00    +0.005 A 
ATOM     15  C   UNL     1      -5.878   0.599   1.305  0.00  0.00    +0.000 A 
ATOM     16  C   UNL     1      -6.729   1.542   1.849  0.00  0.00    +0.000 A 
ATOM     17  C   UNL     1      -6.231   2.523   2.685  0.00  0.00    +0.000 A 
ATOM     18  C   UNL     1      -4.880   2.562   2.977  0.00  0.00    +0.005 A 
ENDBRANCH  12  13
BRANCH  12  19
ATOM     19  C   UNL     1      -2.238   0.630   3.835  0.00  0.00    +0.030 C 
BRANCH  19  21
ATOM     20  C   UNL     1      -2.730  -0.069   6.183  0.00  0.00    +0.007 C 
ATOM     21  C   UNL     1      -2.928   1.033   5.139  0.00  0.00    -0.015 C 
ATOM     22  C   UNL     1      -2.321   2.339   5.655  0.00  0.00    +0.007 C 
ENDBRANCH  19  21
ENDBRANCH  12  19
ENDBRANCH   8  12
ENDBRANCH   1   9
BRANCH   5  23
ATOM     23  C   UNL     1       3.934   1.937  -0.631  0.00  0.00    +0.022 C 
BRANCH  23  24
ATOM     24  C   UNL     1       4.664   1.746  -1.935  0.00  0.00    +0.211 A 
ATOM     25  N   UNL     1       4.775   2.624  -2.900  0.00  0.00    -0.193 NA
ATOM     26  C   UNL     1       5.510   2.018  -3.860  0.00  0.00    +0.202 A 
ATOM     27  N   UNL     1       5.793   0.816  -3.429  0.00  0.00    -0.056 NA
ATOM     28  O   UNL     1       5.314   0.645  -2.327  0.00  0.00    -0.340 OA
BRANCH  26  29
ATOM     29  C   UNL     1       5.916   2.604  -5.161  0.00  0.00    +0.023 A 
ATOM     30  C   UNL     1       5.536   3.904  -5.491  0.00  0.00    +0.013 A 
ATOM     31  C   UNL     1       5.921   4.447  -6.699  0.00  0.00    +0.021 A 
ATOM     32  C   UNL     1       6.673   3.699  -7.589  0.00  0.00    +0.041 A 
ATOM     33  C   UNL     1       7.048   2.406  -7.268  0.00  0.00    +0.021 A 
ATOM     34  C   UNL     1       6.673   1.856  -6.060  0.00  0.00    +0.013 A 
ATOM     35 CL   UNL     1       7.149   4.386  -9.111  0.00  0.00    -0.084 Cl
ENDBRANCH  26  29
ENDBRANCH  23  24
ENDBRANCH   5  23
TORSDOF 8
