REMARK  Name = ZINC46697697
REMARK  7 active torsions:
REMARK  status: ('A' for Active; 'I' for Inactive)
REMARK    1  A    between atoms: C_1  and  C_2
REMARK    2  A    between atoms: C_5  and  C_32
REMARK    3  A    between atoms: C_10  and  C_12
REMARK    4  A    between atoms: C_17  and  N_18
REMARK    5  A    between atoms: C_19  and  C_21
REMARK    6  A    between atoms: C_22  and  C_23
REMARK    7  A    between atoms: C_27  and  N_29
REMARK                            x       y       z     vdW  Elec       q    Type
REMARK                         _______ _______ _______ _____ _____    ______ ____
ROOT
ATOM      1  C   UNL     1       3.140  -2.188   1.350  0.00  0.00    +0.058 A 
ATOM      2  C   UNL     1       3.362  -0.809   1.329  0.00  0.00    +0.015 A 
ATOM      3  C   UNL     1       4.649  -0.319   1.383  0.00  0.00    +0.001 A 
ATOM      4  C   UNL     1       5.726  -1.187   1.458  0.00  0.00    +0.002 A 
ATOM      5  C   UNL     1       5.523  -2.552   1.480  0.00  0.00    +0.024 A 
ATOM      6  C   UNL     1       4.233  -3.065   1.433  0.00  0.00    +0.046 A 
ENDROOT
BRANCH   1  14
ATOM      7  C   UNL     1       1.466  -0.816  -3.124  0.00  0.00    +0.009 C 
ATOM      8  C   UNL     1       1.159  -1.898  -2.087  0.00  0.00    +0.004 C 
ATOM      9  C   UNL     1      -0.290  -2.362  -2.245  0.00  0.00    +0.009 C 
ATOM     10  C   UNL     1      -0.589  -3.467  -1.230  0.00  0.00    +0.004 C 
ATOM     11  C   UNL     1      -0.410  -2.914   0.188  0.00  0.00    +0.111 C 
ATOM     12  N   UNL     1       0.935  -2.335   0.304  0.00  0.00    -0.297 N 
ATOM     13  C   UNL     1       1.358  -1.327  -0.679  0.00  0.00    +0.111 C 
ATOM     14  C   UNL     1       1.766  -2.720   1.293  0.00  0.00    +0.248 C 
ATOM     15  O   UNL     1       1.382  -3.506   2.138  0.00  0.00    -0.270 OA
ATOM     16  C   UNL     1      -2.028  -3.953  -1.411  0.00  0.00    +0.009 C 
ENDBRANCH   1  14
BRANCH   6  17
ATOM     17  N   UNL     1       4.026  -4.440   1.462  0.00  0.00    -0.281 N 
ATOM     18  C   UNL     1       4.867  -5.234   2.153  0.00  0.00    +0.241 C 
ATOM     19  O   UNL     1       5.848  -4.757   2.694  0.00  0.00    -0.270 OA
ATOM     20  H   UNL     1       3.275  -4.828   0.985  0.00  0.00    +0.155 HD
BRANCH  18  21
ATOM     21  C   UNL     1       4.602  -6.670   2.254  0.00  0.00    +0.068 C 
ATOM     22  C   UNL     1       5.444  -7.465   2.945  0.00  0.00    +0.013 C 
BRANCH  22  23
ATOM     23  C   UNL     1       5.177  -8.909   3.047  0.00  0.00    -0.023 A 
ATOM     24  C   UNL     1       4.054  -9.461   2.422  0.00  0.00    +0.008 A 
ATOM     25  C   UNL     1       3.811 -10.815   2.521  0.00  0.00    +0.003 A 
ATOM     26  C   UNL     1       4.675 -11.626   3.237  0.00  0.00    +0.033 A 
ATOM     27  C   UNL     1       5.787 -11.087   3.858  0.00  0.00    +0.127 A 
ATOM     28  C   UNL     1       6.047  -9.736   3.763  0.00  0.00    +0.040 A 
BRANCH  27  29
ATOM     29  N   UNL     1       6.704 -11.963   4.622  0.00  0.00    +0.056 N 
ATOM     30  O   UNL     1       6.480 -13.148   4.702  0.00  0.00    -0.126 OA
ATOM     31  O   UNL     1       7.676 -11.493   5.165  0.00  0.00    -0.126 OA
ENDBRANCH  27  29
ENDBRANCH  22  23
ENDBRANCH  18  21
ENDBRANCH   6  17
TORSDOF 5
