REMARK  Name = ZINC04162958
REMARK  7 active torsions:
REMARK  status: ('A' for Active; 'I' for Inactive)
REMARK    1  A    between atoms: C_3  and  C_6
REMARK    2  A    between atoms: C_14  and  C_16
REMARK    3  A    between atoms: C_16  and  O_17
REMARK    4  A    between atoms: O_17  and  C_18
REMARK    5  A    between atoms: C_18  and  C_20
REMARK    6  A    between atoms: C_23  and  S_26
REMARK    7  A    between atoms: S_26  and  N_29
REMARK                            x       y       z     vdW  Elec       q    Type
REMARK                         _______ _______ _______ _____ _____    ______ ____
ROOT
ATOM      1  O   UNL     1       8.064  -5.320  -0.692  0.00  0.00    -0.452 OA
ENDROOT
BRANCH   1   2
ATOM      2  C   UNL     1       9.392  -5.522  -0.593  0.00  0.00    +0.340 C 
ATOM      3  O   UNL     1      10.151  -4.574  -0.577  0.00  0.00    -0.245 OA
BRANCH   2   4
ATOM      4  C   UNL     1       9.925  -6.897  -0.504  0.00  0.00    +0.059 A 
ATOM      5  C   UNL     1       9.056  -7.989  -0.528  0.00  0.00    +0.017 A 
ATOM      6  C   UNL     1       9.560  -9.271  -0.445  0.00  0.00    +0.029 A 
ATOM      7  C   UNL     1      10.925  -9.474  -0.337  0.00  0.00    +0.106 A 
ATOM      8  C   UNL     1      11.792  -8.396  -0.313  0.00  0.00    +0.029 A 
ATOM      9  C   UNL     1      11.301  -7.110  -0.402  0.00  0.00    +0.017 A 
BRANCH   7  10
ATOM     10  S   UNL     1      11.561 -11.114  -0.231  0.00  0.00    +0.061 S 
ATOM     11  O   UNL     1      12.825 -11.019   0.410  0.00  0.00    -0.153 OA
ATOM     12  O   UNL     1      10.509 -11.926   0.274  0.00  0.00    -0.153 OA
BRANCH  10  13
ATOM     13  N   UNL     1      11.853 -11.627  -1.778  0.00  0.00    -0.177 NA
ATOM     14  C   UNL     1      10.807 -12.314  -2.549  0.00  0.00    +0.109 C 
ATOM     15  C   UNL     1      10.624 -11.588  -3.886  0.00  0.00    +0.017 C 
ATOM     16  C   UNL     1      11.973 -11.495  -4.601  0.00  0.00    +0.003 C 
ATOM     17  C   UNL     1      12.952 -10.689  -3.745  0.00  0.00    +0.017 C 
ATOM     18  C   UNL     1      13.160 -11.399  -2.409  0.00  0.00    +0.109 C 
ENDBRANCH  10  13
ENDBRANCH   7  10
ENDBRANCH   2   4
ENDBRANCH   1   2
BRANCH   1  19
ATOM     19  C   UNL     1       7.618  -3.965  -0.774  0.00  0.00    +0.328 C 
BRANCH  19  28
ATOM     20  C   UNL     1       3.561   0.619  -0.029  0.00  0.00    +0.282 C 
ATOM     21  O   UNL     1       4.192   1.650  -0.167  0.00  0.00    -0.267 OA
ATOM     22  N   UNL     1       4.207  -0.560   0.060  0.00  0.00    -0.292 N 
ATOM     23  C   UNL     1       3.459  -1.825   0.056  0.00  0.00    +0.127 C 
ATOM     24  C   UNL     1       4.003  -2.713  -1.070  0.00  0.00    +0.127 C 
ATOM     25  N   UNL     1       5.469  -2.756  -0.968  0.00  0.00    -0.296 N 
ATOM     26  C   UNL     1       6.216  -1.491  -0.964  0.00  0.00    +0.127 C 
ATOM     27  C   UNL     1       5.673  -0.604   0.157  0.00  0.00    +0.127 C 
ATOM     28  C   UNL     1       6.115  -3.936  -0.879  0.00  0.00    +0.253 C 
ATOM     29  O   UNL     1       5.487  -4.973  -0.882  0.00  0.00    -0.272 OA
BRANCH  20  32
ATOM     30  C   UNL     1      -0.018   1.342  -0.009  0.00  0.00    +0.042 A 
ATOM     31  C   UNL     1       1.313   1.756  -0.179  0.00  0.00    +0.054 A 
ATOM     32  C   UNL     1       2.096   0.660   0.041  0.00  0.00    +0.189 A 
ATOM     33  O   UNL     1       1.288  -0.380   0.332  0.00  0.00    -0.458 OA
ATOM     34  C   UNL     1       0.012   0.028   0.304  0.00  0.00    +0.196 A 
ENDBRANCH  20  32
ENDBRANCH  19  28
ENDBRANCH   1  19
TORSDOF 7
