REMARK  Name = ZINC42954982
REMARK  6 active torsions:
REMARK  status: ('A' for Active; 'I' for Inactive)
REMARK    1  A    between atoms: C_1  and  N_2
REMARK    2  A    between atoms: C_3  and  C_5
REMARK    3  A    between atoms: N_11  and  C_12
REMARK    4  A    between atoms: C_12  and  C_14
REMARK    5  A    between atoms: C_12  and  C_16
REMARK    6  A    between atoms: C_14  and  N_15
REMARK                            x       y       z     vdW  Elec       q    Type
REMARK                         _______ _______ _______ _____ _____    ______ ____
ROOT
ATOM      1  C   UNL     1       2.835  -1.997   2.147  0.00  0.00    +0.070 C 
ENDROOT
BRANCH   1   2
ATOM      2  C   UNL     1       3.126  -1.529   0.745  0.00  0.00    -0.032 A 
ATOM      3  C   UNL     1       2.792  -2.327  -0.333  0.00  0.00    +0.006 A 
ATOM      4  C   UNL     1       3.058  -1.899  -1.620  0.00  0.00    +0.015 A 
ATOM      5  C   UNL     1       3.659  -0.670  -1.829  0.00  0.00    +0.018 A 
ATOM      6  C   UNL     1       3.994   0.128  -0.750  0.00  0.00    +0.015 A 
ATOM      7  C   UNL     1       3.723  -0.299   0.536  0.00  0.00    +0.006 A 
ATOM      8 BR   UNL     1       4.024  -0.084  -3.589  0.00  0.00    -0.050 Br
ENDBRANCH   1   2
BRANCH   1  14
ATOM      9  C   UNL     1       0.788  -0.724   1.932  0.00  0.00    +0.143 C 
ATOM     10  C   UNL     1      -0.694  -0.694   2.316  0.00  0.00    +0.028 C 
ATOM     11  C   UNL     1      -1.410  -1.875   1.655  0.00  0.00    +0.003 C 
ATOM     12  C   UNL     1      -0.739  -3.180   2.094  0.00  0.00    +0.015 C 
ATOM     13  C   UNL     1       0.744  -3.137   1.717  0.00  0.00    +0.085 C 
ATOM     14  N   UNL     1       1.384  -1.990   2.375  0.00  0.00    -0.286 NA
BRANCH   9  17
ATOM     15  C   UNL     1       2.300   2.728   2.607  0.00  0.00    +0.128 C 
ATOM     16  N   UNL     1       1.607   1.610   1.962  0.00  0.00    -0.317 N 
ATOM     17  C   UNL     1       1.501   0.426   2.596  0.00  0.00    +0.230 C 
ATOM     18  O   UNL     1       1.980   0.285   3.702  0.00  0.00    -0.274 OA
ATOM     19  H   UNL     1       1.224   1.723   1.078  0.00  0.00    +0.148 HD
ENDBRANCH   9  17
ENDBRANCH   1  14
BRANCH   1  20
ATOM     20  C   UNL     1       3.375  -3.417   2.334  0.00  0.00    -0.063 C 
BRANCH  20  21
ATOM     21  N   UNL     1       2.906  -3.954   3.618  0.00  0.00    +0.379 N 
ATOM     22  H   UNL     1       3.373  -4.828   3.808  0.00  0.00    -0.090 HD
ATOM     23  H   UNL     1       3.114  -3.295   4.354  0.00  0.00    -0.090 HD
ATOM     24  H   UNL     1       1.910  -4.107   3.575  0.00  0.00    -0.090 HD
ENDBRANCH  20  21
ENDBRANCH   1  20
TORSDOF 5
