REMARK  Name = ZINC04093204
REMARK  15 active torsions:
REMARK  status: ('A' for Active; 'I' for Inactive)
REMARK    1  A    between atoms: C_1  and  C_2
REMARK    2  A    between atoms: C_2  and  C_3
REMARK    3  A    between atoms: C_3  and  C_4
REMARK    4  A    between atoms: C_4  and  C_34
REMARK    5  A    between atoms: C_9  and  C_11
REMARK    6  A    between atoms: C_14  and  N_17
REMARK    7  A    between atoms: N_17  and  C_18
REMARK    8  A    between atoms: N_17  and  C_19
REMARK    9  A    between atoms: N_22  and  C_25
REMARK   10  A    between atoms: C_28  and  O_31
REMARK   11  A    between atoms: O_31  and  C_32
REMARK   12  A    between atoms: C_32  and  C_33
REMARK   13  A    between atoms: C_34  and  O_36
REMARK   14  A    between atoms: O_36  and  C_37
REMARK   15  A    between atoms: C_37  and  C_38
REMARK                            x       y       z     vdW  Elec       q    Type
REMARK                         _______ _______ _______ _____ _____    ______ ____
ROOT
ATOM      1  C   UNL     1      -1.387  -6.039   0.084  0.00  0.00    +0.044 C 
ATOM      2  C   UNL     1      -0.873  -5.877   1.530  0.00  0.00    +0.086 C 
ATOM      3  C   UNL     1       0.173  -4.730   1.456  0.00  0.00    +0.077 C 
ATOM      4  C   UNL     1       0.189  -4.307  -0.028  0.00  0.00    -0.027 C 
ATOM      5  C   UNL     1      -0.485  -3.628   2.287  0.00  0.00    +0.229 C 
ATOM      6  O   UNL     1      -0.008  -2.533   2.495  0.00  0.00    -0.275 OA
ATOM      7  N   UNL     1      -1.662  -4.060   2.754  0.00  0.00    -0.210 N 
ATOM      8  C   UNL     1      -1.979  -5.308   2.390  0.00  0.00    +0.229 C 
ATOM      9  O   UNL     1      -2.995  -5.892   2.701  0.00  0.00    -0.275 OA
ATOM     10  N   UNL     1      -1.115  -4.740  -0.532  0.00  0.00    +0.395 N 
ATOM     11  H   UNL     1      -1.840  -4.063  -0.267  0.00  0.00    -0.083 HD
ATOM     12  H   UNL     1      -1.088  -4.830  -1.554  0.00  0.00    -0.083 HD
ENDROOT
BRANCH   4  13
ATOM     13  C   UNL     1       0.358  -2.814  -0.147  0.00  0.00    -0.060 A 
ATOM     14  C   UNL     1       1.593  -2.283  -0.467  0.00  0.00    +0.004 A 
ATOM     15  C   UNL     1       1.752  -0.915  -0.576  0.00  0.00    +0.023 A 
ATOM     16  C   UNL     1       0.667  -0.073  -0.363  0.00  0.00    +0.029 A 
ATOM     17  C   UNL     1      -0.572  -0.610  -0.037  0.00  0.00    +0.023 A 
ATOM     18  C   UNL     1      -0.724  -1.979   0.065  0.00  0.00    +0.004 A 
BRANCH  16  19
ATOM     19  N   UNL     1       0.824   1.310  -0.472  0.00  0.00    -0.336 N 
ATOM     20  C   UNL     1       2.155   1.882  -0.690  0.00  0.00    +0.129 C 
ATOM     21  C   UNL     1      -0.344   2.190  -0.375  0.00  0.00    +0.129 C 
ENDBRANCH  16  19
ENDBRANCH   4  13
BRANCH   7  22
ATOM     22  C   UNL     1      -2.497  -3.269   3.558  0.00  0.00    +0.044 A 
ATOM     23  C   UNL     1      -3.730  -2.849   3.079  0.00  0.00    +0.027 A 
ATOM     24  C   UNL     1      -4.553  -2.075   3.873  0.00  0.00    +0.047 A 
ATOM     25  C   UNL     1      -4.142  -1.708   5.146  0.00  0.00    +0.121 A 
ATOM     26  C   UNL     1      -2.907  -2.122   5.624  0.00  0.00    +0.047 A 
ATOM     27  C   UNL     1      -2.086  -2.900   4.832  0.00  0.00    +0.027 A 
BRANCH  25  28
ATOM     28  O   UNL     1      -4.950  -0.941   5.926  0.00  0.00    -0.492 OA
BRANCH  28  29
ATOM     29  C   UNL     1      -6.208  -0.551   5.370  0.00  0.00    +0.225 C 
ATOM     30  C   UNL     1      -6.972   0.300   6.386  0.00  0.00    +0.048 C 
ENDBRANCH  28  29
ENDBRANCH  25  28
ENDBRANCH   7  22
BRANCH   1  31
ATOM     31  C   UNL     1      -2.861  -6.352   0.080  0.00  0.00    +0.297 C 
ATOM     32  O   UNL     1      -3.234  -7.497  -0.015  0.00  0.00    -0.252 OA
BRANCH  31  33
ATOM     33  O   UNL     1      -3.758  -5.360   0.182  0.00  0.00    -0.466 OA
BRANCH  33  34
ATOM     34  C   UNL     1      -5.161  -5.735   0.171  0.00  0.00    +0.228 C 
ATOM     35  C   UNL     1      -6.026  -4.480   0.296  0.00  0.00    +0.048 C 
ENDBRANCH  33  34
ENDBRANCH  31  33
ENDBRANCH   1  31
BRANCH   1  36
ATOM     36  C   UNL     1      -0.607  -7.139  -0.638  0.00  0.00    -0.001 C 
BRANCH  36  38
ATOM     37  C   UNL     1      -0.206  -8.244  -2.843  0.00  0.00    +0.004 C 
ATOM     38  C   UNL     1      -0.986  -7.144  -2.120  0.00  0.00    -0.004 C 
ENDBRANCH  36  38
ENDBRANCH   1  36
TORSDOF 10
