REMARK  Name = ZINC64417471
REMARK  7 active torsions:
REMARK  status: ('A' for Active; 'I' for Inactive)
REMARK    1  A    between atoms: N_9  and  C_14
REMARK    2  A    between atoms: C_10  and  O_13
REMARK    3  A    between atoms: C_14  and  C_15
REMARK    4  A    between atoms: C_15  and  C_16
REMARK    5  A    between atoms: N_18  and  C_19
REMARK    6  A    between atoms: C_19  and  C_20
REMARK    7  A    between atoms: C_20  and  C_21
REMARK                            x       y       z     vdW  Elec       q    Type
REMARK                         _______ _______ _______ _____ _____    ______ ____
ROOT
ATOM      1  C   UNL     1       3.087  -6.097  -1.386  0.00  0.00    +0.215 C 
ATOM      2  O   UNL     1       2.861  -6.785  -0.414  0.00  0.00    -0.276 OA
ATOM      3  N   UNL     1       3.430  -6.673  -2.555  0.00  0.00    -0.315 N 
ATOM      4  H   UNL     1       3.610  -6.123  -3.333  0.00  0.00    +0.149 HD
ENDROOT
BRANCH   1   5
ATOM      5  C   UNL     1       2.983  -4.596  -1.288  0.00  0.00    +0.115 C 
BRANCH   5   6
ATOM      6  C   UNL     1       2.581  -4.205   0.135  0.00  0.00    +0.121 C 
BRANCH   6  15
ATOM      7  C   UNL     1      -0.017   1.375   0.010  0.00  0.00    +0.001 A 
ATOM      8  C   UNL     1       1.168   2.095   0.002  0.00  0.00    +0.002 A 
ATOM      9  C   UNL     1       2.386   1.444  -0.012  0.00  0.00    +0.024 A 
ATOM     10  C   UNL     1       2.422   0.060  -0.018  0.00  0.00    +0.042 A 
ATOM     11  C   UNL     1       1.223  -0.674  -0.014  0.00  0.00    +0.058 A 
ATOM     12  C   UNL     1       0.002  -0.004   0.002  0.00  0.00    +0.015 A 
ATOM     13  C   UNL     1       1.301  -2.146  -0.031  0.00  0.00    +0.251 C 
ATOM     14  O   UNL     1       0.313  -2.811  -0.278  0.00  0.00    -0.270 OA
ATOM     15  N   UNL     1       2.480  -2.747   0.230  0.00  0.00    -0.256 N 
ATOM     16  C   UNL     1       3.660  -1.968   0.607  0.00  0.00    +0.299 C 
ATOM     17  N   UNL     1       3.621  -0.645  -0.027  0.00  0.00    -0.303 N 
ATOM     18  H   UNL     1       4.413  -0.271  -0.443  0.00  0.00    +0.150 HD
BRANCH  16  19
ATOM     19  O   UNL     1       3.688  -1.808   2.027  0.00  0.00    -0.359 OA
ATOM     20  H   UNL     1       4.444  -1.301   2.351  0.00  0.00    +0.213 HD
ENDBRANCH  16  19
ENDBRANCH   6  15
ENDBRANCH   5   6
ENDBRANCH   1   5
BRANCH   3  21
ATOM     21  C   UNL     1       3.531  -8.132  -2.650  0.00  0.00    +0.108 C 
BRANCH  21  22
ATOM     22  C   UNL     1       3.933  -8.524  -4.074  0.00  0.00    +0.052 C 
BRANCH  22  23
ATOM     23  C   UNL     1       4.036 -10.024  -4.172  0.00  0.00    -0.040 C 
ATOM     24  C   UNL     1       3.079 -10.879  -4.599  0.00  0.00    +0.000 A 
ATOM     25  C   UNL     1       1.708 -10.675  -5.081  0.00  0.00    +0.030 A 
ATOM     26  C   UNL     1       0.975 -11.752  -5.446  0.00  0.00    +0.042 A 
ATOM     27  C   UNL     1       1.491 -13.055  -5.375  0.00  0.00    +0.022 A 
ATOM     28  C   UNL     1       2.742 -13.320  -4.942  0.00  0.00    +0.027 A 
ATOM     29  C   UNL     1       3.601 -12.263  -4.534  0.00  0.00    +0.043 A 
ATOM     30  N   UNL     1       4.832 -12.263  -4.084  0.00  0.00    -0.380 N 
ATOM     31  C   UNL     1       5.234 -10.877  -3.818  0.00  0.00    +0.144 C 
ATOM     32 CL   UNL     1      -0.648 -11.516  -6.017  0.00  0.00    -0.084 Cl
ATOM     33  H   UNL     1       5.386 -13.048  -3.952  0.00  0.00    +0.160 HD
ENDBRANCH  22  23
ENDBRANCH  21  22
ENDBRANCH   3  21
TORSDOF 7
