REMARK  Name = ZINC05081501
REMARK  8 active torsions:
REMARK  status: ('A' for Active; 'I' for Inactive)
REMARK    1  A    between atoms: C_1  and  C_2
REMARK    2  A    between atoms: C_2  and  C_3
REMARK    3  A    between atoms: C_3  and  C_5
REMARK    4  A    between atoms: C_3  and  S_6
REMARK    5  A    between atoms: S_6  and  C_7
REMARK    6  A    between atoms: C_12  and  N_16
REMARK    7  A    between atoms: C_13  and  N_15
REMARK    8  A    between atoms: C_17  and  C_19
REMARK                            x       y       z     vdW  Elec       q    Type
REMARK                         _______ _______ _______ _____ _____    ______ ____
ROOT
ATOM      1  C   UNL     1       2.801  -6.912   0.112  0.00  0.00    +0.171 A 
ATOM      2  N   UNL     1       1.554  -6.367   0.050  0.00  0.00    -0.300 N 
ATOM      3  H   UNL     1       0.750  -6.962   0.041  0.00  0.00    +0.171 HD
ATOM      4  C   UNL     1       1.400  -5.028   0.001  0.00  0.00    +0.275 A 
ATOM      5  O   UNL     1       0.286  -4.532  -0.056  0.00  0.00    -0.266 OA
ATOM      6  C   UNL     1       2.543  -4.215   0.015  0.00  0.00    +0.139 A 
ATOM      7  C   UNL     1       3.793  -4.823   0.074  0.00  0.00    +0.146 A 
ATOM      8  N   UNL     1       3.880  -6.157   0.126  0.00  0.00    -0.207 NA
ENDROOT
BRANCH   6   9
ATOM      9  N   UNL     1       2.429  -2.812  -0.036  0.00  0.00    -0.274 N 
ATOM     10  C   UNL     1       1.750  -2.157   0.927  0.00  0.00    +0.248 C 
ATOM     11  O   UNL     1       1.166  -2.781   1.792  0.00  0.00    -0.270 OA
ATOM     12  H   UNL     1       2.837  -2.318  -0.763  0.00  0.00    +0.155 HD
BRANCH  10  13
ATOM     13  C   UNL     1       1.717  -0.679   0.932  0.00  0.00    +0.037 A 
ATOM     14  C   UNL     1       1.016   0.003   1.928  0.00  0.00    +0.014 A 
ATOM     15  C   UNL     1       0.989   1.381   1.927  0.00  0.00    +0.016 A 
ATOM     16  C   UNL     1       1.656   2.089   0.942  0.00  0.00    +0.018 A 
ATOM     17  C   UNL     1       2.353   1.419  -0.049  0.00  0.00    +0.016 A 
ATOM     18  C   UNL     1       2.388   0.040  -0.059  0.00  0.00    +0.014 A 
ATOM     19 BR   UNL     1       1.614   3.980   0.948  0.00  0.00    -0.050 Br
ENDBRANCH  10  13
ENDBRANCH   6   9
BRANCH   7  20
ATOM     20  N   UNL     1       4.941  -4.052   0.084  0.00  0.00    -0.341 N 
ATOM     21  H   UNL     1       4.876  -3.084   0.050  0.00  0.00    +0.144 HD
ATOM     22  H   UNL     1       5.812  -4.478   0.125  0.00  0.00    +0.144 HD
ENDBRANCH   7  20
BRANCH   1  23
ATOM     23  S   UNL     1       2.974  -8.664   0.176  0.00  0.00    -0.085 S 
BRANCH  23  24
ATOM     24  C   UNL     1       4.778  -8.799   0.244  0.00  0.00    +0.051 C 
ATOM     25  C   UNL     1       5.379  -8.272  -1.060  0.00  0.00    +0.019 C 
BRANCH  24  27
ATOM     26  C   UNL     1       4.678 -10.756   1.794  0.00  0.00    +0.005 C 
ATOM     27  C   UNL     1       5.173 -10.265   0.432  0.00  0.00    +0.011 C 
ENDBRANCH  24  27
ENDBRANCH  23  24
ENDBRANCH   1  23
TORSDOF 6
