REMARK  Name = ZINC24506711
REMARK  8 active torsions:
REMARK  status: ('A' for Active; 'I' for Inactive)
REMARK    1  A    between atoms: C_1  and  C_2
REMARK    2  A    between atoms: C_5  and  N_9
REMARK    3  A    between atoms: C_13  and  S_15
REMARK    4  A    between atoms: S_15  and  C_16
REMARK    5  A    between atoms: C_16  and  C_17
REMARK    6  A    between atoms: N_19  and  N_20
REMARK    7  A    between atoms: C_27  and  C_31
REMARK    8  A    between atoms: C_28  and  C_30
REMARK                            x       y       z     vdW  Elec       q    Type
REMARK                         _______ _______ _______ _____ _____    ______ ____
ROOT
ATOM      1  C   UNL     1      -7.949  -0.011  -0.410  0.00  0.00    +0.173 C 
ENDROOT
BRANCH   1   2
ATOM      2  C   UNL     1      -9.386  -0.451  -0.526  0.00  0.00    +0.241 C 
ATOM      3  O   UNL     1     -10.271   0.376  -0.590  0.00  0.00    -0.273 OA
ATOM      4  N   UNL     1      -9.688  -1.765  -0.557  0.00  0.00    -0.218 N 
ATOM      5  H   UNL     1      -8.886  -2.515  -0.499  0.00  0.00    +0.176 HD
BRANCH   4   6
ATOM      6  N   UNL     1     -11.023  -2.174  -0.665  0.00  0.00    -0.212 N 
ATOM      7  C   UNL     1     -11.835  -2.087   0.421  0.00  0.00    +0.223 A 
ATOM      8  N   UNL     1     -13.087  -2.454   0.359  0.00  0.00    -0.228 NA
ATOM      9  C   UNL     1     -13.606  -2.934  -0.767  0.00  0.00    +0.116 A 
ATOM     10  C   UNL     1     -12.842  -3.067  -1.941  0.00  0.00    +0.077 A 
ATOM     11  C   UNL     1     -11.475  -2.650  -1.840  0.00  0.00    +0.280 A 
ATOM     12  O   UNL     1     -10.732  -2.726  -2.803  0.00  0.00    -0.265 OA
ATOM     13  C   UNL     1     -13.558  -3.608  -3.081  0.00  0.00    -0.026 A 
ATOM     14  C   UNL     1     -14.854  -3.934  -2.946  0.00  0.00    -0.008 A 
ATOM     15  S   UNL     1     -15.207  -3.530  -1.246  0.00  0.00    -0.073 S 
ATOM     16  C   UNL     1     -15.785  -4.507  -3.983  0.00  0.00    +0.052 C 
ATOM     17  C   UNL     1     -12.856  -3.801  -4.400  0.00  0.00    +0.045 C 
ENDBRANCH   4   6
ENDBRANCH   1   2
BRANCH   1  18
ATOM     18  S   UNL     1      -7.872   1.801  -0.393  0.00  0.00    -0.088 S 
BRANCH  18  23
ATOM     19  N   UNL     1      -2.455   3.822   0.044  0.00  0.00    -0.292 N 
ATOM     20  C   UNL     1      -3.649   3.117  -0.054  0.00  0.00    +0.187 A 
ATOM     21  N   UNL     1      -3.850   1.813  -0.083  0.00  0.00    -0.125 NA
ATOM     22  N   UNL     1      -5.130   1.320  -0.181  0.00  0.00    -0.133 NA
ATOM     23  C   UNL     1      -6.151   2.153  -0.256  0.00  0.00    +0.160 A 
ATOM     24  S   UNL     1      -5.321   3.733  -0.181  0.00  0.00    -0.024 S 
ATOM     25  H   UNL     1      -2.470   4.917   0.151  0.00  0.00    +0.154 HD
BRANCH  19  30
ATOM     26  C   UNL     1       2.493   1.054  -0.116  0.00  0.00    +0.045 C 
ATOM     27  C   UNL     1       1.178   1.790  -0.073  0.00  0.00    -0.032 A 
ATOM     28  C   UNL     1       0.057   1.233  -0.660  0.00  0.00    +0.006 A 
ATOM     29  C   UNL     1      -1.148   1.907  -0.628  0.00  0.00    +0.023 A 
ATOM     30  C   UNL     1      -1.236   3.141   0.005  0.00  0.00    +0.034 A 
ATOM     31  C   UNL     1      -0.109   3.697   0.595  0.00  0.00    +0.043 A 
ATOM     32  C   UNL     1       1.096   3.020   0.555  0.00  0.00    +0.046 A 
ATOM     33 CL   UNL     1       2.506   3.715   1.291  0.00  0.00    -0.083 Cl
ENDBRANCH  19  30
ENDBRANCH  18  23
ENDBRANCH   1  18
TORSDOF 5
