REMARK  Name = ZINC45067146
REMARK  6 active torsions:
REMARK  status: ('A' for Active; 'I' for Inactive)
REMARK    1  A    between atoms: C_1  and  C_2
REMARK    2  A    between atoms: C_2  and  C_4
REMARK    3  A    between atoms: C_2  and  N_23
REMARK    4  A    between atoms: C_4  and  C_6
REMARK    5  A    between atoms: C_4  and  N_12
REMARK    6  A    between atoms: C_16  and  C_18
REMARK                            x       y       z     vdW  Elec       q    Type
REMARK                         _______ _______ _______ _____ _____    ______ ____
ROOT
ATOM      1  C   UNL     1       0.669  -0.466   1.248  0.00  0.00    +0.079 C 
ENDROOT
BRANCH   1   2
ATOM      2  C   UNL     1       1.939   0.143   0.712  0.00  0.00    +0.006 A 
ATOM      3  C   UNL     1       2.993  -0.467   0.115  0.00  0.00    +0.028 A 
ATOM      4  C   UNL     1       4.064   0.301  -0.302  0.00  0.00    +0.025 A 
ATOM      5  C   UNL     1       4.029   1.642  -0.101  0.00  0.00    +0.060 A 
ATOM      6  S   UNL     1       2.444   1.855   0.692  0.00  0.00    -0.099 S 
ATOM      7 BR   UNL     1       5.556  -0.505  -1.139  0.00  0.00    -0.050 Br
ENDBRANCH   1   2
BRANCH   1   8
ATOM      8  N   UNL     1       0.520  -0.119   2.667  0.00  0.00    -0.293 NA
ATOM      9  C   UNL     1      -0.854  -0.392   3.138  0.00  0.00    +0.085 C 
ATOM     10  C   UNL     1      -0.765  -1.772   3.837  0.00  0.00    +0.017 C 
ATOM     11  C   UNL     1       0.626  -1.689   4.518  0.00  0.00    +0.020 C 
ATOM     12  C   UNL     1       1.464  -0.886   3.500  0.00  0.00    +0.060 C 
BRANCH  12  13
ATOM     13  C   UNL     1       2.403   0.069   4.239  0.00  0.00    +0.006 C 
ATOM     14  C   UNL     1       3.376   0.731   3.240  0.00  0.00    +0.005 C 
ATOM     15  C   UNL     1       4.712   0.826   4.018  0.00  0.00    +0.000 C 
ATOM     16  C   UNL     1       4.736  -0.499   4.819  0.00  0.00    +0.000 C 
ATOM     17  C   UNL     1       3.268  -0.712   5.243  0.00  0.00    +0.005 C 
ENDBRANCH  12  13
ENDBRANCH   1   8
BRANCH   1  19
ATOM     18  C   UNL     1      -0.698   1.567   0.758  0.00  0.00    -0.012 C 
ATOM     19  C   UNL     1      -0.527   0.076   0.462  0.00  0.00    -0.056 C 
BRANCH  19  20
ATOM     20  N   UNL     1      -0.295  -0.114  -0.976  0.00  0.00    +0.381 N 
ATOM     21  H   UNL     1       0.540   0.382  -1.250  0.00  0.00    -0.090 HD
ATOM     22  H   UNL     1      -0.182  -1.097  -1.171  0.00  0.00    -0.090 HD
ATOM     23  H   UNL     1      -1.084   0.243  -1.494  0.00  0.00    -0.090 HD
ENDBRANCH  19  20
ENDBRANCH   1  19
TORSDOF 5
