REMARK  Name = ZINC09309789
REMARK  2 active torsions:
REMARK  status: ('A' for Active; 'I' for Inactive)
REMARK    1  A    between atoms: C_3  and  C_7
REMARK    2  A    between atoms: C_18  and  C_20
REMARK                            x       y       z     vdW  Elec       q    Type
REMARK                         _______ _______ _______ _____ _____    ______ ____
ROOT
ATOM      1  C   UNL     1       3.492   2.193  -0.095  0.00  0.00    +0.164 C 
ATOM      2  C   UNL     1       4.045   2.251   1.311  0.00  0.00    +0.028 C 
ATOM      3  C   UNL     1       5.224   1.642   1.553  0.00  0.00    +0.083 C 
ATOM      4  C   UNL     1       5.762   1.714   2.935  0.00  0.00    +0.044 A 
ATOM      5  C   UNL     1       6.780   0.873   3.362  0.00  0.00    +0.033 A 
ATOM      6  C   UNL     1       7.250   0.973   4.659  0.00  0.00    +0.042 A 
ATOM      7  C   UNL     1       6.707   1.906   5.526  0.00  0.00    +0.023 A 
ATOM      8  C   UNL     1       5.693   2.748   5.107  0.00  0.00    +0.048 A 
ATOM      9  C   UNL     1       5.215   2.660   3.812  0.00  0.00    +0.131 A 
ATOM     10  O   UNL     1       4.226   3.480   3.372  0.00  0.00    -0.479 OA
ATOM     11  C   UNL     1       3.307   2.954   2.413  0.00  0.00    +0.234 C 
ATOM     12 CL   UNL     1       8.523  -0.075   5.201  0.00  0.00    -0.084 Cl
ATOM     13  N   UNL     1       5.894   0.990   0.572  0.00  0.00    -0.216 NA
ATOM     14  C   UNL     1       5.477   0.897  -0.671  0.00  0.00    +0.209 C 
ATOM     15  N   UNL     1       4.306   1.460  -1.076  0.00  0.00    -0.182 N 
ATOM     16  N   UNL     1       4.153   1.183  -2.435  0.00  0.00    -0.169 NA
ATOM     17  C   UNL     1       5.171   0.487  -2.828  0.00  0.00    +0.208 C 
ATOM     18  N   UNL     1       6.016   0.289  -1.775  0.00  0.00    -0.275 N 
ATOM     19  H   UNL     1       6.852  -0.203  -1.802  0.00  0.00    +0.156 HD
ENDROOT
BRANCH  11  20
ATOM     20  C   UNL     1       2.380   1.980   3.093  0.00  0.00    -0.003 A 
ATOM     21  C   UNL     1       2.897   0.978   3.893  0.00  0.00    +0.009 A 
ATOM     22  C   UNL     1       2.047   0.084   4.517  0.00  0.00    +0.020 A 
ATOM     23  C   UNL     1       0.679   0.191   4.340  0.00  0.00    +0.041 A 
ATOM     24  C   UNL     1       0.163   1.194   3.539  0.00  0.00    +0.020 A 
ATOM     25  C   UNL     1       1.013   2.091   2.920  0.00  0.00    +0.009 A 
ATOM     26 CL   UNL     1      -0.388  -0.932   5.123  0.00  0.00    -0.084 Cl
ENDBRANCH  11  20
BRANCH   1  29
ATOM     27  C   UNL     1      -0.247   1.686  -0.048  0.00  0.00    +0.020 A 
ATOM     28  C   UNL     1       0.983   2.323  -0.103  0.00  0.00    +0.009 A 
ATOM     29  C   UNL     1       2.131   1.548  -0.038  0.00  0.00    -0.003 A 
ATOM     30  C   UNL     1       2.011   0.176   0.078  0.00  0.00    +0.116 A 
ATOM     31  N   UNL     1       0.824  -0.396   0.127  0.00  0.00    -0.263 NA
ATOM     32  C   UNL     1      -0.288   0.309   0.069  0.00  0.00    +0.111 A 
ENDBRANCH   1  29
TORSDOF 2
