REMARK  Name = ZINC67566123
REMARK  5 active torsions:
REMARK  status: ('A' for Active; 'I' for Inactive)
REMARK    1  A    between atoms: C_4  and  C_7
REMARK    2  A    between atoms: C_10  and  N_12
REMARK    3  A    between atoms: N_15  and  C_16
REMARK    4  A    between atoms: C_21  and  C_22
REMARK    5  A    between atoms: C_22  and  C_23
REMARK                            x       y       z     vdW  Elec       q    Type
REMARK                         _______ _______ _______ _____ _____    ______ ____
ROOT
ATOM      1  N   UNL     1       2.989  -1.788   2.173  0.00  0.00    -0.296 N 
ATOM      2  C   UNL     1       3.348  -2.150   3.421  0.00  0.00    +0.304 C 
ATOM      3  O   UNL     1       4.514  -2.381   3.675  0.00  0.00    -0.253 OA
ATOM      4  N   UNL     1       2.414  -2.257   4.386  0.00  0.00    -0.269 N 
ATOM      5  H   UNL     1       2.058  -1.603   1.970  0.00  0.00    +0.151 HD
ATOM      6  H   UNL     1       1.497  -1.995   4.206  0.00  0.00    +0.156 HD
ENDROOT
BRANCH   4   7
ATOM      7  C   UNL     1       2.766  -2.746   5.649  0.00  0.00    +0.038 A 
ATOM      8  C   UNL     1       3.868  -3.579   5.790  0.00  0.00    +0.023 A 
ATOM      9  C   UNL     1       4.213  -4.060   7.038  0.00  0.00    +0.002 A 
ATOM     10  C   UNL     1       3.462  -3.713   8.146  0.00  0.00    +0.000 A 
ATOM     11  C   UNL     1       2.364  -2.885   8.009  0.00  0.00    +0.006 A 
ATOM     12  C   UNL     1       2.017  -2.396   6.765  0.00  0.00    -0.017 A 
BRANCH  12  13
ATOM     13  C   UNL     1       0.824  -1.487   6.617  0.00  0.00    +0.132 C 
BRANCH  13  14
ATOM     14  C   UNL     1      -0.386  -2.304   6.242  0.00  0.00    +0.215 C 
ATOM     15  O   UNL     1      -0.288  -3.506   6.108  0.00  0.00    -0.276 OA
ATOM     16  N   UNL     1      -1.576  -1.700   6.056  0.00  0.00    -0.329 N 
ATOM     17  H   UNL     1      -1.654  -0.739   6.163  0.00  0.00    +0.145 HD
ATOM     18  H   UNL     1      -2.354  -2.225   5.814  0.00  0.00    +0.145 HD
ENDBRANCH  13  14
ENDBRANCH  12  13
ENDBRANCH   4   7
BRANCH   1  21
ATOM     19  C   UNL     1       3.703  -0.738  -0.051  0.00  0.00    +0.041 C 
ATOM     20  C   UNL     1       3.669  -2.255  -0.252  0.00  0.00    +0.033 C 
ATOM     21  C   UNL     1       4.004  -1.671   1.123  0.00  0.00    +0.083 C 
BRANCH  19  25
ATOM     22  C   UNL     1      -0.035   1.329  -0.020  0.00  0.00    +0.000 A 
ATOM     23  C   UNL     1       1.149   2.042  -0.034  0.00  0.00    +0.000 A 
ATOM     24  C   UNL     1       2.359   1.373  -0.044  0.00  0.00    +0.004 A 
ATOM     25  C   UNL     1       2.384  -0.009  -0.039  0.00  0.00    -0.042 A 
ATOM     26  C   UNL     1       1.200  -0.722  -0.024  0.00  0.00    +0.004 A 
ATOM     27  C   UNL     1      -0.010  -0.053  -0.016  0.00  0.00    +0.000 A 
ENDBRANCH  19  25
ENDBRANCH   1  21
TORSDOF 5
