REMARK  Name = ZINC01190795
REMARK  10 active torsions:
REMARK  status: ('A' for Active; 'I' for Inactive)
REMARK    1  A    between atoms: C_1  and  C_2
REMARK    2  A    between atoms: C_3  and  N_36
REMARK    3  A    between atoms: C_4  and  C_35
REMARK    4  A    between atoms: N_5  and  C_7
REMARK    5  A    between atoms: C_7  and  C_8
REMARK    6  A    between atoms: C_10  and  C_16
REMARK    7  A    between atoms: C_13  and  O_14
REMARK    8  A    between atoms: O_14  and  C_15
REMARK    9  A    between atoms: N_27  and  C_28
REMARK   10  A    between atoms: C_28  and  C_29
REMARK                            x       y       z     vdW  Elec       q    Type
REMARK                         _______ _______ _______ _____ _____    ______ ____
ROOT
ATOM      1  C   UNL     1      -0.664   4.124   4.760  0.00  0.00    +0.016 A 
ATOM      2  C   UNL     1      -1.672   5.005   5.101  0.00  0.00    +0.016 A 
ATOM      3  C   UNL     1      -1.411   6.361   5.174  0.00  0.00    -0.009 A 
ATOM      4  C   UNL     1      -0.144   6.840   4.895  0.00  0.00    +0.010 A 
ATOM      5  C   UNL     1       0.865   5.963   4.548  0.00  0.00    +0.046 A 
ATOM      6  C   UNL     1       0.608   4.602   4.480  0.00  0.00    +0.125 A 
ENDROOT
BRANCH   3   7
ATOM      7  C   UNL     1      -2.511   7.319   5.552  0.00  0.00    +0.193 C 
ATOM      8  N   UNL     1      -3.458   6.644   6.447  0.00  0.00    -0.321 N 
ATOM      9  C   UNL     1      -3.091   6.445   7.774  0.00  0.00    +0.041 A 
ATOM     10  C   UNL     1      -3.559   5.371   8.511  0.00  0.00    +0.024 A 
ATOM     11  C   UNL     1      -3.160   5.218   9.824  0.00  0.00    +0.002 A 
ATOM     12  C   UNL     1      -2.296   6.131  10.410  0.00  0.00    +0.001 A 
ATOM     13  C   UNL     1      -1.822   7.208   9.689  0.00  0.00    +0.015 A 
ATOM     14  C   UNL     1      -2.217   7.375   8.365  0.00  0.00    +0.058 A 
ATOM     15  C   UNL     1      -1.748   8.512   7.552  0.00  0.00    +0.250 C 
ATOM     16  O   UNL     1      -1.203   9.462   8.081  0.00  0.00    -0.270 OA
ATOM     17  N   UNL     1      -1.930   8.486   6.215  0.00  0.00    -0.271 N 
ATOM     18  H   UNL     1      -4.321   6.343   6.121  0.00  0.00    +0.148 HD
BRANCH  17  19
ATOM     19  C   UNL     1      -1.539   9.649   5.414  0.00  0.00    +0.145 C 
BRANCH  19  20
ATOM     20  C   UNL     1      -2.703  10.599   5.306  0.00  0.00    -0.030 A 
ATOM     21  C   UNL     1      -3.600  10.478   4.261  0.00  0.00    +0.005 A 
ATOM     22  C   UNL     1      -4.670  11.347   4.164  0.00  0.00    +0.000 A 
ATOM     23  C   UNL     1      -4.839  12.343   5.107  0.00  0.00    +0.000 A 
ATOM     24  C   UNL     1      -3.939  12.468   6.149  0.00  0.00    +0.000 A 
ATOM     25  C   UNL     1      -2.871  11.596   6.249  0.00  0.00    +0.005 A 
ENDBRANCH  19  20
ENDBRANCH  17  19
ENDBRANCH   3   7
BRANCH   6  26
ATOM     26  O   UNL     1       1.599   3.738   4.138  0.00  0.00    -0.495 OA
ATOM     27  C   UNL     1       2.884   4.300   3.863  0.00  0.00    +0.277 C 
ENDBRANCH   6  26
BRANCH   1  28
ATOM     28  C   UNL     1      -0.948   2.646   4.686  0.00  0.00    +0.182 C 
BRANCH  28  33
ATOM     29  C   UNL     1      -0.013   1.086   0.008  0.00  0.00    +0.070 C 
ATOM     30  C   UNL     1      -0.718   1.572   1.248  0.00  0.00    +0.090 A 
ATOM     31  C   UNL     1      -2.088   1.831   1.364  0.00  0.00    +0.169 A 
ATOM     32  C   UNL     1      -2.327   2.246   2.630  0.00  0.00    +0.067 A 
ATOM     33  N   UNL     1      -1.150   2.256   3.289  0.00  0.00    -0.262 N 
ATOM     34  N   UNL     1      -0.154   1.829   2.400  0.00  0.00    -0.174 NA
ATOM     35  C   UNL     1      -3.668   2.632   3.199  0.00  0.00    +0.068 C 
BRANCH  31  36
ATOM     36  N   UNL     1      -3.097   1.677   0.292  0.00  0.00    +0.060 N 
ATOM     37  O   UNL     1      -3.677   0.615   0.150  0.00  0.00    -0.126 OA
ATOM     38  O   UNL     1      -3.348   2.612  -0.447  0.00  0.00    -0.126 OA
ENDBRANCH  31  36
ENDBRANCH  28  33
ENDBRANCH   1  28
TORSDOF 7
