REMARK  Name = ZINC05598567
REMARK  8 active torsions:
REMARK  status: ('A' for Active; 'I' for Inactive)
REMARK    1  A    between atoms: C_1  and  C_2
REMARK    2  A    between atoms: C_2  and  O_3
REMARK    3  A    between atoms: O_3  and  C_4
REMARK    4  A    between atoms: C_4  and  C_6
REMARK    5  A    between atoms: C_10  and  N_11
REMARK    6  A    between atoms: N_14  and  N_15
REMARK    7  A    between atoms: C_16  and  C_17
REMARK    8  A    between atoms: C_24  and  C_28
REMARK                            x       y       z     vdW  Elec       q    Type
REMARK                         _______ _______ _______ _____ _____    ______ ____
ROOT
ATOM      1  C   UNL     1      -3.399  10.120   1.021  0.00  0.00    +0.091 A 
ATOM      2  C   UNL     1      -3.102  11.529   1.216  0.00  0.00    -0.021 A 
ATOM      3  C   UNL     1      -1.794  11.856   1.143  0.00  0.00    -0.004 A 
ATOM      4  S   UNL     1      -0.961  10.326   0.827  0.00  0.00    -0.077 S 
ATOM      5  C   UNL     1      -2.330   9.266   0.782  0.00  0.00    +0.088 A 
ATOM      6  C   UNL     1      -1.193  13.219   1.301  0.00  0.00    +0.046 C 
ATOM      7  C   UNL     1      -2.317  14.259   1.190  0.00  0.00    -0.009 C 
ATOM      8  C   UNL     1      -3.482  13.824   2.083  0.00  0.00    +0.008 C 
ATOM      9  C   UNL     1      -4.162  12.589   1.487  0.00  0.00    +0.037 C 
ATOM     10  C   UNL     1      -1.800  15.625   1.645  0.00  0.00    +0.008 C 
ENDROOT
BRANCH   5  11
ATOM     11  N   UNL     1      -2.353   7.897   0.568  0.00  0.00    -0.262 N 
ATOM     12  C   UNL     1      -1.202   7.230   0.351  0.00  0.00    +0.324 C 
ATOM     13  O   UNL     1      -0.144   7.829   0.344  0.00  0.00    -0.251 OA
ATOM     14  N   UNL     1      -1.224   5.899   0.142  0.00  0.00    -0.190 N 
ATOM     15  H   UNL     1      -3.197   7.419   0.573  0.00  0.00    +0.157 HD
ATOM     16  H   UNL     1      -0.396   5.418  -0.014  0.00  0.00    +0.179 HD
BRANCH  14  17
ATOM     17  N   UNL     1      -2.443   5.208   0.149  0.00  0.00    -0.185 NA
ATOM     18  C   UNL     1      -2.478   3.950  -0.167  0.00  0.00    +0.158 C 
BRANCH  18  19
ATOM     19  C   UNL     1      -1.283   3.299  -0.732  0.00  0.00    +0.083 A 
ATOM     20  C   UNL     1      -1.282   1.919  -0.949  0.00  0.00    +0.029 A 
ATOM     21  C   UNL     1      -0.151   1.322  -1.475  0.00  0.00    +0.004 A 
ATOM     22  C   UNL     1       0.942   2.123  -1.778  0.00  0.00    +0.020 A 
ATOM     23  C   UNL     1       0.872   3.484  -1.543  0.00  0.00    +0.111 A 
ATOM     24  N   UNL     1      -0.215   4.029  -1.036  0.00  0.00    -0.254 NA
ENDBRANCH  18  19
ENDBRANCH  14  17
ENDBRANCH   5  11
BRANCH   1  25
ATOM     25  C   UNL     1      -4.774   9.619   1.074  0.00  0.00    +0.342 C 
ATOM     26  O   UNL     1      -5.245   9.247   2.131  0.00  0.00    -0.245 OA
BRANCH  25  27
ATOM     27  O   UNL     1      -5.518   9.571  -0.050  0.00  0.00    -0.461 OA
BRANCH  27  29
ATOM     28  C   UNL     1      -7.556   9.085  -1.292  0.00  0.00    +0.048 C 
ATOM     29  C   UNL     1      -6.872   9.064   0.077  0.00  0.00    +0.229 C 
ENDBRANCH  27  29
ENDBRANCH  25  27
ENDBRANCH   1  25
TORSDOF 6
