REMARK  Name = ZINC39947229
REMARK  10 active torsions:
REMARK  status: ('A' for Active; 'I' for Inactive)
REMARK    1  A    between atoms: C_1  and  C_2
REMARK    2  A    between atoms: C_2  and  C_3
REMARK    3  A    between atoms: C_2  and  C_4
REMARK    4  A    between atoms: C_4  and  N_5
REMARK    5  A    between atoms: N_5  and  C_6
REMARK    6  A    between atoms: C_14  and  C_16
REMARK    7  A    between atoms: C_16  and  S_17
REMARK    8  A    between atoms: S_17  and  C_18
REMARK    9  A    between atoms: C_22  and  C_27
REMARK   10  A    between atoms: N_23  and  C_24
REMARK                            x       y       z     vdW  Elec       q    Type
REMARK                         _______ _______ _______ _____ _____    ______ ____
ROOT
ATOM      1  C   UNL     1      -1.099  -2.730  -5.238  0.00  0.00    +0.237 C 
ATOM      2  N   UNL     1      -0.127  -1.637  -5.402  0.00  0.00    -0.237 N 
ATOM      3  N   UNL     1      -0.869  -0.452  -5.472  0.00  0.00    -0.169 NA
ATOM      4  C   UNL     1      -2.151  -0.688  -5.373  0.00  0.00    +0.147 C 
ATOM      5  N   UNL     1      -2.409  -2.056  -5.227  0.00  0.00    -0.282 N 
ATOM      6  H   UNL     1       0.838  -1.721  -5.451  0.00  0.00    +0.171 HD
ENDROOT
BRANCH   4   7
ATOM      7  C   UNL     1      -3.143   0.304  -5.409  0.00  0.00    +0.022 C 
ATOM      8  C   UNL     1      -2.964   1.668  -5.640  0.00  0.00    +0.006 A 
ATOM      9  C   UNL     1      -1.817   2.449  -5.896  0.00  0.00    +0.010 A 
ATOM     10  C   UNL     1      -1.942   3.788  -6.088  0.00  0.00    +0.001 A 
ATOM     11  C   UNL     1      -3.186   4.420  -6.039  0.00  0.00    +0.002 A 
ATOM     12  C   UNL     1      -4.329   3.732  -5.798  0.00  0.00    +0.026 A 
ATOM     13  C   UNL     1      -4.278   2.330  -5.587  0.00  0.00    +0.043 A 
ATOM     14  N   UNL     1      -5.228   1.450  -5.339  0.00  0.00    -0.380 N 
ATOM     15  C   UNL     1      -4.631   0.117  -5.211  0.00  0.00    +0.152 C 
ATOM     16  H   UNL     1      -6.173   1.651  -5.259  0.00  0.00    +0.160 HD
ENDBRANCH   4   7
BRANCH   5  17
ATOM     17  C   UNL     1      -3.720  -2.694  -5.090  0.00  0.00    +0.078 C 
ATOM     18  C   UNL     1      -3.759  -4.221  -5.010  0.00  0.00    +0.024 C 
ATOM     19  C   UNL     1      -4.035  -3.383  -3.760  0.00  0.00    +0.024 C 
ENDBRANCH   5  17
BRANCH   1  20
ATOM     20  S   UNL     1      -0.820  -3.599  -3.671  0.00  0.00    -0.109 S 
BRANCH  20  21
ATOM     21  C   UNL     1      -0.942  -2.294  -2.417  0.00  0.00    +0.168 C 
BRANCH  21  23
ATOM     22  N   UNL     1      -0.772  -2.101   0.043  0.00  0.00    -0.296 N 
ATOM     23  C   UNL     1      -0.726  -2.889  -1.050  0.00  0.00    +0.226 C 
ATOM     24  O   UNL     1      -0.511  -4.077  -0.932  0.00  0.00    -0.275 OA
BRANCH  22  25
ATOM     25  C   UNL     1      -0.562  -2.680   1.372  0.00  0.00    +0.098 C 
ATOM     26  C   UNL     1       0.760  -3.464   1.395  0.00  0.00    +0.046 C 
ATOM     27  C   UNL     1       0.836  -4.335   2.672  0.00  0.00    +0.168 C 
ATOM     28  S   UNL     1      -0.935  -4.663   3.042  0.00  0.00    -0.029 S 
ATOM     29  O   UNL     1      -1.260  -4.084   4.299  0.00  0.00    -0.174 OA
ATOM     30  O   UNL     1      -1.207  -6.039   2.816  0.00  0.00    -0.174 OA
ATOM     31  C   UNL     1      -1.716  -3.668   1.703  0.00  0.00    +0.188 C 
ENDBRANCH  22  25
BRANCH  22  32
ATOM     32  C   UNL     1      -1.032  -0.666  -0.099  0.00  0.00    +0.111 C 
BRANCH  32  34
ATOM     33  C   UNL     1      -0.017   1.529  -0.726  0.00  0.00    +0.009 C 
ATOM     34  C   UNL     1       0.277   0.060  -0.414  0.00  0.00    +0.000 C 
ATOM     35  C   UNL     1       1.212  -0.027   0.794  0.00  0.00    +0.009 C 
ENDBRANCH  32  34
ENDBRANCH  22  32
ENDBRANCH  21  23
ENDBRANCH  20  21
ENDBRANCH   1  20
TORSDOF 8
