REMARK  Name = ZINC06510640
REMARK  5 active torsions:
REMARK  status: ('A' for Active; 'I' for Inactive)
REMARK    1  A    between atoms: C_1  and  C_2
REMARK    2  A    between atoms: C_2  and  C_4
REMARK    3  A    between atoms: C_2  and  N_14
REMARK    4  A    between atoms: C_7  and  S_10
REMARK    5  A    between atoms: S_10  and  N_13
REMARK                            x       y       z     vdW  Elec       q    Type
REMARK                         _______ _______ _______ _____ _____    ______ ____
ROOT
ATOM      1  C   UNL     1       3.044   1.024  -1.442  0.00  0.00    +0.033 C 
ATOM      2  C   UNL     1       2.490   1.048  -0.016  0.00  0.00    +0.099 C 
ENDROOT
BRANCH   2   3
ATOM      3  N   UNL     1       3.441   1.728   0.867  0.00  0.00    -0.322 N 
ATOM      4  C   UNL     1       4.491   1.023   1.428  0.00  0.00    +0.131 A 
ATOM      5  C   UNL     1       5.423   1.674   2.281  0.00  0.00    +0.051 A 
ATOM      6  C   UNL     1       5.448   3.084   2.703  0.00  0.00    -0.025 A 
ATOM      7  C   UNL     1       6.439   3.453   3.530  0.00  0.00    -0.004 A 
ATOM      8  S   UNL     1       7.389   1.974   3.803  0.00  0.00    -0.073 S 
ATOM      9  C   UNL     1       6.445   0.859   2.800  0.00  0.00    +0.114 A 
ATOM     10  N   UNL     1       6.527  -0.423   2.495  0.00  0.00    -0.228 NA
ATOM     11  C   UNL     1       5.635  -0.972   1.692  0.00  0.00    +0.224 A 
ATOM     12  N   UNL     1       4.645  -0.267   1.174  0.00  0.00    -0.220 NA
ATOM     13  C   UNL     1       6.364   4.912   3.893  0.00  0.00    +0.043 C 
ATOM     14  C   UNL     1       4.925   5.330   3.520  0.00  0.00    +0.010 C 
ATOM     15  C   UNL     1       4.579   4.312   2.415  0.00  0.00    +0.037 C 
ATOM     16  H   UNL     1       3.335   2.673   1.058  0.00  0.00    +0.148 HD
ENDBRANCH   2   3
BRANCH   2  17
ATOM     17  C   UNL     1       1.175   1.783   0.000  0.00  0.00    -0.027 A 
ATOM     18  C   UNL     1      -0.013   1.076   0.008  0.00  0.00    +0.007 A 
ATOM     19  C   UNL     1      -1.219   1.751   0.017  0.00  0.00    +0.029 A 
ATOM     20  C   UNL     1      -1.238   3.133   0.029  0.00  0.00    +0.105 A 
ATOM     21  C   UNL     1      -0.050   3.840   0.022  0.00  0.00    +0.029 A 
ATOM     22  C   UNL     1       1.156   3.165   0.008  0.00  0.00    +0.007 A 
BRANCH  20  23
ATOM     23  S   UNL     1      -2.775   3.993   0.047  0.00  0.00    +0.056 S 
ATOM     24  O   UNL     1      -3.733   3.102   0.601  0.00  0.00    -0.153 OA
ATOM     25  O   UNL     1      -2.517   5.275   0.602  0.00  0.00    -0.153 OA
BRANCH  23  26
ATOM     26  N   UNL     1      -3.216   4.240  -1.530  0.00  0.00    -0.204 NA
ATOM     27  H   UNL     1      -2.647   3.922  -2.249  0.00  0.00    +0.144 HD
ATOM     28  H   UNL     1      -4.044   4.703  -1.736  0.00  0.00    +0.144 HD
ENDBRANCH  23  26
ENDBRANCH  20  23
ENDBRANCH   2  17
TORSDOF 4
