REMARK  Name = ZINC59958659
REMARK  8 active torsions:
REMARK  status: ('A' for Active; 'I' for Inactive)
REMARK    1  A    between atoms: C_4  and  C_7
REMARK    2  A    between atoms: C_7  and  N_8
REMARK    3  A    between atoms: N_8  and  C_9
REMARK    4  A    between atoms: N_8  and  C_16
REMARK    5  A    between atoms: C_9  and  C_10
REMARK    6  A    between atoms: C_16  and  C_17
REMARK    7  A    between atoms: N_19  and  C_20
REMARK    8  A    between atoms: C_25  and  N_26
REMARK                            x       y       z     vdW  Elec       q    Type
REMARK                         _______ _______ _______ _____ _____    ______ ____
ROOT
ATOM      1  N   UNL     1       4.029  -0.989   1.375  0.00  0.00    +0.390 N 
ATOM      2  H   UNL     1       3.339  -1.557   1.843  0.00  0.00    -0.081 HD
ENDROOT
BRANCH   1   3
ATOM      3  C   UNL     1       3.601  -0.738  -0.008  0.00  0.00    -0.042 C 
BRANCH   3   7
ATOM      4  C   UNL     1       2.793  -4.456  -1.950  0.00  0.00    +0.000 A 
ATOM      5  C   UNL     1       1.817  -3.852  -1.179  0.00  0.00    +0.000 A 
ATOM      6  C   UNL     1       2.079  -2.649  -0.551  0.00  0.00    +0.002 A 
ATOM      7  C   UNL     1       3.317  -2.050  -0.692  0.00  0.00    -0.064 A 
ATOM      8  C   UNL     1       4.293  -2.654  -1.462  0.00  0.00    +0.002 A 
ATOM      9  C   UNL     1       4.031  -3.857  -2.091  0.00  0.00    +0.000 A 
ENDBRANCH   3   7
ENDBRANCH   1   3
BRANCH   1  10
ATOM     10  C   UNL     1       4.174   0.289   2.083  0.00  0.00    -0.046 C 
BRANCH  10  11
ATOM     11  C   UNL     1       2.802   0.953   2.222  0.00  0.00    +0.102 C 
ATOM     12  C   UNL     1       2.944   2.296   2.971  0.00  0.00    +0.032 C 
ATOM     13  C   UNL     1       1.680   2.305   3.873  0.00  0.00    +0.030 C 
ATOM     14  C   UNL     1       1.539   0.796   4.197  0.00  0.00    +0.160 C 
ATOM     15  O   UNL     1       1.933   0.115   2.994  0.00  0.00    -0.378 OA
ENDBRANCH  10  11
ENDBRANCH   1  10
BRANCH   1  16
ATOM     16  C   UNL     1       5.319  -1.693   1.367  0.00  0.00    +0.019 C 
BRANCH  16  17
ATOM     17  C   UNL     1       5.699  -2.060   2.779  0.00  0.00    +0.201 C 
ATOM     18  O   UNL     1       4.968  -1.764   3.700  0.00  0.00    -0.278 OA
ATOM     19  N   UNL     1       6.851  -2.717   3.017  0.00  0.00    -0.285 N 
ATOM     20  H   UNL     1       7.472  -2.887   2.291  0.00  0.00    +0.155 HD
BRANCH  19  21
ATOM     21  C   UNL     1       7.153  -3.153   4.313  0.00  0.00    +0.064 A 
ATOM     22  C   UNL     1       6.137  -3.587   5.155  0.00  0.00    +0.027 A 
ATOM     23  C   UNL     1       6.438  -4.017   6.432  0.00  0.00    +0.022 A 
ATOM     24  C   UNL     1       7.750  -4.016   6.873  0.00  0.00    +0.043 A 
ATOM     25  C   UNL     1       8.763  -3.585   6.036  0.00  0.00    +0.054 A 
ATOM     26  C   UNL     1       8.469  -3.159   4.756  0.00  0.00    +0.149 A 
ATOM     27 CL   UNL     1       8.124  -4.557   8.480  0.00  0.00    -0.083 Cl
BRANCH  26  28
ATOM     28  N   UNL     1       9.554  -2.703   3.859  0.00  0.00    +0.058 N 
ATOM     29  O   UNL     1      10.708  -2.801   4.208  0.00  0.00    -0.126 OA
ATOM     30  O   UNL     1       9.288  -2.234   2.777  0.00  0.00    -0.126 OA
ENDBRANCH  26  28
ENDBRANCH  19  21
ENDBRANCH  16  17
ENDBRANCH   1  16
TORSDOF 8
