REMARK  Name = ZINC04210245
REMARK  6 active torsions:
REMARK  status: ('A' for Active; 'I' for Inactive)
REMARK    1  A    between atoms: C_1  and  C_2
REMARK    2  A    between atoms: C_5  and  C_28
REMARK    3  A    between atoms: N_6  and  C_7
REMARK    4  A    between atoms: C_10  and  C_13
REMARK    5  A    between atoms: N_15  and  N_16
REMARK    6  A    between atoms: C_17  and  C_18
REMARK                            x       y       z     vdW  Elec       q    Type
REMARK                         _______ _______ _______ _____ _____    ______ ____
ROOT
ATOM      1  C   UNL     1       1.446   7.795   0.032  0.00  0.00    +0.263 C 
ATOM      2  O   UNL     1       0.240   7.950   0.044  0.00  0.00    -0.268 OA
ATOM      3  N   UNL     1       1.965   6.551   0.020  0.00  0.00    -0.203 N 
ATOM      4  H   UNL     1       2.927   6.427   0.010  0.00  0.00    +0.178 HD
ENDROOT
BRANCH   1   8
ATOM      5  C   UNL     1       4.023  11.171   0.027  0.00  0.00    +0.047 A 
ATOM      6  C   UNL     1       2.644  11.351   0.041  0.00  0.00    +0.027 A 
ATOM      7  C   UNL     1       1.805  10.258   0.043  0.00  0.00    +0.015 A 
ATOM      8  C   UNL     1       2.342   8.968   0.030  0.00  0.00    +0.038 A 
ATOM      9  C   UNL     1       3.728   8.791   0.022  0.00  0.00    +0.015 A 
ATOM     10  C   UNL     1       4.560   9.889   0.015  0.00  0.00    +0.027 A 
BRANCH   5  16
ATOM     11  C   UNL     1       4.201  13.194  -2.271  0.00  0.00    +0.064 C 
ATOM     12  C   UNL     1       4.976  13.203  -0.978  0.00  0.00    +0.021 A 
ATOM     13  C   UNL     1       5.892  14.122  -0.612  0.00  0.00    +0.023 A 
ATOM     14  C   UNL     1       6.378  13.754   0.659  0.00  0.00    +0.023 A 
ATOM     15  C   UNL     1       5.737  12.626   1.026  0.00  0.00    +0.021 A 
ATOM     16  N   UNL     1       4.871  12.283   0.026  0.00  0.00    -0.318 N 
ATOM     17  C   UNL     1       5.940  11.873   2.315  0.00  0.00    +0.064 C 
ENDBRANCH   5  16
ENDBRANCH   1   8
BRANCH   3  18
ATOM     18  N   UNL     1       1.115   5.437   0.021  0.00  0.00    -0.187 NA
ATOM     19  C   UNL     1       1.616   4.238   0.010  0.00  0.00    +0.140 C 
BRANCH  19  20
ATOM     20  C   UNL     1       0.723   3.068   0.012  0.00  0.00    +0.020 A 
ATOM     21  C   UNL     1       1.097   1.760   0.001  0.00  0.00    +0.093 A 
ATOM     22  N   UNL     1      -0.011   0.966   0.007  0.00  0.00    -0.360 N 
ATOM     23  H   UNL     1       0.002  -0.004   0.002  0.00  0.00    +0.165 HD
ATOM     24  C   UNL     1      -1.153   1.739   0.016  0.00  0.00    +0.047 A 
ATOM     25  C   UNL     1      -0.751   3.085   0.026  0.00  0.00    +0.008 A 
ATOM     26  C   UNL     1      -1.706   4.098   0.040  0.00  0.00    +0.010 A 
ATOM     27  C   UNL     1      -3.045   3.774   0.051  0.00  0.00    +0.001 A 
ATOM     28  C   UNL     1      -3.443   2.445   0.048  0.00  0.00    +0.002 A 
ATOM     29  C   UNL     1      -2.510   1.432   0.033  0.00  0.00    +0.026 A 
ENDBRANCH  19  20
ENDBRANCH   3  18
TORSDOF 4
