REMARK  Name = ZINC38199198
REMARK  9 active torsions:
REMARK  status: ('A' for Active; 'I' for Inactive)
REMARK    1  A    between atoms: C_1  and  C_2
REMARK    2  A    between atoms: C_7  and  C_9
REMARK    3  A    between atoms: C_7  and  C_10
REMARK    4  A    between atoms: N_11  and  C_13
REMARK    5  A    between atoms: C_13  and  C_14
REMARK    6  A    between atoms: C_17  and  O_22
REMARK    7  A    between atoms: C_19  and  O_20
REMARK    8  A    between atoms: O_20  and  C_21
REMARK    9  A    between atoms: O_22  and  C_23
REMARK                            x       y       z     vdW  Elec       q    Type
REMARK                         _______ _______ _______ _____ _____    ______ ____
ROOT
ATOM      1  C   UNL     1       0.533   1.515   0.121  0.00  0.00    +0.009 C 
ATOM      2  C   UNL     1       0.428  -0.017   0.087  0.00  0.00    -0.048 C 
ATOM      3  C   UNL     1      -1.038  -0.513   0.208  0.00  0.00    -0.011 C 
ATOM      4  C   UNL     1      -0.881  -1.923  -0.427  0.00  0.00    -0.067 C 
ATOM      5  C   UNL     1      -0.150  -2.801   0.570  0.00  0.00    -0.009 C 
ATOM      6  C   UNL     1       1.023  -2.188   1.302  0.00  0.00    -0.036 C 
ATOM      7  C   UNL     1       1.208  -0.686   1.220  0.00  0.00    +0.011 C 
ATOM      8  C   UNL     1       2.323  -2.879   0.847  0.00  0.00    +0.011 C 
ATOM      9  C   UNL     1       0.858  -2.542   2.804  0.00  0.00    +0.011 C 
ATOM     10  N   UNL     1      -0.072  -1.644  -1.630  0.00  0.00    +0.385 N 
ATOM     11  C   UNL     1       0.911  -0.610  -1.256  0.00  0.00    -0.071 C 
ATOM     12  H   UNL     1      -0.687  -1.248  -2.344  0.00  0.00    -0.081 HD
ENDROOT
BRANCH  10  13
ATOM     13  C   UNL     1       0.577  -2.827  -2.181  0.00  0.00    -0.039 C 
BRANCH  13  14
ATOM     14  C   UNL     1       1.260  -2.469  -3.476  0.00  0.00    -0.021 A 
ATOM     15  C   UNL     1       2.631  -2.295  -3.509  0.00  0.00    +0.024 A 
ATOM     16  C   UNL     1       3.259  -1.966  -4.695  0.00  0.00    +0.060 A 
ATOM     17  C   UNL     1       2.514  -1.810  -5.857  0.00  0.00    +0.137 A 
ATOM     18  C   UNL     1       1.140  -1.984  -5.825  0.00  0.00    +0.092 A 
ATOM     19  C   UNL     1       0.512  -2.319  -4.635  0.00  0.00    +0.125 A 
ATOM     20 BR   UNL     1       5.135  -1.728  -4.736  0.00  0.00    -0.047 Br
BRANCH  19  21
ATOM     21  O   UNL     1      -0.835  -2.496  -4.603  0.00  0.00    -0.495 OA
ATOM     22  C   UNL     1      -1.541  -2.326  -5.833  0.00  0.00    +0.277 C 
ENDBRANCH  19  21
BRANCH  17  23
ATOM     23  O   UNL     1       3.132  -1.486  -7.023  0.00  0.00    -0.494 OA
ATOM     24  C   UNL     1       2.304  -1.341  -8.178  0.00  0.00    +0.277 C 
ENDBRANCH  17  23
ENDBRANCH  13  14
ENDBRANCH  10  13
TORSDOF 4
