REMARK  Name = ZINC39673935
REMARK  8 active torsions:
REMARK  status: ('A' for Active; 'I' for Inactive)
REMARK    1  A    between atoms: C_1  and  C_2
REMARK    2  A    between atoms: C_4  and  C_12
REMARK    3  A    between atoms: C_12  and  C_13
REMARK    4  A    between atoms: C_13  and  N_14
REMARK    5  A    between atoms: C_15  and  C_17
REMARK    6  A    between atoms: C_28  and  C_30
REMARK    7  A    between atoms: C_30  and  C_31
REMARK    8  A    between atoms: C_30  and  C_32
REMARK                            x       y       z     vdW  Elec       q    Type
REMARK                         _______ _______ _______ _____ _____    ______ ____
ROOT
ATOM      1  N   UNL     1      -3.410   4.033   1.005  0.00  0.00    -0.315 N 
ATOM      2  C   UNL     1      -3.385   3.609   2.284  0.00  0.00    +0.218 C 
ATOM      3  O   UNL     1      -2.418   3.010   2.706  0.00  0.00    -0.275 OA
ATOM      4  H   UNL     1      -4.183   4.512   0.668  0.00  0.00    +0.149 HD
ENDROOT
BRANCH   2   5
ATOM      5  C   UNL     1      -4.558   3.878   3.191  0.00  0.00    +0.100 C 
ATOM      6  C   UNL     1      -4.670   2.775   4.267  0.00  0.00    +0.121 C 
ATOM      7  N   UNL     1      -3.955   3.325   5.443  0.00  0.00    -0.300 N 
ATOM      8  C   UNL     1      -4.328   4.760   5.463  0.00  0.00    +0.115 C 
ATOM      9  C   UNL     1      -4.337   5.179   3.980  0.00  0.00    -0.004 C 
ATOM     10  C   UNL     1      -5.477   6.158   3.715  0.00  0.00    -0.010 C 
ATOM     11  C   UNL     1      -5.206   7.466   4.464  0.00  0.00    -0.082 C 
ATOM     12  N   UNL     1      -3.930   8.035   4.013  0.00  0.00    +0.379 N 
ATOM     13  C   UNL     1      -2.828   7.128   4.355  0.00  0.00    -0.082 C 
ATOM     14  C   UNL     1      -2.999   5.806   3.602  0.00  0.00    -0.010 C 
ATOM     15  C   UNL     1      -3.148   2.669   6.300  0.00  0.00    +0.218 C 
ATOM     16  O   UNL     1      -2.876   1.503   6.105  0.00  0.00    -0.275 OA
ATOM     17  H   UNL     1      -3.958   8.166   3.012  0.00  0.00    -0.086 HD
ATOM     18  H   UNL     1      -3.784   8.926   4.462  0.00  0.00    -0.086 HD
BRANCH  15  19
ATOM     19  C   UNL     1      -2.583   3.384   7.500  0.00  0.00    +0.069 C 
ATOM     20  C   UNL     1      -3.583   3.310   8.655  0.00  0.00    +0.017 C 
ATOM     21  C   UNL     1      -1.270   2.719   7.918  0.00  0.00    +0.017 C 
ENDBRANCH  15  19
ENDBRANCH   2   5
BRANCH   1  22
ATOM     22  C   UNL     1      -2.269   3.771   0.124  0.00  0.00    +0.109 C 
BRANCH  22  23
ATOM     23  C   UNL     1      -2.552   4.354  -1.262  0.00  0.00    +0.056 C 
BRANCH  23  27
ATOM     24  C   UNL     1      -2.168   1.854  -3.063  0.00  0.00    +0.063 C 
ATOM     25  C   UNL     1      -1.204   3.007  -2.951  0.00  0.00    +0.017 A 
ATOM     26  H   UNL     1       0.326   2.449  -4.249  0.00  0.00    +0.166 HD
ATOM     27  C   UNL     1      -1.378   4.084  -2.169  0.00  0.00    -0.018 A 
ATOM     28  C   UNL     1      -0.212   4.949  -2.365  0.00  0.00    +0.003 A 
ATOM     29  C   UNL     1       0.180   6.182  -1.841  0.00  0.00    +0.010 A 
ATOM     30  C   UNL     1       1.363   6.742  -2.237  0.00  0.00    +0.001 A 
ATOM     31  C   UNL     1       2.177   6.093  -3.155  0.00  0.00    +0.002 A 
ATOM     32  C   UNL     1       1.809   4.875  -3.684  0.00  0.00    +0.026 A 
ATOM     33  C   UNL     1       0.610   4.287  -3.295  0.00  0.00    +0.047 A 
ATOM     34  N   UNL     1      -0.019   3.108  -3.627  0.00  0.00    -0.358 N 
ENDBRANCH  23  27
ENDBRANCH  22  23
ENDBRANCH   1  22
TORSDOF 5
