REMARK  Name = ZINC36029032
REMARK  11 active torsions:
REMARK  status: ('A' for Active; 'I' for Inactive)
REMARK    1  A    between atoms: C_1  and  C_2
REMARK    2  A    between atoms: C_2  and  C_3
REMARK    3  A    between atoms: C_3  and  C_5
REMARK    4  A    between atoms: C_3  and  C_6
REMARK    5  A    between atoms: N_10  and  C_29
REMARK    6  A    between atoms: N_15  and  C_18
REMARK    7  A    between atoms: C_18  and  N_20
REMARK    8  A    between atoms: N_20  and  C_21
REMARK    9  A    between atoms: C_24  and  O_27
REMARK   10  A    between atoms: O_27  and  C_28
REMARK   11  A    between atoms: C_29  and  C_30
REMARK                            x       y       z     vdW  Elec       q    Type
REMARK                         _______ _______ _______ _____ _____    ______ ____
ROOT
ATOM      1  C   UNL     1       0.553  -1.399   0.977  0.00  0.00    +0.022 C 
ATOM      2  C   UNL     1      -0.786  -2.097   1.072  0.00  0.00    +0.201 C 
ATOM      3  O   UNL     1      -1.825  -1.706   0.585  0.00  0.00    -0.277 OA
ATOM      4  N   UNL     1      -0.629  -3.229   1.790  0.00  0.00    -0.310 N 
ATOM      5  C   UNL     1       0.772  -3.358   2.200  0.00  0.00    +0.006 C 
ATOM      6  N   UNL     1       1.382  -2.019   2.040  0.00  0.00    +0.401 N 
ATOM      7  C   UNL     1       0.858  -3.794   3.661  0.00  0.00    +0.025 C 
ATOM      8  C   UNL     1       0.193  -5.165   3.822  0.00  0.00    +0.107 C 
ATOM      9  N   UNL     1       0.801  -6.101   2.866  0.00  0.00    -0.312 N 
ATOM     10  C   UNL     1       0.834  -5.736   1.443  0.00  0.00    +0.107 C 
ATOM     11  C   UNL     1       1.495  -4.361   1.302  0.00  0.00    +0.025 C 
ATOM     12  H   UNL     1       2.343  -2.096   1.743  0.00  0.00    -0.082 HD
ATOM     13  H   UNL     1       1.314  -1.492   2.898  0.00  0.00    -0.082 HD
ENDROOT
BRANCH   1  14
ATOM     14  C   UNL     1       0.392   0.101   1.234  0.00  0.00    -0.020 C 
ATOM     15  C   UNL     1      -0.254   0.317   2.604  0.00  0.00    +0.006 C 
BRANCH  14  17
ATOM     16  C   UNL     1      -0.557   2.229   0.334  0.00  0.00    +0.004 C 
ATOM     17  C   UNL     1      -0.497   0.711   0.149  0.00  0.00    -0.001 C 
ENDBRANCH  14  17
ENDBRANCH   1  14
BRANCH   9  18
ATOM     18  C   UNL     1       1.318  -7.272   3.287  0.00  0.00    +0.137 C 
ATOM     19  S   UNL     1       1.163  -7.736   4.928  0.00  0.00    -0.018 S 
BRANCH  18  20
ATOM     20  N   UNL     1       1.958  -8.078   2.417  0.00  0.00    -0.297 N 
ATOM     21  H   UNL     1       2.922  -8.177   2.465  0.00  0.00    +0.154 HD
BRANCH  20  22
ATOM     22  C   UNL     1       1.231  -8.772   1.441  0.00  0.00    +0.033 A 
ATOM     23  C   UNL     1      -0.156  -8.716   1.437  0.00  0.00    +0.027 A 
ATOM     24  C   UNL     1      -0.872  -9.400   0.474  0.00  0.00    +0.047 A 
ATOM     25  C   UNL     1      -0.205 -10.145  -0.487  0.00  0.00    +0.120 A 
ATOM     26  C   UNL     1       1.181 -10.203  -0.483  0.00  0.00    +0.047 A 
ATOM     27  C   UNL     1       1.898  -9.514   0.474  0.00  0.00    +0.027 A 
BRANCH  25  28
ATOM     28  O   UNL     1      -0.911 -10.819  -1.434  0.00  0.00    -0.495 OA
ATOM     29  C   UNL     1      -0.160 -11.566  -2.394  0.00  0.00    +0.277 C 
ENDBRANCH  25  28
ENDBRANCH  20  22
ENDBRANCH  18  20
ENDBRANCH   9  18
BRANCH   4  30
ATOM     30  C   UNL     1      -1.694  -4.181   2.111  0.00  0.00    +0.132 C 
BRANCH  30  31
ATOM     31  C   UNL     1      -2.363  -3.772   3.398  0.00  0.00    -0.016 C 
ATOM     32  C   UNL     1      -3.663  -3.619   3.441  0.00  0.00    +0.005 C 
ENDBRANCH  30  31
ENDBRANCH   4  30
TORSDOF 8
