REMARK  Name = ZINC09044965
REMARK  5 active torsions:
REMARK  status: ('A' for Active; 'I' for Inactive)
REMARK    1  A    between atoms: C_4  and  C_7
REMARK    2  A    between atoms: N_11  and  C_12
REMARK    3  A    between atoms: C_12  and  C_14
REMARK    4  A    between atoms: C_14  and  N_44
REMARK    5  A    between atoms: C_17  and  C_20
REMARK                            x       y       z     vdW  Elec       q    Type
REMARK                         _______ _______ _______ _____ _____    ______ ____
ROOT
ATOM      1  C   UNL     1      -7.174   4.312  -0.193  0.00  0.00    +0.222 C 
ATOM      2  O   UNL     1      -6.999   5.499  -0.392  0.00  0.00    -0.276 OA
ENDROOT
BRANCH   1   7
ATOM      3  C   UNL     1      -2.598   3.920  -0.845  0.00  0.00    +0.055 A 
ATOM      4  C   UNL     1      -2.673   5.257  -1.028  0.00  0.00    +0.074 A 
ATOM      5  S   UNL     1      -4.416   5.563  -0.803  0.00  0.00    -0.060 S 
ATOM      6  C   UNL     1      -4.920   3.934  -0.487  0.00  0.00    +0.163 A 
ATOM      7  N   UNL     1      -6.146   3.474  -0.230  0.00  0.00    -0.158 NA
ATOM      8  N   UNL     1      -3.750   3.240  -0.573  0.00  0.00    -0.335 N 
ATOM      9  H   UNL     1      -3.736   2.280  -0.439  0.00  0.00    +0.168 HD
BRANCH   3  13
ATOM     10  C   UNL     1       1.121   1.884  -1.127  0.00  0.00    +0.000 A 
ATOM     11  C   UNL     1      -0.033   1.174  -0.845  0.00  0.00    +0.001 A 
ATOM     12  C   UNL     1      -1.245   1.829  -0.757  0.00  0.00    +0.010 A 
ATOM     13  C   UNL     1      -1.303   3.211  -0.943  0.00  0.00    -0.001 A 
ATOM     14  C   UNL     1      -0.135   3.920  -1.228  0.00  0.00    +0.010 A 
ATOM     15  C   UNL     1       1.069   3.253  -1.318  0.00  0.00    +0.001 A 
ENDBRANCH   3  13
ENDBRANCH   1   7
BRANCH   1  16
ATOM     16  C   UNL     1      -8.559   3.792   0.098  0.00  0.00    +0.021 C 
BRANCH  16  22
ATOM     17  C   UNL     1     -10.880   4.458   0.264  0.00  0.00    -0.077 C 
ATOM     18  C   UNL     1     -11.822   5.665   0.257  0.00  0.00    -0.006 C 
ATOM     19  C   UNL     1     -11.528   6.542   1.477  0.00  0.00    +0.071 C 
ATOM     20  C   UNL     1     -10.059   6.972   1.445  0.00  0.00    -0.006 C 
ATOM     21  C   UNL     1      -9.168   5.728   1.417  0.00  0.00    -0.077 C 
ATOM     22  N   UNL     1      -9.483   4.939   0.207  0.00  0.00    +0.385 N 
ATOM     23  H   UNL     1      -9.371   5.538  -0.619  0.00  0.00    -0.081 HD
BRANCH  19  24
ATOM     24  C   UNL     1     -12.411   7.763   1.444  0.00  0.00    +0.213 C 
ATOM     25  O   UNL     1     -11.915   8.869   1.399  0.00  0.00    -0.276 OA
ATOM     26  N   UNL     1     -13.752   7.625   1.465  0.00  0.00    -0.329 N 
ATOM     27  H   UNL     1     -14.148   6.741   1.501  0.00  0.00    +0.145 HD
ATOM     28  H   UNL     1     -14.320   8.411   1.443  0.00  0.00    +0.145 HD
ENDBRANCH  19  24
ENDBRANCH  16  22
ENDBRANCH   1  16
TORSDOF 5
