REMARK  Name = ZINC20466469
REMARK  8 active torsions:
REMARK  status: ('A' for Active; 'I' for Inactive)
REMARK    1  A    between atoms: C_1  and  C_2
REMARK    2  A    between atoms: C_2  and  C_3
REMARK    3  A    between atoms: C_6  and  C_9
REMARK    4  A    between atoms: N_14  and  C_20
REMARK    5  A    between atoms: C_16  and  C_19
REMARK    6  A    between atoms: C_20  and  C_21
REMARK    7  A    between atoms: N_23  and  C_24
REMARK    8  A    between atoms: C_30  and  C_32
REMARK                            x       y       z     vdW  Elec       q    Type
REMARK                         _______ _______ _______ _____ _____    ______ ____
ROOT
ATOM      1  C   UNL     1       5.627   2.183  -8.025  0.00  0.00    +0.094 A 
ATOM      2  C   UNL     1       4.978   2.807  -6.947  0.00  0.00    +0.063 A 
ATOM      3  C   UNL     1       4.978   1.871  -5.936  0.00  0.00    +0.135 A 
ATOM      4  C   UNL     1       4.471   1.862  -4.560  0.00  0.00    +0.293 A 
ATOM      5  O   UNL     1       3.908   2.835  -4.092  0.00  0.00    -0.264 OA
ATOM      6  N   UNL     1       4.649   0.739  -3.826  0.00  0.00    -0.217 N 
ATOM      7  N   UNL     1       5.306  -0.359  -4.392  0.00  0.00    -0.153 NA
ATOM      8  C   UNL     1       5.746  -0.350  -5.604  0.00  0.00    +0.149 A 
ATOM      9  N   UNL     1       5.608   0.752  -6.424  0.00  0.00    -0.211 N 
ATOM     10  N   UNL     1       5.971   0.969  -7.639  0.00  0.00    -0.165 NA
ATOM     11  C   UNL     1       6.436  -1.578  -6.140  0.00  0.00    +0.090 C 
ENDROOT
BRANCH   1  15
ATOM     12  C   UNL     1       6.354   3.897 -11.849  0.00  0.00    -0.048 A 
ATOM     13  C   UNL     1       6.774   2.606 -11.581  0.00  0.00    +0.004 A 
ATOM     14  C   UNL     1       6.541   2.045 -10.342  0.00  0.00    +0.010 A 
ATOM     15  C   UNL     1       5.881   2.781  -9.360  0.00  0.00    +0.002 A 
ATOM     16  C   UNL     1       5.456   4.079  -9.636  0.00  0.00    +0.010 A 
ATOM     17  C   UNL     1       5.699   4.632 -10.877  0.00  0.00    +0.004 A 
BRANCH  12  19
ATOM     18  C   UNL     1       5.432   4.200 -14.131  0.00  0.00    +0.009 C 
ATOM     19  C   UNL     1       6.611   4.504 -13.204  0.00  0.00    +0.032 C 
ENDBRANCH  12  19
ENDBRANCH   1  15
BRANCH   6  20
ATOM     20  C   UNL     1       4.163   0.675  -2.446  0.00  0.00    +0.243 C 
BRANCH  20  21
ATOM     21  C   UNL     1       2.749   0.154  -2.436  0.00  0.00    +0.235 C 
ATOM     22  O   UNL     1       2.202  -0.137  -3.478  0.00  0.00    -0.274 OA
ATOM     23  N   UNL     1       2.093   0.010  -1.267  0.00  0.00    -0.311 N 
ATOM     24  H   UNL     1       2.589   0.273  -0.322  0.00  0.00    +0.149 HD
BRANCH  23  25
ATOM     25  C   UNL     1       0.718  -0.497  -1.257  0.00  0.00    +0.076 C 
ATOM     26  C   UNL     1       0.739  -2.027  -1.265  0.00  0.00    +0.022 C 
ATOM     27  C   UNL     1       1.479  -2.534  -0.026  0.00  0.00    +0.002 C 
ATOM     28  C   UNL     1       0.763  -2.041   1.233  0.00  0.00    +0.000 C 
ATOM     29  C   UNL     1       0.742  -0.511   1.242  0.00  0.00    +0.005 C 
ATOM     30  C   UNL     1       0.002  -0.004   0.002  0.00  0.00    +0.006 C 
ATOM     31  C   UNL     1      -0.019   1.526   0.010  0.00  0.00    +0.009 C 
ENDBRANCH  23  25
ENDBRANCH  20  21
ENDBRANCH   6  20
TORSDOF 5
