REMARK  Name = ZINC35706096
REMARK  10 active torsions:
REMARK  status: ('A' for Active; 'I' for Inactive)
REMARK    1  A    between atoms: C_1  and  C_2
REMARK    2  A    between atoms: C_5  and  C_8
REMARK    3  A    between atoms: C_21  and  C_23
REMARK    4  A    between atoms: C_23  and  N_24
REMARK    5  A    between atoms: N_24  and  C_25
REMARK    6  A    between atoms: C_25  and  C_26
REMARK    7  A    between atoms: C_26  and  N_27
REMARK    8  A    between atoms: N_27  and  C_28
REMARK    9  A    between atoms: N_27  and  C_29
REMARK   10  A    between atoms: C_30  and  C_32
REMARK                            x       y       z     vdW  Elec       q    Type
REMARK                         _______ _______ _______ _____ _____    ______ ____
ROOT
ATOM      1  C   UNL     1      -0.199  -4.353  -0.059  0.00  0.00    +0.093 A 
ATOM      2  C   UNL     1      -0.002  -4.990   1.172  0.00  0.00    +0.033 A 
ATOM      3  C   UNL     1      -0.018  -6.373   1.196  0.00  0.00    +0.047 A 
ATOM      4  C   UNL     1      -0.229  -7.047  -0.008  0.00  0.00    +0.144 A 
ATOM      5  N   UNL     1      -0.406  -6.361  -1.128  0.00  0.00    -0.134 NA
ATOM      6  N   UNL     1      -0.397  -5.077  -1.151  0.00  0.00    -0.147 NA
ATOM      7  N   UNL     1      -0.252  -8.437  -0.033  0.00  0.00    -0.312 N 
ATOM      8  C   UNL     1      -0.359  -9.111  -1.335  0.00  0.00    +0.108 C 
ATOM      9  C   UNL     1       0.580 -10.314  -1.454  0.00  0.00    +0.038 C 
ATOM     10  C   UNL     1       1.930  -9.991  -0.846  0.00  0.00    +0.109 C 
ATOM     11  N   UNL     1       1.863 -10.284   0.586  0.00  0.00    -0.299 N 
ATOM     12  C   UNL     1       1.326  -9.405   1.565  0.00  0.00    +0.126 C 
ATOM     13  C   UNL     1      -0.164  -9.151   1.229  0.00  0.00    +0.125 C 
ATOM     14  C   UNL     1       2.344 -11.471   1.006  0.00  0.00    +0.233 C 
ATOM     15  O   UNL     1       2.812 -12.253   0.206  0.00  0.00    -0.274 OA
ENDROOT
BRANCH   1  20
ATOM     16  C   UNL     1      -0.173   1.397  -0.370  0.00  0.00    +0.044 C 
ATOM     17  C   UNL     1      -0.179  -0.108  -0.288  0.00  0.00    -0.050 A 
ATOM     18  C   UNL     1      -0.386  -0.859  -1.432  0.00  0.00    +0.004 A 
ATOM     19  C   UNL     1      -0.393  -2.237  -1.363  0.00  0.00    +0.010 A 
ATOM     20  C   UNL     1      -0.192  -2.872  -0.139  0.00  0.00    +0.002 A 
ATOM     21  C   UNL     1       0.016  -2.111   1.010  0.00  0.00    +0.010 A 
ATOM     22  C   UNL     1       0.026  -0.733   0.928  0.00  0.00    +0.004 A 
ENDBRANCH   1  20
BRANCH  14  23
ATOM     23  C   UNL     1       2.301 -11.826   2.470  0.00  0.00    +0.204 C 
BRANCH  23  24
ATOM     24  N   UNL     1       2.879 -13.158   2.667  0.00  0.00    -0.288 N 
ATOM     25  C   UNL     1       2.113 -14.256   2.506  0.00  0.00    +0.282 C 
ATOM     26  O   UNL     1       2.566 -15.356   2.761  0.00  0.00    -0.267 OA
BRANCH  25  27
ATOM     27  C   UNL     1       0.735 -14.124   2.022  0.00  0.00    +0.189 A 
ATOM     28  C   UNL     1      -0.179 -15.133   1.920  0.00  0.00    +0.054 A 
ATOM     29  C   UNL     1      -1.357 -14.560   1.416  0.00  0.00    +0.042 A 
ATOM     30  C   UNL     1      -1.114 -13.243   1.236  0.00  0.00    +0.196 A 
ATOM     31  O   UNL     1       0.146 -12.983   1.607  0.00  0.00    -0.458 OA
ENDBRANCH  25  27
BRANCH  24  32
ATOM     32  C   UNL     1       4.289 -13.297   3.038  0.00  0.00    +0.090 C 
BRANCH  32  33
ATOM     33  C   UNL     1       4.417 -13.297   4.563  0.00  0.00    -0.060 C 
BRANCH  33  34
ATOM     34  N   UNL     1       5.831 -13.436   4.935  0.00  0.00    +0.377 N 
ATOM     35  C   UNL     1       5.968 -13.316   6.393  0.00  0.00    -0.097 C 
ATOM     36  C   UNL     1       6.324 -14.751   4.504  0.00  0.00    -0.097 C 
ATOM     37  H   UNL     1       6.370 -12.710   4.486  0.00  0.00    -0.083 HD
ENDBRANCH  33  34
ENDBRANCH  32  33
ENDBRANCH  24  32
ENDBRANCH  23  24
ENDBRANCH  14  23
TORSDOF 7
