REMARK  Name = ZINC39637888
REMARK  9 active torsions:
REMARK  status: ('A' for Active; 'I' for Inactive)
REMARK    1  A    between atoms: C_1  and  C_2
REMARK    2  A    between atoms: C_2  and  C_3
REMARK    3  A    between atoms: C_3  and  C_5
REMARK    4  A    between atoms: C_3  and  N_8
REMARK    5  A    between atoms: C_5  and  O_6
REMARK    6  A    between atoms: O_6  and  C_7
REMARK    7  A    between atoms: C_9  and  C_11
REMARK    8  A    between atoms: C_22  and  C_24
REMARK    9  A    between atoms: C_29  and  C_30
REMARK                            x       y       z     vdW  Elec       q    Type
REMARK                         _______ _______ _______ _____ _____    ______ ____
ROOT
ATOM      1  C   UNL     1      -0.474   1.365   4.926  0.00  0.00    +0.100 C 
ATOM      2  C   UNL     1      -1.906   1.443   4.352  0.00  0.00    +0.121 C 
ATOM      3  N   UNL     1      -2.480   2.675   4.943  0.00  0.00    -0.296 N 
ATOM      4  C   UNL     1      -1.361   3.647   4.927  0.00  0.00    +0.115 C 
ATOM      5  C   UNL     1      -0.119   2.814   5.301  0.00  0.00    -0.004 C 
ATOM      6  C   UNL     1       1.093   3.285   4.502  0.00  0.00    -0.010 C 
ATOM      7  C   UNL     1       1.462   4.707   4.935  0.00  0.00    -0.082 C 
ATOM      8  N   UNL     1       1.762   4.721   6.372  0.00  0.00    +0.379 N 
ATOM      9  C   UNL     1       0.564   4.356   7.137  0.00  0.00    -0.082 C 
ATOM     10  C   UNL     1       0.157   2.919   6.798  0.00  0.00    -0.010 C 
ATOM     11  C   UNL     1      -3.735   2.868   5.394  0.00  0.00    +0.247 C 
ATOM     12  O   UNL     1      -4.086   3.972   5.762  0.00  0.00    -0.270 OA
ATOM     13  H   UNL     1       2.498   4.059   6.566  0.00  0.00    -0.086 HD
ATOM     14  H   UNL     1       2.064   5.645   6.642  0.00  0.00    -0.086 HD
ENDROOT
BRANCH  11  15
ATOM     15  C   UNL     1      -4.685   1.736   5.442  0.00  0.00    +0.049 A 
ATOM     16  C   UNL     1      -4.673   0.768   4.437  0.00  0.00    +0.013 A 
ATOM     17  C   UNL     1      -5.562  -0.285   4.488  0.00  0.00    +0.001 A 
ATOM     18  C   UNL     1      -6.465  -0.383   5.532  0.00  0.00    +0.001 A 
ATOM     19  C   UNL     1      -6.482   0.573   6.532  0.00  0.00    +0.013 A 
ATOM     20  C   UNL     1      -5.594   1.629   6.496  0.00  0.00    +0.067 A 
BRANCH  20  21
ATOM     21  C   UNL     1      -5.610   2.667   7.588  0.00  0.00    +0.418 C 
ATOM     22  F   UNL     1      -6.600   2.344   8.523  0.00  0.00    -0.166 F 
ATOM     23  F   UNL     1      -4.363   2.697   8.221  0.00  0.00    -0.166 F 
ATOM     24  F   UNL     1      -5.883   3.922   7.035  0.00  0.00    -0.166 F 
ENDBRANCH  20  21
ENDBRANCH  11  15
BRANCH   1  26
ATOM     25  N   UNL     1       1.577   0.155   4.257  0.00  0.00    -0.310 N 
ATOM     26  C   UNL     1       0.481   0.844   3.883  0.00  0.00    +0.218 C 
ATOM     27  O   UNL     1       0.264   1.046   2.707  0.00  0.00    -0.275 OA
ATOM     28  H   UNL     1       1.751  -0.007   5.198  0.00  0.00    +0.149 HD
BRANCH  25  29
ATOM     29  C   UNL     1       2.506  -0.352   3.243  0.00  0.00    +0.098 C 
BRANCH  29  31
ATOM     30  C   UNL     1       0.678  -1.516   1.999  0.00  0.00    +0.006 C 
ATOM     31  C   UNL     1       2.010  -1.704   2.728  0.00  0.00    +0.021 C 
ENDBRANCH  29  31
BRANCH  29  32
ATOM     32  C   UNL     1       3.895  -0.520   3.863  0.00  0.00    +0.181 C 
BRANCH  32  33
ATOM     33  O   UNL     1       3.848  -1.531   4.871  0.00  0.00    -0.381 OA
ATOM     34  C   UNL     1       5.101  -1.768   5.516  0.00  0.00    +0.194 C 
ENDBRANCH  32  33
ENDBRANCH  29  32
ENDBRANCH  25  29
ENDBRANCH   1  26
TORSDOF 7
