REMARK  Name = ZINC64012464
REMARK  8 active torsions:
REMARK  status: ('A' for Active; 'I' for Inactive)
REMARK    1  A    between atoms: C_1  and  O_2
REMARK    2  A    between atoms: O_2  and  C_3
REMARK    3  A    between atoms: C_8  and  C_9
REMARK    4  A    between atoms: C_9  and  N_10
REMARK    5  A    between atoms: N_10  and  C_11
REMARK    6  A    between atoms: N_10  and  S_17
REMARK    7  A    between atoms: C_11  and  C_12
REMARK    8  A    between atoms: S_17  and  C_20
REMARK                            x       y       z     vdW  Elec       q    Type
REMARK                         _______ _______ _______ _____ _____    ______ ____
ROOT
ATOM      1  S   UNL     1       2.204  -2.205   2.426  0.00  0.00    +0.062 S 
ATOM      2  O   UNL     1       2.747  -3.157   3.330  0.00  0.00    -0.153 OA
ATOM      3  O   UNL     1       2.965  -1.639   1.368  0.00  0.00    -0.153 OA
ENDROOT
BRANCH   1   4
ATOM      4  C   UNL     1       1.619  -0.860   3.402  0.00  0.00    +0.107 A 
ATOM      5  C   UNL     1       1.392   0.386   2.783  0.00  0.00    +0.030 A 
ATOM      6  C   UNL     1       0.944   1.457   3.476  0.00  0.00    +0.027 A 
ATOM      7  C   UNL     1       0.690   1.336   4.867  0.00  0.00    +0.055 A 
ATOM      8  N   UNL     1       0.253   2.361   5.567  0.00  0.00    -0.276 N 
ATOM      9  C   UNL     1       0.018   2.222   6.888  0.00  0.00    +0.304 C 
ATOM     10  O   UNL     1      -0.385   3.164   7.540  0.00  0.00    -0.265 OA
ATOM     11  C   UNL     1       0.259   0.900   7.545  0.00  0.00    +0.304 C 
ATOM     12  O   UNL     1       0.052   0.760   8.733  0.00  0.00    -0.265 OA
ATOM     13  N   UNL     1       0.707  -0.137   6.807  0.00  0.00    -0.276 N 
ATOM     14  C   UNL     1       0.929   0.022   5.519  0.00  0.00    +0.057 A 
ATOM     15  C   UNL     1       1.395  -1.055   4.721  0.00  0.00    +0.053 A 
ATOM     16  H   UNL     1       0.866  -0.998   7.225  0.00  0.00    +0.155 HD
ATOM     17  H   UNL     1       0.100   3.216   5.134  0.00  0.00    +0.155 HD
ENDBRANCH   1   4
BRANCH   1  18
ATOM     18  N   UNL     1       0.881  -2.917   1.728  0.00  0.00    -0.167 NA
BRANCH  18  19
ATOM     19  C   UNL     1       0.455  -2.513   0.386  0.00  0.00    +0.148 C 
BRANCH  19  25
ATOM     20  C   UNL     1      -0.415  -4.620  -0.658  0.00  0.00    +0.125 A 
ATOM     21  C   UNL     1      -0.282  -5.689  -1.533  0.00  0.00    +0.046 A 
ATOM     22  C   UNL     1       0.861  -5.816  -2.297  0.00  0.00    +0.004 A 
ATOM     23  C   UNL     1       1.873  -4.879  -2.192  0.00  0.00    +0.001 A 
ATOM     24  C   UNL     1       1.742  -3.813  -1.321  0.00  0.00    +0.008 A 
ATOM     25  C   UNL     1       0.598  -3.678  -0.558  0.00  0.00    +0.010 A 
BRANCH  20  27
ATOM     26  C   UNL     1      -2.501  -5.546   0.009  0.00  0.00    +0.277 C 
ATOM     27  O   UNL     1      -1.539  -4.492   0.095  0.00  0.00    -0.495 OA
ENDBRANCH  20  27
ENDBRANCH  19  25
ENDBRANCH  18  19
BRANCH  18  28
ATOM     28  C   UNL     1       0.137  -3.949   2.454  0.00  0.00    +0.152 C 
BRANCH  28  29
ATOM     29  C   UNL     1       0.827  -5.278   2.284  0.00  0.00    +0.005 A 
ATOM     30  C   UNL     1       1.875  -5.790   2.975  0.00  0.00    +0.012 A 
ATOM     31  C   UNL     1       2.348  -7.046   2.643  0.00  0.00    +0.008 A 
ATOM     32  C   UNL     1       1.750  -7.728   1.636  0.00  0.00    +0.045 A 
ATOM     33  S   UNL     1       0.472  -6.590   1.127  0.00  0.00    -0.100 S 
ENDBRANCH  28  29
ENDBRANCH  18  28
ENDBRANCH   1  18
TORSDOF 7
