REMARK  Name = ZINC33397115
REMARK  9 active torsions:
REMARK  status: ('A' for Active; 'I' for Inactive)
REMARK    1  A    between atoms: C_4  and  C_7
REMARK    2  A    between atoms: C_8  and  C_9
REMARK    3  A    between atoms: N_11  and  C_12
REMARK    4  A    between atoms: C_12  and  C_14
REMARK    5  A    between atoms: C_12  and  N_18
REMARK    6  A    between atoms: N_18  and  C_19
REMARK    7  A    between atoms: C_19  and  N_21
REMARK    8  A    between atoms: N_21  and  C_22
REMARK    9  A    between atoms: C_26  and  N_28
REMARK                            x       y       z     vdW  Elec       q    Type
REMARK                         _______ _______ _______ _____ _____    ______ ____
ROOT
ATOM      1  C   UNL     1      -3.769  -4.006  -0.047  0.00  0.00    +0.211 C 
ENDROOT
BRANCH   1   4
ATOM      2  C   UNL     1      -3.015  -4.160  -2.359  0.00  0.00    +0.238 C 
ATOM      3  O   UNL     1      -1.957  -4.604  -1.954  0.00  0.00    -0.271 OA
ATOM      4  N   UNL     1      -3.986  -3.830  -1.485  0.00  0.00    -0.290 N 
ATOM      5  H   UNL     1      -4.943  -3.428  -1.852  0.00  0.00    +0.151 HD
BRANCH   2   7
ATOM      6  C   UNL     1      -2.214  -4.169  -4.660  0.00  0.00    +0.013 C 
ATOM      7  C   UNL     1      -3.232  -3.984  -3.796  0.00  0.00    +0.068 C 
BRANCH   6  11
ATOM      8  C   UNL     1       1.766  -4.443  -3.219  0.00  0.00    +0.000 A 
ATOM      9  C   UNL     1       1.329  -5.313  -4.202  0.00  0.00    +0.001 A 
ATOM     10  C   UNL     1       0.037  -5.230  -4.676  0.00  0.00    +0.008 A 
ATOM     11  C   UNL     1      -0.833  -4.265  -4.159  0.00  0.00    -0.025 A 
ATOM     12  C   UNL     1      -0.382  -3.386  -3.169  0.00  0.00    +0.008 A 
ATOM     13  C   UNL     1       0.912  -3.485  -2.702  0.00  0.00    +0.001 A 
ENDBRANCH   6  11
ENDBRANCH   2   7
ENDBRANCH   1   4
BRANCH   1  14
ATOM     14  C   UNL     1      -5.005  -4.654   0.580  0.00  0.00    +0.225 C 
ATOM     15 CL   UNL     1      -6.439  -3.595   0.314  0.00  0.00    -0.080 Cl
ATOM     16 CL   UNL     1      -5.294  -6.261  -0.185  0.00  0.00    -0.080 Cl
ATOM     17 CL   UNL     1      -4.737  -4.871   2.350  0.00  0.00    -0.080 Cl
ENDBRANCH   1  14
BRANCH   1  18
ATOM     18  N   UNL     1      -3.534  -2.700   0.575  0.00  0.00    -0.305 N 
ATOM     19  H   UNL     1      -4.374  -2.009   0.736  0.00  0.00    +0.150 HD
BRANCH  18  20
ATOM     20  C   UNL     1      -2.288  -2.346   0.948  0.00  0.00    +0.136 C 
ATOM     21  S   UNL     1      -0.981  -3.422   0.697  0.00  0.00    -0.019 S 
BRANCH  20  22
ATOM     22  N   UNL     1      -2.072  -1.145   1.520  0.00  0.00    -0.297 N 
ATOM     23  H   UNL     1      -2.921  -0.484   1.750  0.00  0.00    +0.154 HD
BRANCH  22  24
ATOM     24  C   UNL     1      -0.768  -0.739   1.822  0.00  0.00    +0.035 A 
ATOM     25  C   UNL     1      -0.478  -0.202   3.070  0.00  0.00    +0.023 A 
ATOM     26  C   UNL     1       0.812   0.193   3.367  0.00  0.00    +0.004 A 
ATOM     27  C   UNL     1       1.813   0.059   2.421  0.00  0.00    +0.033 A 
ATOM     28  C   UNL     1       1.526  -0.470   1.177  0.00  0.00    +0.128 A 
ATOM     29  C   UNL     1       0.238  -0.867   0.874  0.00  0.00    +0.056 A 
BRANCH  28  30
ATOM     30  N   UNL     1       2.600  -0.613   0.169  0.00  0.00    +0.056 N 
ATOM     31  O   UNL     1       3.736  -0.264   0.436  0.00  0.00    -0.126 OA
ATOM     32  O   UNL     1       2.348  -1.079  -0.928  0.00  0.00    -0.126 OA
ENDBRANCH  28  30
ENDBRANCH  22  24
ENDBRANCH  20  22
ENDBRANCH  18  20
ENDBRANCH   1  18
TORSDOF 9
