REMARK  Name = ZINC03840517
REMARK  10 active torsions:
REMARK  status: ('A' for Active; 'I' for Inactive)
REMARK    1  A    between atoms: C_1  and  C_2
REMARK    2  A    between atoms: N_9  and  C_10
REMARK    3  A    between atoms: C_12  and  C_32
REMARK    4  A    between atoms: C_15  and  O_31
REMARK    5  A    between atoms: C_17  and  C_21
REMARK    6  A    between atoms: C_21  and  C_23
REMARK    7  A    between atoms: C_21  and  C_24
REMARK    8  A    between atoms: N_26  and  C_27
REMARK    9  A    between atoms: N_26  and  C_28
REMARK   10  A    between atoms: C_28  and  C_29
REMARK                            x       y       z     vdW  Elec       q    Type
REMARK                         _______ _______ _______ _____ _____    ______ ____
ROOT
ATOM      1  C   UNL     1      -5.374   1.379  -1.005  0.00  0.00    +0.014 C 
ATOM      2  C   UNL     1      -4.402   1.057   0.133  0.00  0.00    +0.042 C 
ATOM      3  C   UNL     1      -5.095   1.280   1.468  0.00  0.00    +0.057 A 
ATOM      4  C   UNL     1      -4.429   1.873   2.490  0.00  0.00    +0.015 A 
ATOM      5  S   UNL     1      -5.639   1.893   3.785  0.00  0.00    -0.057 S 
ATOM      6  C   UNL     1      -6.920   1.129   2.892  0.00  0.00    +0.158 A 
ATOM      7  N   UNL     1      -6.354   0.922   1.720  0.00  0.00    -0.229 NA
ATOM      8  N   UNL     1      -8.206   0.817   3.305  0.00  0.00    -0.327 N 
ATOM      9  C   UNL     1      -8.635   1.139   4.669  0.00  0.00    +0.127 C 
ATOM     10  C   UNL     1      -3.027   2.371   2.495  0.00  0.00    +0.051 C 
ATOM     11  C   UNL     1      -2.288   1.804   1.267  0.00  0.00    -0.022 C 
ATOM     12  C   UNL     1      -3.175   1.972   0.032  0.00  0.00    +0.033 C 
ATOM     13  C   UNL     1      -2.404   1.569  -1.230  0.00  0.00    +0.123 C 
ATOM     14  C   UNL     1      -1.137   2.409  -1.370  0.00  0.00    +0.029 C 
ATOM     15  C   UNL     1      -0.245   2.164  -0.148  0.00  0.00    +0.007 C 
ATOM     16  C   UNL     1      -0.992   2.611   1.106  0.00  0.00    +0.008 C 
ATOM     17  C   UNL     1      -1.972   0.323   1.486  0.00  0.00    +0.012 C 
ATOM     18  H   UNL     1      -8.821   0.387   2.692  0.00  0.00    +0.148 HD
ENDROOT
BRANCH  14  19
ATOM     19  C   UNL     1      -0.389   2.002  -2.641  0.00  0.00    +0.078 C 
ATOM     20  C   UNL     1       0.080   0.552  -2.514  0.00  0.00    +0.017 C 
BRANCH  19  21
ATOM     21  C   UNL     1       0.805   2.902  -2.831  0.00  0.00    +0.219 C 
ATOM     22  O   UNL     1       1.899   2.546  -2.447  0.00  0.00    -0.275 OA
ATOM     23  N   UNL     1       0.658   4.101  -3.428  0.00  0.00    -0.293 N 
ATOM     24  C   UNL     1      -0.640   4.485  -3.990  0.00  0.00    +0.133 C 
BRANCH  23  25
ATOM     25  C   UNL     1       1.794   5.021  -3.515  0.00  0.00    +0.196 C 
BRANCH  25  26
ATOM     26  C   UNL     1       2.536   4.768  -4.761  0.00  0.00    -0.086 C 
ATOM     27  C   UNL     1       3.127   4.566  -5.755  0.00  0.00    +0.005 C 
ENDBRANCH  25  26
ENDBRANCH  23  25
ENDBRANCH  19  21
ENDBRANCH  14  19
BRANCH  13  28
ATOM     28  O   UNL     1      -3.236   1.774  -2.374  0.00  0.00    -0.391 OA
ATOM     29  H   UNL     1      -2.853   1.451  -3.201  0.00  0.00    +0.210 HD
ENDBRANCH  13  28
TORSDOF 5
