REMARK  Name = ZINC09040988
REMARK  10 active torsions:
REMARK  status: ('A' for Active; 'I' for Inactive)
REMARK    1  A    between atoms: C_1  and  C_2
REMARK    2  A    between atoms: C_17  and  C_35
REMARK    3  A    between atoms: C_19  and  O_33
REMARK    4  A    between atoms: C_22  and  C_32
REMARK    5  A    between atoms: C_23  and  C_24
REMARK    6  A    between atoms: C_23  and  O_31
REMARK    7  A    between atoms: C_24  and  C_26
REMARK    8  A    between atoms: C_26  and  O_27
REMARK    9  A    between atoms: O_27  and  C_28
REMARK   10  A    between atoms: C_28  and  C_30
REMARK                            x       y       z     vdW  Elec       q    Type
REMARK                         _______ _______ _______ _____ _____    ______ ____
ROOT
ATOM      1  C   UNL     1       0.421  -1.076  -2.759  0.00  0.00    +0.011 C 
ATOM      2  C   UNL     1      -0.721  -0.060  -2.809  0.00  0.00    +0.026 C 
ATOM      3  C   UNL     1      -1.328  -0.008  -4.239  0.00  0.00    +0.011 C 
ATOM      4  C   UNL     1      -0.723   1.273  -4.820  0.00  0.00    +0.005 C 
ATOM      5  C   UNL     1      -1.313   1.847  -6.065  0.00  0.00    +0.034 C 
ATOM      6  C   UNL     1      -2.836   1.940  -6.086  0.00  0.00    +0.011 C 
ATOM      7  C   UNL     1      -3.239   1.978  -7.566  0.00  0.00    +0.032 C 
ATOM      8  C   UNL     1      -2.391   2.995  -8.294  0.00  0.00    -0.053 C 
ATOM      9  C   UNL     1      -2.660   3.141  -9.602  0.00  0.00    +0.051 C 
ATOM     10  C   UNL     1      -1.804   4.011 -10.434  0.00  0.00    +0.179 C 
ATOM     11  O   UNL     1      -2.163   4.369 -11.554  0.00  0.00    -0.288 OA
ATOM     12  C   UNL     1      -0.503   4.442  -9.878  0.00  0.00    +0.047 C 
ATOM     13  C   UNL     1      -0.285   4.329  -8.564  0.00  0.00    -0.009 C 
ATOM     14  C   UNL     1      -1.338   3.811  -7.629  0.00  0.00    +0.044 C 
ATOM     15  C   UNL     1      -0.716   3.220  -6.387  0.00  0.00    +0.153 C 
ATOM     16  C   UNL     1      -0.670   4.150  -5.190  0.00  0.00    +0.154 C 
ATOM     17  C   UNL     1      -0.002   3.481  -3.970  0.00  0.00    +0.044 C 
ATOM     18  C   UNL     1      -0.784   2.236  -3.618  0.00  0.00    +0.010 C 
ATOM     19  C   UNL     1      -0.182   1.361  -2.506  0.00  0.00    +0.135 C 
ATOM     20  C   UNL     1      -2.211   2.586  -3.206  0.00  0.00    +0.015 C 
ATOM     21  F   UNL     1       0.635   2.969  -6.733  0.00  0.00    -0.238 F 
ATOM     22  C   UNL     1      -2.096   5.074  -7.209  0.00  0.00    +0.023 C 
ENDROOT
BRANCH  19  23
ATOM     23  C   UNL     1      -0.666   1.832  -1.162  0.00  0.00    +0.202 C 
ATOM     24  O   UNL     1      -1.679   1.373  -0.689  0.00  0.00    -0.291 OA
BRANCH  23  25
ATOM     25  C   UNL     1       0.112   2.878  -0.405  0.00  0.00    +0.309 C 
BRANCH  25  26
ATOM     26  O   UNL     1      -0.555   3.161   0.854  0.00  0.00    -0.457 OA
BRANCH  26  27
ATOM     27  C   UNL     1       0.014   4.077   1.653  0.00  0.00    +0.304 C 
ATOM     28  O   UNL     1       1.036   4.624   1.312  0.00  0.00    -0.251 OA
ATOM     29  C   UNL     1      -0.621   4.423   2.974  0.00  0.00    +0.136 C 
ENDBRANCH  26  27
ENDBRANCH  25  26
ENDBRANCH  23  25
ENDBRANCH  19  23
BRANCH  19  30
ATOM     30  O   UNL     1       1.241   1.387  -2.571  0.00  0.00    -0.380 OA
ATOM     31  H   UNL     1       1.675   0.835  -1.906  0.00  0.00    +0.211 HD
ENDBRANCH  19  30
BRANCH  16  32
ATOM     32  O   UNL     1       0.134   5.297  -5.510  0.00  0.00    -0.389 OA
ATOM     33  H   UNL     1       0.199   5.944  -4.793  0.00  0.00    +0.210 HD
ENDBRANCH  16  32
TORSDOF 6
