REMARK  Name = ZINC22242643
REMARK  11 active torsions:
REMARK  status: ('A' for Active; 'I' for Inactive)
REMARK    1  A    between atoms: C_1  and  C_2
REMARK    2  A    between atoms: C_3  and  C_30
REMARK    3  A    between atoms: C_11  and  C_13
REMARK    4  A    between atoms: C_13  and  C_15
REMARK    5  A    between atoms: C_13  and  N_16
REMARK    6  A    between atoms: N_19  and  C_22
REMARK    7  A    between atoms: C_22  and  C_23
REMARK    8  A    between atoms: N_25  and  C_26
REMARK    9  A    between atoms: C_26  and  C_27
REMARK   10  A    between atoms: C_27  and  C_28
REMARK   11  A    between atoms: C_27  and  C_29
REMARK                            x       y       z     vdW  Elec       q    Type
REMARK                         _______ _______ _______ _____ _____    ______ ____
ROOT
ATOM      1  N   UNL     1       0.276  -4.763   3.954  0.00  0.00    +0.388 N 
ATOM      2  C   UNL     1      -0.803  -5.025   2.992  0.00  0.00    -0.062 C 
ATOM      3  C   UNL     1      -0.600  -6.403   2.360  0.00  0.00    +0.066 C 
ATOM      4  N   UNL     1      -0.601  -7.428   3.414  0.00  0.00    -0.298 NA
ATOM      5  C   UNL     1       0.459  -7.165   4.398  0.00  0.00    +0.066 C 
ATOM      6  C   UNL     1       0.246  -5.780   5.013  0.00  0.00    -0.062 C 
ATOM      7  H   UNL     1       1.165  -4.798   3.479  0.00  0.00    -0.081 HD
ENDROOT
BRANCH   1   8
ATOM      8  C   UNL     1       0.090  -3.432   4.547  0.00  0.00    -0.004 C 
ATOM      9  C   UNL     1      -1.181  -3.426   5.399  0.00  0.00    -0.005 C 
BRANCH   8  20
ATOM     10  C   UNL     1       4.880  -1.163   8.653  0.00  0.00    +0.045 C 
ATOM     11  C   UNL     1       4.671  -2.352   7.750  0.00  0.00    -0.026 A 
ATOM     12  C   UNL     1       5.619  -3.298   7.643  0.00  0.00    -0.008 A 
ATOM     13  S   UNL     1       4.914  -4.458   6.488  0.00  0.00    -0.073 S 
ATOM     14  C   UNL     1       3.369  -3.640   6.183  0.00  0.00    +0.116 A 
ATOM     15  C   UNL     1       3.442  -2.491   6.992  0.00  0.00    +0.075 A 
ATOM     16  C   UNL     1       2.300  -1.627   6.945  0.00  0.00    +0.260 A 
ATOM     17  O   UNL     1       2.270  -0.604   7.607  0.00  0.00    -0.267 OA
ATOM     18  N   UNL     1       1.261  -1.963   6.159  0.00  0.00    -0.312 N 
ATOM     19  H   UNL     1       0.485  -1.383   6.123  0.00  0.00    +0.170 HD
ATOM     20  C   UNL     1       1.277  -3.098   5.413  0.00  0.00    +0.097 A 
ATOM     21  N   UNL     1       2.307  -3.901   5.427  0.00  0.00    -0.228 NA
ATOM     22  C   UNL     1       6.957  -3.362   8.334  0.00  0.00    +0.052 C 
ENDBRANCH   8  20
ENDBRANCH   1   8
BRANCH   4  23
ATOM     23  C   UNL     1      -0.465  -8.773   2.840  0.00  0.00    +0.180 C 
BRANCH  23  24
ATOM     24  C   UNL     1      -0.714  -9.803   3.912  0.00  0.00    +0.227 C 
ATOM     25  O   UNL     1      -0.979  -9.451   5.042  0.00  0.00    -0.274 OA
ATOM     26  N   UNL     1      -0.642 -11.116   3.614  0.00  0.00    -0.314 N 
ATOM     27  H   UNL     1      -0.430 -11.397   2.711  0.00  0.00    +0.149 HD
BRANCH  26  28
ATOM     28  C   UNL     1      -0.885 -12.117   4.655  0.00  0.00    +0.107 C 
BRANCH  28  29
ATOM     29  C   UNL     1      -0.743 -13.519   4.058  0.00  0.00    -0.000 C 
ATOM     30  C   UNL     1       0.704 -13.739   3.614  0.00  0.00    +0.009 C 
ATOM     31  C   UNL     1      -1.118 -14.563   5.112  0.00  0.00    +0.009 C 
ENDBRANCH  28  29
ENDBRANCH  26  28
ENDBRANCH  23  24
ENDBRANCH   4  23
TORSDOF 6
