REMARK  Name = ZINC65383630
REMARK  5 active torsions:
REMARK  status: ('A' for Active; 'I' for Inactive)
REMARK    1  A    between atoms: C_3  and  C_6
REMARK    2  A    between atoms: C_6  and  N_7
REMARK    3  A    between atoms: C_11  and  C_13
REMARK    4  A    between atoms: C_13  and  N_14
REMARK    5  A    between atoms: C_21  and  C_23
REMARK                            x       y       z     vdW  Elec       q    Type
REMARK                         _______ _______ _______ _____ _____    ______ ____
ROOT
ATOM      1  N   UNL     1       7.826   3.822   4.141  0.00  0.00    -0.299 N 
ATOM      2  C   UNL     1       9.024   4.393   4.375  0.00  0.00    +0.302 C 
ATOM      3  O   UNL     1       9.813   4.546   3.462  0.00  0.00    -0.253 OA
ATOM      4  N   UNL     1       9.348   4.794   5.620  0.00  0.00    -0.281 N 
ATOM      5  C   UNL     1       8.461   4.516   6.761  0.00  0.00    +0.137 C 
ATOM      6  C   UNL     1       8.233   5.824   7.526  0.00  0.00    +0.180 C 
ATOM      7  O   UNL     1       9.498   6.415   7.835  0.00  0.00    -0.364 OA
ATOM      8  C   UNL     1      10.269   6.782   6.688  0.00  0.00    +0.221 C 
ATOM      9  C   UNL     1      10.603   5.517   5.880  0.00  0.00    +0.150 C 
ATOM     10  H   UNL     1       7.227   3.632   4.880  0.00  0.00    +0.150 HD
ENDROOT
BRANCH   8  11
ATOM     11  C   UNL     1      11.546   7.446   7.131  0.00  0.00    +0.241 C 
ATOM     12  O   UNL     1      11.818   7.511   8.312  0.00  0.00    -0.273 OA
ATOM     13  N   UNL     1      12.387   7.968   6.217  0.00  0.00    -0.327 N 
ATOM     14  H   UNL     1      12.170   7.916   5.273  0.00  0.00    +0.145 HD
ATOM     15  H   UNL     1      13.210   8.396   6.502  0.00  0.00    +0.145 HD
ENDBRANCH   8  11
BRANCH   1  16
ATOM     16  C   UNL     1       7.429   3.487   2.772  0.00  0.00    +0.107 C 
BRANCH  16  21
ATOM     17  N   UNL     1       4.234   2.006   1.357  0.00  0.00    +0.383 N 
ATOM     18  C   UNL     1       4.291   0.691   2.006  0.00  0.00    -0.078 C 
ATOM     19  C   UNL     1       4.707   0.857   3.469  0.00  0.00    -0.018 C 
ATOM     20  C   UNL     1       6.088   1.518   3.529  0.00  0.00    +0.001 C 
ATOM     21  C   UNL     1       6.035   2.855   2.785  0.00  0.00    -0.011 C 
ATOM     22  C   UNL     1       5.570   2.615   1.347  0.00  0.00    -0.073 C 
ATOM     23  H   UNL     1       3.598   2.602   1.865  0.00  0.00    -0.081 HD
BRANCH  17  24
ATOM     24  C   UNL     1       3.759   1.849  -0.024  0.00  0.00    -0.036 C 
BRANCH  24  27
ATOM     25  C   UNL     1      -0.018   1.354   0.011  0.00  0.00    +0.008 A 
ATOM     26  C   UNL     1       1.181   2.041   0.004  0.00  0.00    +0.009 A 
ATOM     27  C   UNL     1       2.341   1.339  -0.013  0.00  0.00    -0.027 A 
ATOM     28  S   UNL     1       1.752  -0.346  -0.018  0.00  0.00    -0.103 S 
ATOM     29  C   UNL     1       0.001  -0.001   0.002  0.00  0.00    +0.045 A 
ENDBRANCH  24  27
ENDBRANCH  17  24
ENDBRANCH  16  21
ENDBRANCH   1  16
TORSDOF 5
