REMARK  Name = ZINC28955163
REMARK  10 active torsions:
REMARK  status: ('A' for Active; 'I' for Inactive)
REMARK    1  A    between atoms: C_1  and  C_2
REMARK    2  A    between atoms: C_2  and  C_4
REMARK    3  A    between atoms: C_2  and  N_11
REMARK    4  A    between atoms: N_11  and  C_12
REMARK    5  A    between atoms: C_12  and  C_13
REMARK    6  A    between atoms: N_15  and  C_16
REMARK    7  A    between atoms: N_15  and  C_21
REMARK    8  A    between atoms: C_16  and  C_17
REMARK    9  A    between atoms: C_17  and  C_18
REMARK   10  A    between atoms: C_21  and  C_22
REMARK                            x       y       z     vdW  Elec       q    Type
REMARK                         _______ _______ _______ _____ _____    ______ ____
ROOT
ATOM      1  C   UNL     1       1.198  -0.712   2.003  0.00  0.00    +0.199 C 
ATOM      2  O   UNL     1       2.240  -0.492   1.423  0.00  0.00    -0.278 OA
ATOM      3  N   UNL     1       0.022  -0.500   1.381  0.00  0.00    -0.298 N 
ENDROOT
BRANCH   1   4
ATOM      4  C   UNL     1       1.218  -1.222   3.421  0.00  0.00    +0.016 C 
BRANCH   4   5
ATOM      5  N   UNL     1       2.610  -1.369   3.869  0.00  0.00    +0.389 N 
ATOM      6  H   UNL     1       3.104  -0.388   3.811  0.00  0.00    -0.084 HD
ATOM      7  H   UNL     1       3.122  -2.078   3.202  0.00  0.00    -0.084 HD
BRANCH   5   9
ATOM      8  C   UNL     1       2.550  -0.688   6.221  0.00  0.00    -0.009 C 
ATOM      9  C   UNL     1       2.669  -1.865   5.250  0.00  0.00    -0.042 C 
BRANCH   9  10
ATOM     10  C   UNL     1       3.981  -2.571   5.475  0.00  0.00    -0.043 A 
ATOM     11  C   UNL     1       5.081  -2.249   4.701  0.00  0.00    +0.003 A 
ATOM     12  C   UNL     1       6.284  -2.896   4.907  0.00  0.00    +0.000 A 
ATOM     13  C   UNL     1       6.390  -3.865   5.887  0.00  0.00    +0.001 A 
ATOM     14  C   UNL     1       5.292  -4.188   6.662  0.00  0.00    +0.020 A 
ATOM     15  C   UNL     1       4.088  -3.536   6.460  0.00  0.00    +0.043 A 
ATOM     16 CL   UNL     1       2.710  -3.936   7.437  0.00  0.00    -0.083 Cl
ENDBRANCH   9  10
ENDBRANCH   5   9
ENDBRANCH   4   5
ENDBRANCH   1   4
BRANCH   3  17
ATOM     17  C   UNL     1      -1.237  -0.765   2.082  0.00  0.00    +0.117 C 
BRANCH  17  18
ATOM     18  C   UNL     1      -1.661  -2.215   1.837  0.00  0.00    +0.114 C 
BRANCH  18  19
ATOM     19  C   UNL     1      -2.956  -2.487   2.559  0.00  0.00    +0.212 C 
ATOM     20  O   UNL     1      -3.487  -1.609   3.205  0.00  0.00    -0.276 OA
ATOM     21  N   UNL     1      -3.524  -3.707   2.486  0.00  0.00    -0.329 N 
ATOM     22  H   UNL     1      -4.469  -3.906   3.013  0.00  0.00    +0.145 HD
ATOM     23  H   UNL     1      -3.042  -4.504   1.901  0.00  0.00    +0.145 HD
ENDBRANCH  18  19
ENDBRANCH  17  18
ENDBRANCH   3  17
BRANCH   3  24
ATOM     24  C   UNL     1       0.002  -0.004   0.002  0.00  0.00    +0.142 C 
BRANCH  24  25
ATOM     25  C   UNL     1      -0.018   1.503   0.010  0.00  0.00    -0.030 A 
ATOM     26  C   UNL     1      -1.225   2.178   0.020  0.00  0.00    +0.005 A 
ATOM     27  C   UNL     1      -1.244   3.560   0.032  0.00  0.00    +0.000 A 
ATOM     28  C   UNL     1      -0.056   4.267   0.025  0.00  0.00    +0.000 A 
ATOM     29  C   UNL     1       1.151   3.592   0.010  0.00  0.00    +0.000 A 
ATOM     30  C   UNL     1       1.169   2.210   0.003  0.00  0.00    +0.005 A 
ENDBRANCH  24  25
ENDBRANCH   3  24
TORSDOF 9
