REMARK  Name = ZINC39664122
REMARK  9 active torsions:
REMARK  status: ('A' for Active; 'I' for Inactive)
REMARK    1  A    between atoms: C_1  and  N_2
REMARK    2  A    between atoms: C_6  and  C_7
REMARK    3  A    between atoms: C_11  and  C_20
REMARK    4  A    between atoms: N_22  and  C_23
REMARK    5  A    between atoms: C_23  and  C_24
REMARK    6  A    between atoms: C_24  and  C_26
REMARK    7  A    between atoms: C_24  and  N_34
REMARK    8  A    between atoms: C_29  and  O_32
REMARK    9  A    between atoms: O_32  and  C_33
REMARK                            x       y       z     vdW  Elec       q    Type
REMARK                         _______ _______ _______ _____ _____    ______ ____
ROOT
ATOM      1  C   UNL     1      -0.366  -0.468   1.690  0.00  0.00    +0.263 C 
ATOM      2  O   UNL     1      -0.204  -1.253   2.606  0.00  0.00    -0.268 OA
ATOM      3  N   UNL     1      -0.486   0.850   1.946  0.00  0.00    -0.295 N 
ATOM      4  C   UNL     1      -0.829   1.932   0.993  0.00  0.00    +0.121 C 
ATOM      5  C   UNL     1      -1.761   2.872   1.789  0.00  0.00    +0.100 C 
ATOM      6  C   UNL     1      -1.412   2.615   3.264  0.00  0.00    -0.004 C 
ATOM      7  C   UNL     1      -0.312   1.544   3.244  0.00  0.00    +0.115 C 
ATOM      8  C   UNL     1      -2.635   2.092   4.013  0.00  0.00    -0.010 C 
ATOM      9  C   UNL     1      -2.278   1.898   5.490  0.00  0.00    -0.082 C 
ATOM     10  N   UNL     1      -1.838   3.176   6.061  0.00  0.00    +0.379 N 
ATOM     11  C   UNL     1      -0.609   3.626   5.397  0.00  0.00    -0.082 C 
ATOM     12  C   UNL     1      -0.894   3.893   3.917  0.00  0.00    -0.010 C 
ATOM     13  H   UNL     1      -2.561   3.868   5.931  0.00  0.00    -0.086 HD
ATOM     14  H   UNL     1      -1.662   3.059   7.048  0.00  0.00    -0.086 HD
ENDROOT
BRANCH   1  20
ATOM     15  C   UNL     1      -0.454  -3.435   0.805  0.00  0.00    +0.149 C 
ATOM     16  N   UNL     1      -0.470  -2.274  -0.088  0.00  0.00    -0.346 N 
ATOM     17  C   UNL     1      -0.531  -2.317  -1.441  0.00  0.00    +0.086 A 
ATOM     18  C   UNL     1      -0.527  -1.051  -1.921  0.00  0.00    +0.020 A 
ATOM     19  C   UNL     1      -0.460  -0.179  -0.830  0.00  0.00    +0.032 A 
ATOM     20  C   UNL     1      -0.431  -0.956   0.309  0.00  0.00    +0.104 A 
ENDBRANCH   1  20
BRANCH   5  21
ATOM     21  C   UNL     1      -3.204   2.530   1.521  0.00  0.00    +0.218 C 
ATOM     22  O   UNL     1      -3.593   1.390   1.663  0.00  0.00    -0.275 OA
ATOM     23  N   UNL     1      -4.063   3.490   1.125  0.00  0.00    -0.316 N 
ATOM     24  H   UNL     1      -3.737   4.385   0.937  0.00  0.00    +0.149 HD
BRANCH  23  25
ATOM     25  C   UNL     1      -5.488   3.184   0.977  0.00  0.00    +0.093 C 
BRANCH  25  26
ATOM     26  C   UNL     1      -6.192   3.373   2.322  0.00  0.00    -0.020 C 
BRANCH  26  27
ATOM     27  C   UNL     1      -7.633   2.950   2.199  0.00  0.00    -0.059 A 
ATOM     28  C   UNL     1      -8.557   3.806   1.627  0.00  0.00    +0.005 A 
ATOM     29  C   UNL     1      -9.879   3.421   1.513  0.00  0.00    +0.046 A 
ATOM     30  C   UNL     1     -10.279   2.174   1.972  0.00  0.00    +0.120 A 
ATOM     31  C   UNL     1      -9.350   1.317   2.544  0.00  0.00    +0.046 A 
ATOM     32  C   UNL     1      -8.028   1.705   2.651  0.00  0.00    +0.005 A 
BRANCH  30  33
ATOM     33  O   UNL     1     -11.579   1.793   1.861  0.00  0.00    -0.495 OA
ATOM     34  C   UNL     1     -11.919   0.496   2.355  0.00  0.00    +0.277 C 
ENDBRANCH  30  33
ENDBRANCH  26  27
BRANCH  26  35
ATOM     35  N   UNL     1      -6.128   4.787   2.714  0.00  0.00    +0.385 N 
ATOM     36  C   UNL     1      -6.854   4.998   3.993  0.00  0.00    -0.078 C 
ATOM     37  C   UNL     1      -6.241   6.313   4.536  0.00  0.00    -0.020 C 
ATOM     38  C   UNL     1      -4.752   6.189   4.140  0.00  0.00    -0.020 C 
ATOM     39  C   UNL     1      -4.727   5.182   2.976  0.00  0.00    -0.078 C 
ATOM     40  H   UNL     1      -6.523   5.367   1.989  0.00  0.00    -0.081 HD
ENDBRANCH  26  35
ENDBRANCH  25  26
ENDBRANCH  23  25
ENDBRANCH   5  21
TORSDOF 7
