REMARK  Name = ZINC05164201
REMARK  7 active torsions:
REMARK  status: ('A' for Active; 'I' for Inactive)
REMARK    1  A    between atoms: C_1  and  C_2
REMARK    2  A    between atoms: C_2  and  C_3
REMARK    3  A    between atoms: C_2  and  C_4
REMARK    4  A    between atoms: C_7  and  C_10
REMARK    5  A    between atoms: C_11  and  C_12
REMARK    6  A    between atoms: C_17  and  O_33
REMARK    7  A    between atoms: C_24  and  C_26
REMARK                            x       y       z     vdW  Elec       q    Type
REMARK                         _______ _______ _______ _____ _____    ______ ____
ROOT
ATOM      1  C   UNL     1      -5.030   3.960   0.531  0.00  0.00    +0.240 C 
ATOM      2  O   UNL     1      -5.084   5.173   0.616  0.00  0.00    -0.271 OA
ATOM      3  N   UNL     1      -6.142   3.254   0.241  0.00  0.00    -0.290 N 
ATOM      4  C   UNL     1      -6.128   1.786   0.281  0.00  0.00    +0.111 C 
ATOM      5  C   UNL     1      -6.640   1.252  -1.061  0.00  0.00    +0.054 C 
ATOM      6  C   UNL     1      -8.015   1.857  -1.356  0.00  0.00    +0.072 C 
ATOM      7  C   UNL     1      -8.533   1.307  -2.688  0.00  0.00    +0.035 C 
ATOM      8  C   UNL     1      -7.546   1.665  -3.801  0.00  0.00    +0.003 C 
ATOM      9  C   UNL     1      -7.412   3.186  -3.897  0.00  0.00    +0.001 C 
ATOM     10  C   UNL     1      -6.904   3.740  -2.564  0.00  0.00    +0.008 C 
ATOM     11  C   UNL     1      -7.893   3.380  -1.454  0.00  0.00    +0.046 C 
ATOM     12  C   UNL     1      -7.392   3.938  -0.113  0.00  0.00    +0.112 C 
ENDROOT
BRANCH  12  13
ATOM     13  C   UNL     1      -7.139   5.418  -0.244  0.00  0.00    -0.026 A 
ATOM     14  C   UNL     1      -6.168   5.879  -1.114  0.00  0.00    +0.008 A 
ATOM     15  C   UNL     1      -5.938   7.236  -1.238  0.00  0.00    +0.038 A 
ATOM     16  C   UNL     1      -6.673   8.134  -0.482  0.00  0.00    +0.123 A 
ATOM     17  C   UNL     1      -7.641   7.671   0.393  0.00  0.00    +0.038 A 
ATOM     18  C   UNL     1      -7.873   6.314   0.511  0.00  0.00    +0.008 A 
ATOM     19  F   UNL     1      -6.446   9.460  -0.599  0.00  0.00    -0.205 F 
ENDBRANCH  12  13
BRANCH   1  21
ATOM     20  C   UNL     1      -2.626   3.977   0.925  0.00  0.00    +0.013 C 
ATOM     21  C   UNL     1      -3.758   3.267   0.742  0.00  0.00    +0.068 C 
BRANCH  20  25
ATOM     22  C   UNL     1       1.061   1.970   1.538  0.00  0.00    -0.045 A 
ATOM     23  C   UNL     1      -0.099   1.238   1.351  0.00  0.00    +0.004 A 
ATOM     24  C   UNL     1      -1.300   1.883   1.145  0.00  0.00    +0.008 A 
ATOM     25  C   UNL     1      -1.347   3.280   1.138  0.00  0.00    -0.025 A 
ATOM     26  C   UNL     1      -0.171   4.013   1.328  0.00  0.00    +0.008 A 
ATOM     27  C   UNL     1       1.024   3.353   1.527  0.00  0.00    +0.004 A 
BRANCH  22  29
ATOM     28  C   UNL     1       3.353   1.647   0.649  0.00  0.00    +0.012 C 
ATOM     29  C   UNL     1       2.370   1.257   1.755  0.00  0.00    +0.013 C 
ATOM     30  C   UNL     1       2.949   1.655   3.115  0.00  0.00    +0.012 C 
ENDBRANCH  22  29
ENDBRANCH  20  25
ENDBRANCH   1  21
BRANCH   6  31
ATOM     31  O   UNL     1      -8.923   1.517  -0.306  0.00  0.00    -0.388 OA
ATOM     32  H   UNL     1      -9.050   0.566  -0.189  0.00  0.00    +0.210 HD
ENDBRANCH   6  31
TORSDOF 5
