REMARK  Name = ZINC19716969
REMARK  8 active torsions:
REMARK  status: ('A' for Active; 'I' for Inactive)
REMARK    1  A    between atoms: C_1  and  C_2
REMARK    2  A    between atoms: C_2  and  N_3
REMARK    3  A    between atoms: C_12  and  C_14
REMARK    4  A    between atoms: C_14  and  C_16
REMARK    5  A    between atoms: C_14  and  C_17
REMARK    6  A    between atoms: N_19  and  C_20
REMARK    7  A    between atoms: C_20  and  C_26
REMARK    8  A    between atoms: C_26  and  N_27
REMARK                            x       y       z     vdW  Elec       q    Type
REMARK                         _______ _______ _______ _____ _____    ______ ____
ROOT
ATOM      1  C   UNL     1       2.373   6.703   4.919  0.00  0.00    +0.222 C 
ATOM      2  O   UNL     1       3.500   7.146   4.843  0.00  0.00    -0.275 OA
ATOM      3  N   UNL     1       1.652   6.502   3.799  0.00  0.00    -0.311 N 
ATOM      4  H   UNL     1       0.661   6.027   3.861  0.00  0.00    +0.149 HD
ENDROOT
BRANCH   3   5
ATOM      5  C   UNL     1       2.186   6.915   2.499  0.00  0.00    +0.020 C 
ATOM      6  C   UNL     1       1.148   6.638   1.409  0.00  0.00    +0.024 C 
ATOM      7  C   UNL     1       0.830   5.142   1.377  0.00  0.00    +0.002 C 
ATOM      8  C   UNL     1       2.107   4.354   1.077  0.00  0.00    +0.000 C 
ATOM      9  C   UNL     1       3.144   4.632   2.167  0.00  0.00    +0.002 C 
ATOM     10  C   UNL     1       3.463   6.128   2.199  0.00  0.00    +0.024 C 
BRANCH   5  11
ATOM     11  C   UNL     1       2.505   8.411   2.531  0.00  0.00    -0.053 C 
BRANCH  11  12
ATOM     12  N   UNL     1       1.314   9.156   2.962  0.00  0.00    +0.381 N 
ATOM     13  C   UNL     1       0.577   9.683   1.806  0.00  0.00    -0.079 C 
ATOM     14  C   UNL     1      -0.728  10.325   2.282  0.00  0.00    -0.019 C 
ATOM     15  C   UNL     1      -0.407  11.455   3.264  0.00  0.00    -0.004 C 
ATOM     16  C   UNL     1       0.403  10.889   4.434  0.00  0.00    -0.019 C 
ATOM     17  C   UNL     1       1.675  10.230   3.896  0.00  0.00    -0.079 C 
ATOM     18  H   UNL     1       0.651   8.458   3.493  0.00  0.00    -0.082 HD
ENDBRANCH  11  12
ENDBRANCH   5  11
ENDBRANCH   3   5
BRANCH   1  19
ATOM     19  C   UNL     1       1.781   6.377   6.266  0.00  0.00    +0.123 C 
ATOM     20  C   UNL     1       0.519   7.215   6.484  0.00  0.00    +0.024 C 
BRANCH  19  30
ATOM     21  N   UNL     1       4.883   7.571   7.991  0.00  0.00    -0.229 N 
ATOM     22  C   UNL     1       4.705   7.299   9.301  0.00  0.00    +0.275 A 
ATOM     23  O   UNL     1       5.567   7.579  10.115  0.00  0.00    -0.266 OA
ATOM     24  C   UNL     1       3.451   6.666   9.727  0.00  0.00    +0.050 A 
ATOM     25  C   UNL     1       3.194   6.359  11.062  0.00  0.00    +0.014 A 
ATOM     26  C   UNL     1       2.001   5.759  11.401  0.00  0.00    +0.001 A 
ATOM     27  C   UNL     1       1.057   5.459  10.427  0.00  0.00    +0.001 A 
ATOM     28  C   UNL     1       1.288   5.750   9.112  0.00  0.00    +0.010 A 
ATOM     29  C   UNL     1       2.488   6.358   8.739  0.00  0.00    +0.011 A 
ATOM     30  C   UNL     1       2.785   6.690   7.345  0.00  0.00    +0.081 A 
ATOM     31  N   UNL     1       3.914   7.256   7.038  0.00  0.00    -0.172 NA
BRANCH  21  33
ATOM     32  C   UNL     1       7.163   7.132   7.225  0.00  0.00    +0.029 C 
ATOM     33  C   UNL     1       6.128   8.209   7.558  0.00  0.00    +0.144 C 
ENDBRANCH  21  33
ENDBRANCH  19  30
ENDBRANCH   1  19
TORSDOF 6
