REMARK  Name = ZINC39126635
REMARK  12 active torsions:
REMARK  status: ('A' for Active; 'I' for Inactive)
REMARK    1  A    between atoms: C_1  and  C_2
REMARK    2  A    between atoms: C_2  and  O_3
REMARK    3  A    between atoms: O_3  and  C_4
REMARK    4  A    between atoms: C_4  and  C_6
REMARK    5  A    between atoms: C_9  and  C_26
REMARK    6  A    between atoms: C_11  and  N_13
REMARK    7  A    between atoms: N_13  and  C_14
REMARK    8  A    between atoms: C_14  and  C_15
REMARK    9  A    between atoms: C_14  and  C_16
REMARK   10  A    between atoms: C_17  and  C_19
REMARK   11  A    between atoms: C_22  and  C_25
REMARK   12  A    between atoms: C_29  and  C_32
REMARK                            x       y       z     vdW  Elec       q    Type
REMARK                         _______ _______ _______ _____ _____    ______ ____
ROOT
ATOM      1  C   UNL     1       0.979  -8.880  -2.924  0.00  0.00    +0.183 C 
ATOM      2  C   UNL     1      -0.049  -9.076  -1.823  0.00  0.00    +0.039 C 
ATOM      3  C   UNL     1      -1.079  -8.279  -2.099  0.00  0.00    +0.127 C 
ATOM      4  O   UNL     1      -0.912  -7.568  -3.241  0.00  0.00    -0.469 OA
ATOM      5  C   UNL     1       0.487  -7.572  -3.588  0.00  0.00    +0.283 C 
ENDROOT
BRANCH   3   6
ATOM      6  C   UNL     1      -2.283  -8.179  -1.247  0.00  0.00    +0.017 A 
ATOM      7  C   UNL     1      -2.378  -8.941  -0.080  0.00  0.00    +0.012 A 
ATOM      8  C   UNL     1      -3.498  -8.848   0.714  0.00  0.00    +0.011 A 
ATOM      9  C   UNL     1      -4.540  -7.991   0.352  0.00  0.00    -0.000 A 
ATOM     10  C   UNL     1      -4.446  -7.229  -0.814  0.00  0.00    +0.011 A 
ATOM     11  C   UNL     1      -3.323  -7.319  -1.605  0.00  0.00    +0.012 A 
BRANCH   9  12
ATOM     12  C   UNL     1      -5.745  -7.891   1.205  0.00  0.00    +0.068 A 
ATOM     13  C   UNL     1      -6.837  -7.104   0.973  0.00  0.00    +0.072 A 
ATOM     14  C   UNL     1      -7.743  -7.310   2.020  0.00  0.00    +0.138 A 
ATOM     15  N   UNL     1      -7.226  -8.184   2.852  0.00  0.00    -0.159 NA
ATOM     16  N   UNL     1      -5.972  -8.573   2.364  0.00  0.00    -0.275 N 
ATOM     17  H   UNL     1      -5.371  -9.212   2.777  0.00  0.00    +0.189 HD
ATOM     18  N   UNL     1      -8.991  -6.689   2.157  0.00  0.00    -0.342 N 
ATOM     19  H   UNL     1      -9.291  -6.053   1.490  0.00  0.00    +0.144 HD
ATOM     20  H   UNL     1      -9.554  -6.895   2.920  0.00  0.00    +0.144 HD
ENDBRANCH   9  12
ENDBRANCH   3   6
BRANCH   5  21
ATOM     21  N   UNL     1       1.170  -6.407  -3.020  0.00  0.00    -0.262 N 
ATOM     22  C   UNL     1       1.007  -5.191  -3.578  0.00  0.00    +0.222 C 
ATOM     23  O   UNL     1       1.836  -4.325  -3.396  0.00  0.00    -0.275 OA
BRANCH  22  24
ATOM     24  C   UNL     1      -0.205  -4.908  -4.427  0.00  0.00    +0.075 C 
ATOM     25  C   UNL     1      -0.231  -3.425  -4.801  0.00  0.00    +0.013 C 
ATOM     26  C   UNL     1       1.035  -3.076  -5.587  0.00  0.00    +0.004 C 
ATOM     27  C   UNL     1       1.095  -3.923  -6.860  0.00  0.00    -0.014 C 
ATOM     28  C   UNL     1       1.121  -5.406  -6.485  0.00  0.00    +0.004 C 
ATOM     29  C   UNL     1      -0.145  -5.755  -5.700  0.00  0.00    +0.013 C 
ATOM     30  C   UNL     1       2.361  -3.573  -7.646  0.00  0.00    +0.007 C 
ENDBRANCH  22  24
BRANCH  21  31
ATOM     31  C   UNL     1       2.031  -6.564  -1.845  0.00  0.00    +0.073 C 
ATOM     32  C   UNL     1       3.146  -5.517  -1.885  0.00  0.00    +0.028 C 
ATOM     33  C   UNL     1       1.199  -6.375  -0.574  0.00  0.00    +0.028 C 
ENDBRANCH  21  31
ENDBRANCH   5  21
BRANCH   1  34
ATOM     34  C   UNL     1       0.947 -10.027  -3.902  0.00  0.00    +0.319 C 
ATOM     35  O   UNL     1       0.622  -9.833  -5.049  0.00  0.00    -0.250 OA
BRANCH  34  36
ATOM     36  O   UNL     1       1.278 -11.263  -3.498  0.00  0.00    -0.464 OA
BRANCH  36  38
ATOM     37  C   UNL     1       1.634 -13.629  -3.836  0.00  0.00    +0.048 C 
ATOM     38  C   UNL     1       1.225 -12.302  -4.478  0.00  0.00    +0.229 C 
ENDBRANCH  36  38
ENDBRANCH  34  36
ENDBRANCH   1  34
TORSDOF 8
