REMARK  Name = ZINC37122024
REMARK  5 active torsions:
REMARK  status: ('A' for Active; 'I' for Inactive)
REMARK    1  A    between atoms: C_1  and  C_2
REMARK    2  A    between atoms: C_2  and  C_4
REMARK    3  A    between atoms: C_2  and  N_11
REMARK    4  A    between atoms: N_11  and  C_12
REMARK    5  A    between atoms: C_17  and  N_18
REMARK                            x       y       z     vdW  Elec       q    Type
REMARK                         _______ _______ _______ _____ _____    ______ ____
ROOT
ATOM      1  N   UNL     1       0.711  -0.489   1.189  0.00  0.00    -0.334 N 
ATOM      2  H   UNL     1       0.213  -0.731   1.986  0.00  0.00    +0.147 HD
ENDROOT
BRANCH   1   3
ATOM      3  C   UNL     1       2.104  -0.604   1.173  0.00  0.00    +0.072 A 
ATOM      4  C   UNL     1       2.828  -0.255   0.039  0.00  0.00    +0.028 A 
ATOM      5  C   UNL     1       4.208  -0.386   0.071  0.00  0.00    +0.022 A 
ATOM      6  C   UNL     1       4.818  -0.855   1.218  0.00  0.00    +0.113 A 
ATOM      7  N   UNL     1       4.107  -1.179   2.281  0.00  0.00    -0.235 NA
ATOM      8  C   UNL     1       2.790  -1.065   2.298  0.00  0.00    +0.175 A 
BRANCH   8   9
ATOM      9  N   UNL     1       2.077  -1.415   3.450  0.00  0.00    -0.220 N 
ATOM     10  C   UNL     1       2.487  -2.282   4.411  0.00  0.00    +0.116 A 
ATOM     11  C   UNL     1       1.514  -2.342   5.350  0.00  0.00    +0.041 A 
ATOM     12  C   UNL     1       0.479  -1.488   4.954  0.00  0.00    +0.135 A 
ATOM     13  N   UNL     1       0.817  -0.928   3.821  0.00  0.00    -0.173 NA
ENDBRANCH   8   9
ENDBRANCH   1   3
BRANCH   1  15
ATOM     14  C   UNL     1      -0.019   1.526   0.010  0.00  0.00    +0.033 C 
ATOM     15  C   UNL     1       0.002  -0.004   0.002  0.00  0.00    +0.098 C 
BRANCH  15  16
ATOM     16  C   UNL     1      -1.412  -0.526   0.013  0.00  0.00    -0.028 A 
ATOM     17  C   UNL     1      -2.123  -0.571   1.198  0.00  0.00    +0.006 A 
ATOM     18  C   UNL     1      -3.420  -1.049   1.208  0.00  0.00    +0.015 A 
ATOM     19  C   UNL     1      -4.006  -1.482   0.032  0.00  0.00    +0.018 A 
ATOM     20  C   UNL     1      -3.294  -1.437  -1.153  0.00  0.00    +0.015 A 
ATOM     21  C   UNL     1      -1.999  -0.954  -1.163  0.00  0.00    +0.006 A 
ATOM     22 BR   UNL     1      -5.780  -2.136   0.046  0.00  0.00    -0.050 Br
ENDBRANCH  15  16
ENDBRANCH   1  15
TORSDOF 4
