REMARK  Name = ZINC14748529
REMARK  9 active torsions:
REMARK  status: ('A' for Active; 'I' for Inactive)
REMARK    1  A    between atoms: C_1  and  C_2
REMARK    2  A    between atoms: C_3  and  C_8
REMARK    3  A    between atoms: C_8  and  N_9
REMARK    4  A    between atoms: N_17  and  C_25
REMARK    5  A    between atoms: N_20  and  C_21
REMARK    6  A    between atoms: C_21  and  C_22
REMARK    7  A    between atoms: C_22  and  C_23
REMARK    8  A    between atoms: C_22  and  C_24
REMARK    9  A    between atoms: C_25  and  C_26
REMARK                            x       y       z     vdW  Elec       q    Type
REMARK                         _______ _______ _______ _____ _____    ______ ____
ROOT
ATOM      1  N   UNL     1      -3.166   3.873   0.799  0.00  0.00    +0.384 N 
ATOM      2  C   UNL     1      -3.880   4.869  -0.009  0.00  0.00    -0.076 C 
ATOM      3  C   UNL     1      -4.227   6.081   0.860  0.00  0.00    +0.017 C 
ATOM      4  C   UNL     1      -5.095   5.629   2.030  0.00  0.00    +0.112 C 
ATOM      5  C   UNL     1      -4.395   4.525   2.816  0.00  0.00    +0.017 C 
ATOM      6  C   UNL     1      -4.041   3.376   1.868  0.00  0.00    -0.076 C 
ATOM      7  C   UNL     1      -5.416   6.798   2.932  0.00  0.00    +0.247 C 
ATOM      8  O   UNL     1      -4.632   7.488   3.548  0.00  0.00    -0.273 OA
ATOM      9  N   UNL     1      -6.760   6.912   2.908  0.00  0.00    -0.218 N 
ATOM     10  C   UNL     1      -7.319   5.984   2.121  0.00  0.00    +0.312 C 
ATOM     11  O   UNL     1      -8.517   5.885   1.939  0.00  0.00    -0.252 OA
ATOM     12  N   UNL     1      -6.406   5.173   1.554  0.00  0.00    -0.271 N 
ATOM     13  H   UNL     1      -2.347   4.298   1.207  0.00  0.00    -0.081 HD
ENDROOT
BRANCH   1  14
ATOM     14  C   UNL     1      -2.757   2.751  -0.058  0.00  0.00    -0.021 C 
BRANCH  14  17
ATOM     15  C   UNL     1       0.354   2.823   0.280  0.00  0.00    +0.065 C 
ATOM     16  C   UNL     1      -0.424   3.266  -0.931  0.00  0.00    +0.034 A 
ATOM     17  C   UNL     1      -1.763   3.237  -1.080  0.00  0.00    +0.045 A 
ATOM     18  N   UNL     1      -2.055   3.717  -2.298  0.00  0.00    -0.243 NA
ATOM     19  H   UNL     1       1.030   3.929  -2.286  0.00  0.00    +0.166 HD
ATOM     20  C   UNL     1      -0.949   4.042  -2.910  0.00  0.00    +0.196 A 
ATOM     21  N   UNL     1       0.092   3.781  -2.090  0.00  0.00    -0.348 N 
ENDBRANCH  14  17
ENDBRANCH   1  14
BRANCH  12  22
ATOM     22  C   UNL     1      -6.669   4.056   0.644  0.00  0.00    +0.113 C 
BRANCH  22  23
ATOM     23  C   UNL     1      -7.534   3.012   1.353  0.00  0.00    +0.000 C 
ATOM     24  C   UNL     1      -7.863   1.876   0.382  0.00  0.00    +0.009 C 
ATOM     25  C   UNL     1      -6.774   2.451   2.556  0.00  0.00    +0.009 C 
ENDBRANCH  22  23
ENDBRANCH  12  22
BRANCH   9  26
ATOM     26  C   UNL     1      -7.514   7.926   3.650  0.00  0.00    +0.173 C 
BRANCH  26  27
ATOM     27  C   UNL     1      -7.677   9.156   2.795  0.00  0.00    +0.059 A 
ATOM     28  C   UNL     1      -8.830   9.323   2.051  0.00  0.00    +0.025 A 
ATOM     29  C   UNL     1      -8.970  10.459   1.268  0.00  0.00    +0.003 A 
ATOM     30  C   UNL     1      -7.941  11.388   1.263  0.00  0.00    +0.020 A 
ATOM     31  C   UNL     1      -6.818  11.153   2.033  0.00  0.00    +0.111 A 
ATOM     32  N   UNL     1      -6.721  10.064   2.770  0.00  0.00    -0.258 NA
ENDBRANCH  26  27
ENDBRANCH   9  26
TORSDOF 6
