REMARK  Name = ZINC65468136
REMARK  3 active torsions:
REMARK  status: ('A' for Active; 'I' for Inactive)
REMARK    1  A    between atoms: C_3  and  C_8
REMARK    2  A    between atoms: C_8  and  N_9
REMARK    3  A    between atoms: C_15  and  C_21
REMARK                            x       y       z     vdW  Elec       q    Type
REMARK                         _______ _______ _______ _____ _____    ______ ____
ROOT
ATOM      1  N   UNL     1       4.398   2.195   1.401  0.00  0.00    -0.201 NA
ATOM      2  C   UNL     1       5.622   3.001   1.456  0.00  0.00    +0.190 C 
ATOM      3  C   UNL     1       5.242   4.176   2.342  0.00  0.00    -0.011 C 
ATOM      4  C   UNL     1       3.959   4.103   2.552  0.00  0.00    +0.087 C 
ATOM      5  N   UNL     1       3.419   2.965   1.973  0.00  0.00    -0.283 N 
ATOM      6  C   UNL     1       6.287   5.112   2.897  0.00  0.00    +0.058 C 
ATOM      7  C   UNL     1       7.270   4.236   3.687  0.00  0.00    +0.108 C 
ATOM      8  C   UNL     1       7.505   2.921   3.018  0.00  0.00    +0.215 C 
ATOM      9  O   UNL     1       8.511   2.326   3.343  0.00  0.00    -0.276 OA
ATOM     10  N   UNL     1       6.744   2.316   2.085  0.00  0.00    -0.295 N 
ATOM     11  H   UNL     1       2.474   2.743   1.973  0.00  0.00    +0.166 HD
ATOM     12  H   UNL     1       6.934   1.399   1.829  0.00  0.00    +0.151 HD
ENDROOT
BRANCH   6  13
ATOM     13  C   UNL     1       7.003   5.815   1.773  0.00  0.00    -0.034 C 
ATOM     14  C   UNL     1       8.266   5.469   1.379  0.00  0.00    +0.004 C 
ATOM     15  C   UNL     1       8.889   6.145   0.245  0.00  0.00    -0.002 C 
ATOM     16  C   UNL     1       8.432   7.300  -0.253  0.00  0.00    +0.004 C 
ATOM     17  C   UNL     1       7.262   7.964   0.407  0.00  0.00    +0.158 C 
ATOM     18  C   UNL     1       6.420   6.870   1.050  0.00  0.00    -0.014 C 
ATOM     19  C   UNL     1       5.150   7.164   0.724  0.00  0.00    +0.025 C 
ATOM     20  C   UNL     1       5.143   8.175  -0.264  0.00  0.00    +0.106 C 
ATOM     21  N   UNL     1       6.344   8.645  -0.495  0.00  0.00    -0.279 NA
ENDBRANCH   6  13
BRANCH   1  22
ATOM     22  C   UNL     1       4.055   1.852   0.015  0.00  0.00    +0.143 C 
BRANCH  22  25
ATOM     23  C   UNL     1       0.443   0.757  -0.086  0.00  0.00    +0.003 A 
ATOM     24  C   UNL     1       1.571   1.556  -0.074  0.00  0.00    +0.005 A 
ATOM     25  C   UNL     1       2.826   0.980   0.002  0.00  0.00    -0.029 A 
ATOM     26  C   UNL     1       2.953  -0.395   0.066  0.00  0.00    +0.043 A 
ATOM     27  C   UNL     1       1.824  -1.195   0.055  0.00  0.00    +0.124 A 
ATOM     28  C   UNL     1       0.568  -0.618  -0.021  0.00  0.00    +0.038 A 
ATOM     29  F   UNL     1       1.947  -2.539   0.117  0.00  0.00    -0.205 F 
ENDBRANCH  22  25
ENDBRANCH   1  22
TORSDOF 3
