REMARK  Name = ZINC06197972
REMARK  10 active torsions:
REMARK  status: ('A' for Active; 'I' for Inactive)
REMARK    1  A    between atoms: C_1  and  C_2
REMARK    2  A    between atoms: C_2  and  C_3
REMARK    3  A    between atoms: C_10  and  C_15
REMARK    4  A    between atoms: C_15  and  C_17
REMARK    5  A    between atoms: C_15  and  N_74
REMARK    6  A    between atoms: N_21  and  C_22
REMARK    7  A    between atoms: C_28  and  C_29
REMARK    8  A    between atoms: C_28  and  N_74
REMARK    9  A    between atoms: C_34  and  C_35
REMARK   10  A    between atoms: C_34  and  N_74
REMARK                            x       y       z     vdW  Elec       q    Type
REMARK                         _______ _______ _______ _____ _____    ______ ____
ROOT
ATOM      1  C   UNL     1      -1.628   3.070  -0.921  0.00  0.00    +0.039 C 
ENDROOT
BRANCH   1   9
ATOM      2  C   UNL     1      -3.017   7.494   3.176  0.00  0.00    -0.047 A 
ATOM      3  C   UNL     1      -2.810   6.724   4.313  0.00  0.00    +0.005 A 
ATOM      4  C   UNL     1      -2.416   5.407   4.208  0.00  0.00    +0.026 A 
ATOM      5  C   UNL     1      -2.225   4.842   2.952  0.00  0.00    +0.049 A 
ATOM      6  C   UNL     1      -2.436   5.625   1.802  0.00  0.00    -0.001 A 
ATOM      7  C   UNL     1      -2.836   6.960   1.932  0.00  0.00    +0.013 A 
ATOM      8  C   UNL     1      -2.228   5.022   0.484  0.00  0.00    +0.017 A 
ATOM      9  C   UNL     1      -1.846   3.723   0.419  0.00  0.00    +0.011 A 
ATOM     10  C   UNL     1      -1.647   2.980   1.603  0.00  0.00    +0.251 A 
ATOM     11  O   UNL     1      -1.300   1.815   1.523  0.00  0.00    -0.268 OA
ATOM     12  N   UNL     1      -1.832   3.527   2.818  0.00  0.00    -0.322 N 
ATOM     13  H   UNL     1      -1.683   2.972   3.636  0.00  0.00    +0.169 HD
BRANCH   2  15
ATOM     14  C   UNL     1      -4.975   9.007   3.337  0.00  0.00    +0.009 C 
ATOM     15  C   UNL     1      -3.447   8.931   3.316  0.00  0.00    +0.032 C 
ENDBRANCH   2  15
ENDBRANCH   1   9
BRANCH   1  16
ATOM     16  C   UNL     1      -0.175   2.696  -1.067  0.00  0.00    +0.143 A 
ATOM     17  N   UNL     1       0.560   2.057  -0.190  0.00  0.00    -0.115 NA
ATOM     18  N   UNL     1       1.742   1.923  -0.684  0.00  0.00    -0.023 NA
ATOM     19  N   UNL     1       1.780   2.459  -1.854  0.00  0.00    -0.044 NA
ATOM     20  N   UNL     1       0.617   2.946  -2.126  0.00  0.00    -0.227 N 
BRANCH  20  21
ATOM     21  C   UNL     1       0.231   3.641  -3.357  0.00  0.00    +0.111 C 
ATOM     22  C   UNL     1       0.428   2.708  -4.553  0.00  0.00    +0.027 C 
ATOM     23  C   UNL     1       0.024   3.434  -5.838  0.00  0.00    +0.002 C 
ATOM     24  C   UNL     1       0.894   4.680  -6.014  0.00  0.00    +0.000 C 
ATOM     25  C   UNL     1       0.697   5.613  -4.818  0.00  0.00    +0.002 C 
ATOM     26  C   UNL     1       1.101   4.887  -3.533  0.00  0.00    +0.027 C 
ENDBRANCH  20  21
ENDBRANCH   1  16
BRANCH   1  27
ATOM     27  N   UNL     1      -2.453   1.846  -0.995  0.00  0.00    +0.396 N 
ATOM     28  H   UNL     1      -2.312   1.297  -0.139  0.00  0.00    -0.080 HD
BRANCH  27  29
ATOM     29  C   UNL     1      -2.048   1.032  -2.160  0.00  0.00    -0.002 C 
BRANCH  29  30
ATOM     30  C   UNL     1      -1.104  -0.043  -1.686  0.00  0.00    +0.089 A 
ATOM     31  C   UNL     1      -1.462  -1.245  -1.198  0.00  0.00    +0.042 A 
ATOM     32  C   UNL     1      -0.268  -1.931  -0.882  0.00  0.00    +0.041 A 
ATOM     33  C   UNL     1       0.749  -1.105  -1.187  0.00  0.00    +0.195 A 
ATOM     34  O   UNL     1       0.236   0.037  -1.674  0.00  0.00    -0.470 OA
ENDBRANCH  29  30
ENDBRANCH  27  29
BRANCH  27  35
ATOM     35  C   UNL     1      -3.883   2.207  -1.104  0.00  0.00    -0.045 C 
BRANCH  35  36
ATOM     36  C   UNL     1      -4.553   1.939   0.245  0.00  0.00    +0.102 C 
ATOM     37  C   UNL     1      -6.082   2.130   0.133  0.00  0.00    +0.032 C 
ATOM     38  C   UNL     1      -6.481   2.773   1.480  0.00  0.00    +0.030 C 
ATOM     39  C   UNL     1      -5.145   2.894   2.247  0.00  0.00    +0.160 C 
ATOM     40  O   UNL     1      -4.130   2.917   1.220  0.00  0.00    -0.378 OA
ENDBRANCH  35  36
ENDBRANCH  27  35
ENDBRANCH   1  27
TORSDOF 9
