REMARK  Name = ZINC15320447
REMARK  5 active torsions:
REMARK  status: ('A' for Active; 'I' for Inactive)
REMARK    1  A    between atoms: C_1  and  C_2
REMARK    2  A    between atoms: C_2  and  C_3
REMARK    3  A    between atoms: N_11  and  C_14
REMARK    4  A    between atoms: N_28  and  C_31
REMARK    5  A    between atoms: C_31  and  C_32
REMARK                            x       y       z     vdW  Elec       q    Type
REMARK                         _______ _______ _______ _____ _____    ______ ____
ROOT
ATOM      1  C   UNL     1       0.080  -5.560  -0.024  0.00  0.00    +0.067 C 
ATOM      2  C   UNL     1       0.571  -4.201  -0.389  0.00  0.00    +0.107 C 
ATOM      3  C   UNL     1       1.975  -4.189   0.341  0.00  0.00    +0.123 C 
ATOM      4  C   UNL     1       2.389  -2.825  -0.041  0.00  0.00    +0.233 C 
ATOM      5  O   UNL     1       3.506  -2.442  -0.313  0.00  0.00    -0.274 OA
ATOM      6  N   UNL     1       1.237  -2.082  -0.020  0.00  0.00    -0.210 N 
ATOM      7  C   UNL     1       0.108  -2.862  -0.014  0.00  0.00    +0.232 C 
ATOM      8  O   UNL     1      -1.026  -2.518   0.245  0.00  0.00    -0.274 OA
ATOM      9  C   UNL     1       2.486  -5.502  -0.156  0.00  0.00    +0.136 C 
ATOM     10  N   UNL     1       1.314  -6.415   0.001  0.00  0.00    -0.295 NA
ATOM     11  C   UNL     1       3.666  -6.025   0.613  0.00  0.00    +0.004 A 
ATOM     12  C   UNL     1       3.890  -6.284   1.946  0.00  0.00    +0.008 A 
ATOM     13  C   UNL     1       5.116  -6.773   2.360  0.00  0.00    +0.000 A 
ATOM     14  C   UNL     1       6.115  -7.001   1.432  0.00  0.00    +0.002 A 
ATOM     15  C   UNL     1       5.895  -6.744   0.095  0.00  0.00    +0.024 A 
ATOM     16  C   UNL     1       4.663  -6.253  -0.331  0.00  0.00    +0.042 A 
ATOM     17  N   UNL     1       4.205  -5.921  -1.608  0.00  0.00    -0.265 N 
ATOM     18  C   UNL     1       2.934  -5.473  -1.591  0.00  0.00    +0.246 C 
ATOM     19  O   UNL     1       2.280  -5.114  -2.547  0.00  0.00    -0.273 OA
ATOM     20  H   UNL     1       1.368  -6.952   0.959  0.00  0.00    +0.123 HD
ENDROOT
BRANCH   6  21
ATOM     21  C   UNL     1       1.214  -0.680  -0.013  0.00  0.00    +0.044 A 
ATOM     22  C   UNL     1       0.002  -0.004   0.002  0.00  0.00    +0.024 A 
ATOM     23  C   UNL     1      -0.017   1.377   0.010  0.00  0.00    +0.002 A 
ATOM     24  C   UNL     1       1.171   2.086   0.002  0.00  0.00    +0.000 A 
ATOM     25  C   UNL     1       2.380   1.415  -0.013  0.00  0.00    +0.002 A 
ATOM     26  C   UNL     1       2.405   0.034  -0.021  0.00  0.00    +0.024 A 
ENDBRANCH   6  21
BRANCH   1  28
ATOM     27  C   UNL     1      -1.488  -7.411  -0.623  0.00  0.00    +0.005 C 
ATOM     28  C   UNL     1      -0.903  -6.073  -1.079  0.00  0.00    +0.016 C 
ENDBRANCH   1  28
BRANCH  17  29
ATOM     29  C   UNL     1       5.012  -6.045  -2.824  0.00  0.00    +0.148 C 
BRANCH  29  30
ATOM     30  C   UNL     1       5.760  -4.759  -3.064  0.00  0.00    -0.030 A 
ATOM     31  C   UNL     1       5.188  -3.760  -3.829  0.00  0.00    +0.008 A 
ATOM     32  C   UNL     1       5.871  -2.578  -4.046  0.00  0.00    +0.038 A 
ATOM     33  C   UNL     1       7.133  -2.399  -3.505  0.00  0.00    +0.123 A 
ATOM     34  C   UNL     1       7.707  -3.402  -2.743  0.00  0.00    +0.038 A 
ATOM     35  C   UNL     1       7.020  -4.581  -2.523  0.00  0.00    +0.008 A 
ATOM     36  F   UNL     1       7.803  -1.246  -3.720  0.00  0.00    -0.205 F 
ENDBRANCH  29  30
ENDBRANCH  17  29
TORSDOF 4
