REMARK  Name = ZINC65116984
REMARK  9 active torsions:
REMARK  status: ('A' for Active; 'I' for Inactive)
REMARK    1  A    between atoms: C_1  and  C_2
REMARK    2  A    between atoms: C_2  and  N_3
REMARK    3  A    between atoms: C_7  and  C_9
REMARK    4  A    between atoms: C_9  and  N_10
REMARK    5  A    between atoms: N_10  and  S_11
REMARK    6  A    between atoms: S_11  and  C_14
REMARK    7  A    between atoms: C_16  and  C_19
REMARK    8  A    between atoms: C_21  and  C_31
REMARK    9  A    between atoms: C_22  and  C_24
REMARK                            x       y       z     vdW  Elec       q    Type
REMARK                         _______ _______ _______ _____ _____    ______ ____
ROOT
ATOM      1  C   UNL     1      -2.585  -3.336  -4.549  0.00  0.00    +0.143 A 
ATOM      2  C   UNL     1      -3.702  -4.029  -4.242  0.00  0.00    +0.047 A 
ATOM      3  C   UNL     1      -3.746  -5.387  -4.725  0.00  0.00    +0.016 A 
ATOM      4  C   UNL     1      -2.668  -5.831  -5.434  0.00  0.00    +0.057 A 
ATOM      5  S   UNL     1      -1.630  -4.515  -5.479  0.00  0.00    -0.076 S 
ENDROOT
BRANCH   3   6
ATOM      6  C   UNL     1      -4.906  -6.259  -4.462  0.00  0.00    +0.110 A 
ATOM      7  N   UNL     1      -6.016  -5.969  -3.800  0.00  0.00    -0.243 NA
ATOM      8  C   UNL     1      -6.968  -6.851  -3.646  0.00  0.00    +0.058 A 
ATOM      9  C   UNL     1      -6.750  -8.100  -4.212  0.00  0.00    +0.097 A 
ATOM     10  S   UNL     1      -5.137  -7.856  -4.939  0.00  0.00    -0.062 S 
ATOM     11  C   UNL     1      -8.233  -6.529  -2.893  0.00  0.00    +0.067 C 
BRANCH   9  12
ATOM     12  C   UNL     1      -7.608  -9.287  -4.217  0.00  0.00    +0.255 C 
ATOM     13  O   UNL     1      -8.692  -9.257  -3.663  0.00  0.00    -0.269 OA
ATOM     14  N   UNL     1      -7.198 -10.412  -4.835  0.00  0.00    -0.297 N 
ATOM     15  C   UNL     1      -5.916 -10.588  -5.534  0.00  0.00    +0.108 C 
ATOM     16  C   UNL     1      -5.897 -12.022  -6.103  0.00  0.00    +0.020 C 
ATOM     17  C   UNL     1      -7.404 -12.386  -6.178  0.00  0.00    +0.020 C 
ATOM     18  C   UNL     1      -7.957 -11.673  -4.916  0.00  0.00    +0.108 C 
ENDBRANCH   9  12
ENDBRANCH   3   6
BRANCH   1  19
ATOM     19  S   UNL     1      -2.177  -1.672  -4.137  0.00  0.00    +0.065 S 
ATOM     20  O   UNL     1      -3.406  -0.997  -3.907  0.00  0.00    -0.153 OA
ATOM     21  O   UNL     1      -1.236  -1.232  -5.107  0.00  0.00    -0.153 OA
BRANCH  19  22
ATOM     22  N   UNL     1      -1.379  -1.708  -2.686  0.00  0.00    -0.191 NA
ATOM     23  H   UNL     1      -1.776  -1.294  -1.904  0.00  0.00    +0.148 HD
BRANCH  22  24
ATOM     24  C   UNL     1      -0.074  -2.367  -2.584  0.00  0.00    +0.090 C 
BRANCH  24  29
ATOM     25  N   UNL     1       0.690  -0.478  -1.207  0.00  0.00    +0.382 N 
ATOM     26  C   UNL     1       2.115  -0.088  -1.153  0.00  0.00    -0.078 C 
ATOM     27  C   UNL     1       2.844  -1.331  -0.584  0.00  0.00    -0.020 C 
ATOM     28  C   UNL     1       2.053  -2.489  -1.246  0.00  0.00    -0.016 C 
ATOM     29  C   UNL     1       0.608  -1.948  -1.280  0.00  0.00    -0.053 C 
ATOM     30  H   UNL     1       0.259  -0.072  -2.024  0.00  0.00    -0.081 HD
BRANCH  25  32
ATOM     31  C   UNL     1      -0.019   1.526   0.010  0.00  0.00    -0.017 C 
ATOM     32  C   UNL     1       0.002  -0.004   0.002  0.00  0.00    -0.082 C 
ENDBRANCH  25  32
ENDBRANCH  24  29
ENDBRANCH  22  24
ENDBRANCH  19  22
ENDBRANCH   1  19
TORSDOF 7
