REMARK  Name = ZINC23582732
REMARK  11 active torsions:
REMARK  status: ('A' for Active; 'I' for Inactive)
REMARK    1  A    between atoms: C_1  and  C_2
REMARK    2  A    between atoms: C_2  and  O_3
REMARK    3  A    between atoms: O_3  and  C_4
REMARK    4  A    between atoms: C_11  and  C_18
REMARK    5  A    between atoms: C_13  and  O_14
REMARK    6  A    between atoms: C_18  and  O_19
REMARK    7  A    between atoms: O_19  and  C_20
REMARK    8  A    between atoms: C_20  and  C_22
REMARK    9  A    between atoms: C_25  and  N_31
REMARK   10  A    between atoms: C_26  and  N_28
REMARK   11  A    between atoms: N_31  and  C_32
REMARK                            x       y       z     vdW  Elec       q    Type
REMARK                         _______ _______ _______ _____ _____    ______ ____
ROOT
ATOM      1  C   UNL     1      -1.736   3.643   0.457  0.00  0.00    +0.405 C 
ATOM      2  O   UNL     1      -2.739   4.042   1.014  0.00  0.00    -0.226 OA
ATOM      3  N   UNL     1      -1.728   2.429  -0.129  0.00  0.00    -0.251 N 
ATOM      4  C   UNL     1      -2.840   1.595  -0.020  0.00  0.00    +0.040 A 
ATOM      5  C   UNL     1      -2.663   0.214   0.071  0.00  0.00    +0.024 A 
ATOM      6  C   UNL     1      -3.741  -0.615   0.183  0.00  0.00    +0.014 A 
ATOM      7  C   UNL     1      -5.033  -0.078   0.197  0.00  0.00    +0.024 A 
ATOM      8  C   UNL     1      -6.208  -0.944   0.311  0.00  0.00    +0.007 A 
ATOM      9  C   UNL     1      -7.436  -0.363   0.320  0.00  0.00    +0.095 A 
ATOM     10  C   UNL     1      -7.549   1.039   0.219  0.00  0.00    +0.285 A 
ATOM     11  O   UNL     1      -6.468   1.828   0.115  0.00  0.00    -0.425 OA
ATOM     12  C   UNL     1      -5.219   1.314   0.101  0.00  0.00    +0.141 A 
ATOM     13  C   UNL     1      -4.113   2.143  -0.008  0.00  0.00    +0.070 A 
ATOM     14  H   UNL     1      -0.844   2.097  -0.694  0.00  0.00    +0.158 HD
ENDROOT
BRANCH  10  15
ATOM     15  O   UNL     1      -8.656   1.547   0.228  0.00  0.00    -0.480 OA
ATOM     16  H   UNL     1      -8.760   2.639   0.151  0.00  0.00    +0.295 HD
ENDBRANCH  10  15
BRANCH   1  17
ATOM     17  O   UNL     1      -0.630   4.411   0.430  0.00  0.00    -0.450 OA
BRANCH  17  19
ATOM     18  C   UNL     1       0.632   6.427   0.953  0.00  0.00    +0.048 C 
ATOM     19  C   UNL     1      -0.709   5.704   1.087  0.00  0.00    +0.230 C 
ENDBRANCH  17  19
ENDBRANCH   1  17
BRANCH   8  20
ATOM     20  C   UNL     1      -6.059  -2.440   0.417  0.00  0.00    +0.269 C 
BRANCH  20  21
ATOM     21  O   UNL     1      -7.372  -3.051   0.517  0.00  0.00    -0.456 OA
BRANCH  21  22
ATOM     22  C   UNL     1      -7.416  -4.394   0.619  0.00  0.00    +0.340 C 
ATOM     23  O   UNL     1      -6.385  -5.037   0.624  0.00  0.00    -0.245 OA
BRANCH  22  24
ATOM     24  C   UNL     1      -8.714  -5.084   0.725  0.00  0.00    +0.061 A 
ATOM     25  C   UNL     1      -9.902  -4.345   0.726  0.00  0.00    +0.017 A 
ATOM     26  C   UNL     1     -11.105  -4.985   0.818  0.00  0.00    +0.026 A 
ATOM     27  C   UNL     1     -11.154  -6.372   0.923  0.00  0.00    +0.058 A 
ATOM     28  C   UNL     1      -9.977  -7.115   0.929  0.00  0.00    +0.148 A 
ATOM     29  C   UNL     1      -8.761  -6.477   0.831  0.00  0.00    +0.049 A 
BRANCH  28  30
ATOM     30  N   UNL     1     -10.033  -8.590   1.041  0.00  0.00    +0.058 N 
ATOM     31  O   UNL     1      -9.003  -9.232   1.148  0.00  0.00    -0.126 OA
ATOM     32  O   UNL     1     -11.108  -9.162   1.026  0.00  0.00    -0.126 OA
ENDBRANCH  28  30
BRANCH  27  33
ATOM     33  N   UNL     1     -12.382  -7.017   1.022  0.00  0.00    -0.345 N 
ATOM     34  C   UNL     1     -13.614  -6.233   1.135  0.00  0.00    +0.125 C 
ATOM     35  H   UNL     1     -12.428  -8.116   1.017  0.00  0.00    +0.146 HD
ENDBRANCH  27  33
ENDBRANCH  22  24
ENDBRANCH  21  22
ENDBRANCH  20  21
ENDBRANCH   8  20
TORSDOF 9
