REMARK  Name = ZINC19497861
REMARK  9 active torsions:
REMARK  status: ('A' for Active; 'I' for Inactive)
REMARK    1  A    between atoms: C_1  and  C_2
REMARK    2  A    between atoms: C_7  and  C_16
REMARK    3  A    between atoms: N_11  and  S_12
REMARK    4  A    between atoms: S_12  and  C_15
REMARK    5  A    between atoms: C_16  and  C_18
REMARK    6  A    between atoms: C_16  and  O_33
REMARK    7  A    between atoms: C_18  and  N_19
REMARK    8  A    between atoms: C_22  and  N_25
REMARK    9  A    between atoms: C_26  and  C_28
REMARK                            x       y       z     vdW  Elec       q    Type
REMARK                         _______ _______ _______ _____ _____    ______ ____
ROOT
ATOM      1  C   UNL     1      -2.217   0.580   3.659  0.00  0.00    +0.128 C 
ENDROOT
BRANCH   1   7
ATOM      2  C   UNL     1      -6.089  -1.071   9.438  0.00  0.00    +0.030 C 
ATOM      3  C   UNL     1      -6.333  -0.215   8.194  0.00  0.00    +0.099 C 
ATOM      4  C   UNL     1      -5.863  -0.959   6.933  0.00  0.00    +0.061 C 
ATOM      5  C   UNL     1      -4.785  -0.073   6.350  0.00  0.00    -0.023 A 
ATOM      6  C   UNL     1      -4.006  -0.219   5.218  0.00  0.00    +0.011 A 
ATOM      7  C   UNL     1      -3.069   0.743   4.891  0.00  0.00    -0.021 A 
ATOM      8  C   UNL     1      -2.919   1.859   5.694  0.00  0.00    +0.008 A 
ATOM      9  C   UNL     1      -3.697   2.012   6.822  0.00  0.00    +0.025 A 
ATOM     10  C   UNL     1      -4.643   1.041   7.162  0.00  0.00    +0.054 A 
ATOM     11  N   UNL     1      -5.521   1.004   8.246  0.00  0.00    -0.204 N 
BRANCH  11  12
ATOM     12  S   UNL     1      -5.630   2.167   9.419  0.00  0.00    +0.043 S 
ATOM     13  O   UNL     1      -6.129   1.484  10.561  0.00  0.00    -0.155 OA
ATOM     14  O   UNL     1      -4.347   2.778   9.444  0.00  0.00    -0.155 OA
ATOM     15  C   UNL     1      -6.868   3.340   8.801  0.00  0.00    +0.218 C 
ENDBRANCH  11  12
ENDBRANCH   1   7
BRANCH   1  16
ATOM     16  O   UNL     1      -0.883   1.008   3.942  0.00  0.00    -0.389 OA
ATOM     17  H   UNL     1      -0.113   0.962   3.158  0.00  0.00    +0.210 HD
ENDBRANCH   1  16
BRANCH   1  18
ATOM     18  C   UNL     1      -2.794   1.427   2.523  0.00  0.00    -0.042 C 
BRANCH  18  19
ATOM     19  N   UNL     1      -2.009   1.208   1.301  0.00  0.00    +0.382 N 
ATOM     20  C   UNL     1      -2.203   2.309   0.347  0.00  0.00    -0.077 C 
ATOM     21  C   UNL     1      -1.263   2.121  -0.846  0.00  0.00    +0.003 C 
ATOM     22  C   UNL     1      -1.560   0.779  -1.519  0.00  0.00    +0.069 C 
ATOM     23  C   UNL     1      -1.399  -0.345  -0.492  0.00  0.00    +0.003 C 
ATOM     24  C   UNL     1      -2.335  -0.087   0.691  0.00  0.00    -0.077 C 
ATOM     25  H   UNL     1      -0.945   1.189   1.580  0.00  0.00    -0.082 HD
BRANCH  22  26
ATOM     26  N   UNL     1      -0.626   0.569  -2.628  0.00  0.00    -0.312 N 
ATOM     27  C   UNL     1      -0.968  -0.234  -3.655  0.00  0.00    +0.216 C 
ATOM     28  O   UNL     1      -2.049  -0.783  -3.661  0.00  0.00    -0.276 OA
ATOM     29  H   UNL     1       0.355   1.067  -2.622  0.00  0.00    +0.149 HD
BRANCH  27  30
ATOM     30  C   UNL     1      -0.006  -0.450  -4.795  0.00  0.00    +0.075 C 
ATOM     31  C   UNL     1       0.274   0.888  -5.510  0.00  0.00    +0.013 C 
ATOM     32  C   UNL     1       0.379   0.502  -7.007  0.00  0.00    +0.001 C 
ATOM     33  C   UNL     1      -0.713  -0.586  -7.159  0.00  0.00    +0.001 C 
ATOM     34  C   UNL     1      -0.633  -1.387  -5.842  0.00  0.00    +0.013 C 
ENDBRANCH  27  30
ENDBRANCH  22  26
ENDBRANCH  18  19
ENDBRANCH   1  18
TORSDOF 7
