REMARK  Name = ZINC38902729
REMARK  13 active torsions:
REMARK  status: ('A' for Active; 'I' for Inactive)
REMARK    1  A    between atoms: C_1  and  C_2
REMARK    2  A    between atoms: C_2  and  C_3
REMARK    3  A    between atoms: C_2  and  C_4
REMARK    4  A    between atoms: C_4  and  C_5
REMARK    5  A    between atoms: C_5  and  N_6
REMARK    6  A    between atoms: C_7  and  C_9
REMARK    7  A    between atoms: N_14  and  C_16
REMARK    8  A    between atoms: C_16  and  C_17
REMARK    9  A    between atoms: C_19  and  C_22
REMARK   10  A    between atoms: C_25  and  C_28
REMARK   11  A    between atoms: C_28  and  C_29
REMARK   12  A    between atoms: C_28  and  C_30
REMARK   13  A    between atoms: C_28  and  C_31
REMARK                            x       y       z     vdW  Elec       q    Type
REMARK                         _______ _______ _______ _____ _____    ______ ____
ROOT
ATOM      1  C   UNL     1      -5.737  -0.925  -2.313  0.00  0.00    +0.058 C 
ATOM      2  C   UNL     1      -6.492  -0.330  -1.122  0.00  0.00    +0.009 C 
ATOM      3  C   UNL     1      -7.948  -0.804  -1.165  0.00  0.00    -0.018 C 
ATOM      4  C   UNL     1      -8.570  -0.403  -2.504  0.00  0.00    -0.078 C 
ATOM      5  N   UNL     1      -7.819  -1.025  -3.602  0.00  0.00    +0.386 N 
ATOM      6  C   UNL     1      -6.440  -0.521  -3.611  0.00  0.00    -0.065 C 
ATOM      7  H   UNL     1      -7.808  -2.026  -3.476  0.00  0.00    -0.081 HD
ENDROOT
BRANCH   1   9
ATOM      8  N   UNL     1      -3.510  -0.638  -1.275  0.00  0.00    -0.315 N 
ATOM      9  C   UNL     1      -4.323  -0.403  -2.324  0.00  0.00    +0.214 C 
ATOM     10  O   UNL     1      -3.916   0.228  -3.277  0.00  0.00    -0.276 OA
ATOM     11  H   UNL     1      -3.834  -1.143  -0.513  0.00  0.00    +0.149 HD
BRANCH   8  12
ATOM     12  C   UNL     1      -2.135  -0.131  -1.286  0.00  0.00    +0.104 C 
BRANCH  12  13
ATOM     13  C   UNL     1      -1.433  -0.534   0.013  0.00  0.00    +0.022 C 
BRANCH  13  15
ATOM     14  C   UNL     1      -0.019   1.526   0.010  0.00  0.00    +0.007 C 
ATOM     15  C   UNL     1       0.002  -0.004   0.002  0.00  0.00    -0.016 C 
ATOM     16  C   UNL     1       0.742  -0.511   1.242  0.00  0.00    +0.007 C 
ENDBRANCH  13  15
ENDBRANCH  12  13
ENDBRANCH   8  12
ENDBRANCH   1   9
BRANCH   5  17
ATOM     17  C   UNL     1      -8.465  -0.701  -4.880  0.00  0.00    +0.022 C 
BRANCH  17  18
ATOM     18  C   UNL     1      -9.833  -1.332  -4.925  0.00  0.00    +0.211 A 
ATOM     19  N   UNL     1     -10.941  -0.777  -4.522  0.00  0.00    -0.193 NA
ATOM     20  C   UNL     1     -11.972  -1.620  -4.708  0.00  0.00    +0.202 A 
ATOM     21  N   UNL     1     -11.517  -2.728  -5.237  0.00  0.00    -0.056 NA
ATOM     22  O   UNL     1     -10.116  -2.555  -5.392  0.00  0.00    -0.340 OA
BRANCH  20  23
ATOM     23  C   UNL     1     -13.390  -1.341  -4.369  0.00  0.00    +0.022 A 
ATOM     24  C   UNL     1     -13.748  -0.115  -3.812  0.00  0.00    +0.012 A 
ATOM     25  C   UNL     1     -15.067   0.139  -3.498  0.00  0.00    +0.005 A 
ATOM     26  C   UNL     1     -16.034  -0.821  -3.736  0.00  0.00    -0.042 A 
ATOM     27  C   UNL     1     -15.685  -2.040  -4.289  0.00  0.00    +0.005 A 
ATOM     28  C   UNL     1     -14.369  -2.302  -4.612  0.00  0.00    +0.012 A 
BRANCH  26  29
ATOM     29  C   UNL     1     -17.474  -0.538  -3.391  0.00  0.00    -0.013 C 
ATOM     30  C   UNL     1     -17.958   0.680  -4.181  0.00  0.00    +0.015 C 
ATOM     31  C   UNL     1     -18.332  -1.752  -3.750  0.00  0.00    +0.015 C 
ATOM     32  C   UNL     1     -17.593  -0.255  -1.892  0.00  0.00    +0.015 C 
ENDBRANCH  26  29
ENDBRANCH  20  23
ENDBRANCH  17  18
ENDBRANCH   5  17
TORSDOF 8
