REMARK  Name = ZINC22853827
REMARK  6 active torsions:
REMARK  status: ('A' for Active; 'I' for Inactive)
REMARK    1  A    between atoms: C_1  and  C_2
REMARK    2  A    between atoms: C_2  and  C_3
REMARK    3  A    between atoms: C_9  and  C_11
REMARK    4  A    between atoms: C_11  and  C_13
REMARK    5  A    between atoms: C_11  and  N_21
REMARK    6  A    between atoms: C_24  and  C_27
REMARK                            x       y       z     vdW  Elec       q    Type
REMARK                         _______ _______ _______ _____ _____    ______ ____
ROOT
ATOM      1  C   UNL     1      -2.514   0.978   0.019  0.00  0.00    +0.006 C 
ENDROOT
BRANCH   1   8
ATOM      2  C   UNL     1      -4.505   0.091  -5.531  0.00  0.00    +0.152 A 
ATOM      3  N   UNL     1      -4.690   1.295  -4.994  0.00  0.00    -0.205 NA
ATOM      4  C   UNL     1      -4.196   1.309  -3.786  0.00  0.00    +0.199 A 
ATOM      5  N   UNL     1      -3.665   0.089  -3.495  0.00  0.00    -0.170 N 
ATOM      6  N   UNL     1      -3.891  -0.675  -4.669  0.00  0.00    -0.146 NA
ATOM      7  C   UNL     1      -3.094  -0.070  -2.255  0.00  0.00    +0.282 A 
ATOM      8  C   UNL     1      -3.078   0.941  -1.378  0.00  0.00    +0.050 A 
ATOM      9  S   UNL     1      -3.895   2.235  -2.299  0.00  0.00    -0.050 S 
ATOM     10  O   UNL     1      -2.543  -1.266  -1.915  0.00  0.00    -0.265 OA
BRANCH   2  12
ATOM     11  C   UNL     1      -3.810  -0.035  -7.907  0.00  0.00    +0.012 C 
ATOM     12  C   UNL     1      -4.937  -0.323  -6.914  0.00  0.00    +0.075 C 
ENDBRANCH   2  12
ENDBRANCH   1   8
BRANCH   1  13
ATOM     13  C   UNL     1      -1.220   1.750   0.017  0.00  0.00    -0.055 A 
ATOM     14  C   UNL     1      -0.013   1.076   0.008  0.00  0.00    +0.004 A 
ATOM     15  C   UNL     1       1.175   1.783   0.000  0.00  0.00    +0.021 A 
ATOM     16  C   UNL     1       1.157   3.166   0.008  0.00  0.00    +0.059 A 
ATOM     17  C   UNL     1      -0.052   3.841   0.022  0.00  0.00    +0.059 A 
ATOM     18  C   UNL     1      -1.240   3.132   0.030  0.00  0.00    +0.023 A 
ATOM     19 CL   UNL     1      -0.076   5.577   0.031  0.00  0.00    -0.082 Cl
ATOM     20 CL   UNL     1       2.648   4.054  -0.001  0.00  0.00    -0.082 Cl
ENDBRANCH   1  13
BRANCH   1  21
ATOM     21  N   UNL     1      -3.474   1.634   0.918  0.00  0.00    +0.387 N 
ATOM     22  C   UNL     1      -2.916   1.778   2.268  0.00  0.00    -0.077 C 
ATOM     23  C   UNL     1      -3.880   2.591   3.135  0.00  0.00    -0.006 C 
ATOM     24  C   UNL     1      -5.232   1.875   3.195  0.00  0.00    +0.071 C 
ATOM     25  C   UNL     1      -5.768   1.694   1.772  0.00  0.00    -0.006 C 
ATOM     26  C   UNL     1      -4.750   0.907   0.945  0.00  0.00    -0.077 C 
ATOM     27  H   UNL     1      -3.670   2.643   0.526  0.00  0.00    -0.080 HD
BRANCH  24  28
ATOM     28  C   UNL     1      -6.205   2.700   3.999  0.00  0.00    +0.213 C 
ATOM     29  O   UNL     1      -7.227   3.103   3.485  0.00  0.00    -0.276 OA
ATOM     30  N   UNL     1      -5.939   2.989   5.288  0.00  0.00    -0.329 N 
ATOM     31  H   UNL     1      -6.649   3.590   5.875  0.00  0.00    +0.145 HD
ATOM     32  H   UNL     1      -5.012   2.622   5.754  0.00  0.00    +0.145 HD
ENDBRANCH  24  28
ENDBRANCH   1  21
TORSDOF 5
