REMARK  Name = ZINC67405558
REMARK  8 active torsions:
REMARK  status: ('A' for Active; 'I' for Inactive)
REMARK    1  A    between atoms: C_1  and  C_2
REMARK    2  A    between atoms: C_2  and  C_3
REMARK    3  A    between atoms: C_6  and  C_8
REMARK    4  A    between atoms: C_8  and  N_9
REMARK    5  A    between atoms: N_9  and  C_10
REMARK    6  A    between atoms: N_9  and  S_11
REMARK    7  A    between atoms: S_11  and  C_14
REMARK    8  A    between atoms: C_19  and  N_20
REMARK                            x       y       z     vdW  Elec       q    Type
REMARK                         _______ _______ _______ _____ _____    ______ ____
ROOT
ATOM      1  S   UNL     1      -5.748  -4.107  -0.382  0.00  0.00    +0.063 S 
ATOM      2  O   UNL     1      -6.282  -5.002   0.585  0.00  0.00    -0.153 OA
ATOM      3  O   UNL     1      -6.533  -3.568  -1.437  0.00  0.00    -0.153 OA
ENDROOT
BRANCH   1   4
ATOM      4  C   UNL     1      -4.388  -4.934  -1.137  0.00  0.00    +0.139 A 
ATOM      5  C   UNL     1      -3.095  -4.614  -0.769  0.00  0.00    +0.080 A 
ATOM      6  C   UNL     1      -2.023  -5.264  -1.361  0.00  0.00    +0.164 A 
ATOM      7  C   UNL     1      -2.252  -6.239  -2.326  0.00  0.00    +0.164 A 
ATOM      8  C   UNL     1      -3.552  -6.553  -2.692  0.00  0.00    +0.084 A 
ATOM      9  C   UNL     1      -4.616  -5.905  -2.094  0.00  0.00    +0.156 A 
ATOM     10  O   UNL     1      -1.215  -6.894  -2.914  0.00  0.00    -0.485 OA
ATOM     11  C   UNL     1       0.079  -6.292  -2.793  0.00  0.00    +0.270 C 
ATOM     12  C   UNL     1       0.277  -5.869  -1.331  0.00  0.00    +0.270 C 
ATOM     13  O   UNL     1      -0.755  -4.936  -0.991  0.00  0.00    -0.485 OA
BRANCH   9  14
ATOM     14  N   UNL     1      -6.003  -6.248  -2.482  0.00  0.00    +0.058 N 
ATOM     15  O   UNL     1      -6.203  -6.994  -3.413  0.00  0.00    -0.126 OA
ATOM     16  O   UNL     1      -6.935  -5.782  -1.869  0.00  0.00    -0.126 OA
ENDBRANCH   9  14
ENDBRANCH   1   4
BRANCH   1  17
ATOM     17  N   UNL     1      -5.133  -2.818   0.456  0.00  0.00    -0.175 NA
ATOM     18  C   UNL     1      -4.905  -1.542  -0.226  0.00  0.00    +0.132 C 
BRANCH  17  19
ATOM     19  C   UNL     1      -4.816  -2.954   1.880  0.00  0.00    +0.153 C 
BRANCH  19  23
ATOM     20  C   UNL     1      -7.720  -1.036   4.061  0.00  0.00    +0.078 A 
ATOM     21  N   UNL     1      -7.867  -2.333   3.946  0.00  0.00    -0.252 NA
ATOM     22  C   UNL     1      -7.003  -3.064   3.271  0.00  0.00    +0.123 A 
ATOM     23  C   UNL     1      -5.957  -2.411   2.702  0.00  0.00    +0.025 A 
ATOM     24  S   UNL     1      -6.310  -0.731   3.194  0.00  0.00    -0.076 S 
BRANCH  20  26
ATOM     25  C   UNL     1      -8.122   0.088   6.234  0.00  0.00    +0.011 C 
ATOM     26  C   UNL     1      -8.602  -0.055   4.789  0.00  0.00    +0.059 C 
ENDBRANCH  20  26
ENDBRANCH  19  23
ENDBRANCH  17  19
ENDBRANCH   1  17
TORSDOF 6
