REMARK  Name = ZINC43223459
REMARK  7 active torsions:
REMARK  status: ('A' for Active; 'I' for Inactive)
REMARK    1  A    between atoms: C_1  and  C_2
REMARK    2  A    between atoms: C_2  and  C_3
REMARK    3  A    between atoms: C_3  and  C_5
REMARK    4  A    between atoms: C_3  and  N_6
REMARK    5  A    between atoms: C_7  and  C_9
REMARK    6  A    between atoms: C_14  and  C_16
REMARK    7  A    between atoms: N_18  and  C_19
REMARK                            x       y       z     vdW  Elec       q    Type
REMARK                         _______ _______ _______ _____ _____    ______ ____
ROOT
ATOM      1  C   UNL     1      -4.090   0.329   2.630  0.00  0.00    +0.068 C 
ATOM      2  C   UNL     1      -3.651   1.744   3.062  0.00  0.00    -0.069 C 
ATOM      3  N   UNL     1      -4.713   2.642   2.540  0.00  0.00    +0.380 N 
ATOM      4  C   UNL     1      -5.973   1.890   2.772  0.00  0.00    -0.069 C 
ATOM      5  C   UNL     1      -5.618   0.422   2.440  0.00  0.00    +0.068 C 
ATOM      6  H   UNL     1      -4.722   3.512   3.050  0.00  0.00    -0.086 HD
ATOM      7  H   UNL     1      -4.579   2.811   1.554  0.00  0.00    -0.086 HD
ENDROOT
BRANCH   1   9
ATOM      8  N   UNL     1      -2.082  -0.162   1.273  0.00  0.00    -0.313 N 
ATOM      9  C   UNL     1      -3.424  -0.053   1.334  0.00  0.00    +0.215 C 
ATOM     10  O   UNL     1      -4.095  -0.264   0.346  0.00  0.00    -0.276 OA
ATOM     11  H   UNL     1      -1.545   0.006   2.063  0.00  0.00    +0.149 HD
BRANCH   8  12
ATOM     12  C   UNL     1      -1.433  -0.534   0.013  0.00  0.00    +0.070 C 
ATOM     13  C   UNL     1      -1.416  -2.058  -0.121  0.00  0.00    +0.028 C 
BRANCH  12  15
ATOM     14  C   UNL     1      -0.019   1.526   0.010  0.00  0.00    +0.005 C 
ATOM     15  C   UNL     1       0.002  -0.004   0.002  0.00  0.00    +0.018 C 
ENDBRANCH  12  15
ENDBRANCH   8  12
ENDBRANCH   1   9
BRANCH   5  16
ATOM     16  C   UNL     1      -6.322  -0.515   3.387  0.00  0.00    +0.215 C 
ATOM     17  O   UNL     1      -5.677  -1.202   4.151  0.00  0.00    -0.276 OA
ATOM     18  N   UNL     1      -7.668  -0.591   3.385  0.00  0.00    -0.308 N 
ATOM     19  H   UNL     1      -8.183  -0.041   2.774  0.00  0.00    +0.149 HD
BRANCH  18  20
ATOM     20  C   UNL     1      -8.352  -1.502   4.306  0.00  0.00    +0.104 C 
ATOM     21  C   UNL     1      -9.749  -1.865   3.761  0.00  0.00    +0.032 C 
ATOM     22  C   UNL     1     -10.650  -0.803   4.426  0.00  0.00    +0.037 C 
ATOM     23  C   UNL     1      -9.931  -0.413   5.699  0.00  0.00    -0.042 A 
ATOM     24  C   UNL     1      -8.607  -0.816   5.631  0.00  0.00    -0.024 A 
ATOM     25  C   UNL     1      -7.752  -0.564   6.690  0.00  0.00    +0.006 A 
ATOM     26  C   UNL     1      -8.215   0.088   7.817  0.00  0.00    +0.000 A 
ATOM     27  C   UNL     1      -9.535   0.491   7.888  0.00  0.00    +0.000 A 
ATOM     28  C   UNL     1     -10.394   0.241   6.828  0.00  0.00    +0.004 A 
ENDBRANCH  18  20
ENDBRANCH   5  16
TORSDOF 5
