REMARK  Name = ZINC04812603
REMARK  7 active torsions:
REMARK  status: ('A' for Active; 'I' for Inactive)
REMARK    1  A    between atoms: C_1  and  C_2
REMARK    2  A    between atoms: C_2  and  C_3
REMARK    3  A    between atoms: C_2  and  C_4
REMARK    4  A    between atoms: C_2  and  C_5
REMARK    5  A    between atoms: C_12  and  N_26
REMARK    6  A    between atoms: C_13  and  C_24
REMARK    7  A    between atoms: C_14  and  C_16
REMARK                            x       y       z     vdW  Elec       q    Type
REMARK                         _______ _______ _______ _____ _____    ______ ____
ROOT
ATOM      1  C   UNL     1       0.782  -0.706  -1.819  0.00  0.00    +0.076 A 
ATOM      2  C   UNL     1       0.860  -2.091  -1.860  0.00  0.00    +0.050 A 
ATOM      3  C   UNL     1       1.573  -2.443  -2.972  0.00  0.00    +0.222 A 
ATOM      4  N   UNL     1       1.926  -1.312  -3.602  0.00  0.00    -0.246 N 
ATOM      5  H   UNL     1       2.439  -1.252  -4.423  0.00  0.00    +0.192 HD
ATOM      6  N   UNL     1       1.416  -0.232  -2.866  0.00  0.00    -0.175 NA
ATOM      7  O   UNL     1       1.830  -3.734  -3.298  0.00  0.00    -0.423 OA
ATOM      8  C   UNL     1       1.603  -4.673  -2.357  0.00  0.00    +0.200 C 
ATOM      9  C   UNL     1       0.903  -4.449  -1.224  0.00  0.00    +0.098 C 
ATOM     10  C   UNL     1       0.293  -3.107  -0.902  0.00  0.00    +0.103 C 
ENDROOT
BRANCH  10  11
ATOM     11  C   UNL     1      -1.204  -3.176  -1.060  0.00  0.00    -0.015 A 
ATOM     12  C   UNL     1      -1.759  -3.351  -2.314  0.00  0.00    +0.006 A 
ATOM     13  C   UNL     1      -3.132  -3.414  -2.461  0.00  0.00    +0.002 A 
ATOM     14  C   UNL     1      -3.952  -3.302  -1.353  0.00  0.00    +0.021 A 
ATOM     15  C   UNL     1      -3.398  -3.127  -0.098  0.00  0.00    +0.060 A 
ATOM     16  C   UNL     1      -2.022  -3.070   0.050  0.00  0.00    +0.063 A 
ATOM     17 CL   UNL     1      -1.326  -2.858   1.625  0.00  0.00    -0.082 Cl
ATOM     18 CL   UNL     1      -4.427  -2.986   1.293  0.00  0.00    -0.082 Cl
ENDBRANCH  10  11
BRANCH   1  20
ATOM     19  C   UNL     1       0.418   1.591  -0.959  0.00  0.00    +0.017 C 
ATOM     20  C   UNL     1       0.086   0.111  -0.761  0.00  0.00    +0.007 C 
ATOM     21  C   UNL     1       0.560  -0.337   0.623  0.00  0.00    +0.017 C 
ATOM     22  C   UNL     1      -1.426  -0.092  -0.873  0.00  0.00    +0.017 C 
ENDBRANCH   1  20
BRANCH   8  23
ATOM     23  N   UNL     1       2.115  -5.931  -2.563  0.00  0.00    -0.328 N 
ATOM     24  H   UNL     1       2.623  -6.122  -3.367  0.00  0.00    +0.145 HD
ATOM     25  H   UNL     1       1.968  -6.628  -1.904  0.00  0.00    +0.145 HD
ENDBRANCH   8  23
BRANCH   9  26
ATOM     26  C   UNL     1       0.731  -5.525  -0.295  0.00  0.00    +0.101 C 
ATOM     27  N   UNL     1       0.596  -6.379   0.442  0.00  0.00    -0.191 NA
ENDBRANCH   9  26
TORSDOF 4
