REMARK  Name = ZINC19892183
REMARK  12 active torsions:
REMARK  status: ('A' for Active; 'I' for Inactive)
REMARK    1  A    between atoms: C_4  and  C_7
REMARK    2  A    between atoms: C_7  and  O_8
REMARK    3  A    between atoms: O_8  and  C_9
REMARK    4  A    between atoms: C_9  and  C_11
REMARK    5  A    between atoms: C_11  and  C_13
REMARK    6  A    between atoms: C_11  and  N_21
REMARK    7  A    between atoms: C_13  and  C_14
REMARK    8  A    between atoms: C_17  and  O_20
REMARK    9  A    between atoms: C_22  and  C_24
REMARK   10  A    between atoms: C_30  and  O_32
REMARK   11  A    between atoms: O_32  and  C_33
REMARK   12  A    between atoms: C_33  and  C_34
REMARK                            x       y       z     vdW  Elec       q    Type
REMARK                         _______ _______ _______ _____ _____    ______ ____
ROOT
ATOM      1  C   UNL     1      -2.820   0.643   1.442  0.00  0.00    +0.186 C 
ENDROOT
BRANCH   1   2
ATOM      2  N   UNL     1      -1.764  -0.187   2.026  0.00  0.00    -0.301 N 
ATOM      3  C   UNL     1      -1.695  -0.349   3.362  0.00  0.00    +0.234 C 
ATOM      4  O   UNL     1      -2.453   0.261   4.087  0.00  0.00    -0.274 OA
ATOM      5  H   UNL     1      -1.026  -0.678   1.374  0.00  0.00    +0.150 HD
BRANCH   3   6
ATOM      6  C   UNL     1      -0.677  -1.289   3.956  0.00  0.00    +0.165 C 
ATOM      7  C   UNL     1      -1.165  -2.746   3.818  0.00  0.00    +0.033 C 
ATOM      8  C   UNL     1      -0.715  -3.391   5.156  0.00  0.00    +0.021 C 
ATOM      9  C   UNL     1      -0.912  -2.218   6.148  0.00  0.00    +0.112 C 
ATOM     10  N   UNL     1      -0.521  -1.014   5.392  0.00  0.00    -0.256 N 
ATOM     11  C   UNL     1      -0.093   0.146   5.928  0.00  0.00    +0.404 C 
ATOM     12  O   UNL     1       0.111   1.107   5.213  0.00  0.00    -0.226 OA
BRANCH  11  13
ATOM     13  O   UNL     1       0.108   0.240   7.256  0.00  0.00    -0.445 OA
BRANCH  13  14
ATOM     14  C   UNL     1       0.570   1.520   7.764  0.00  0.00    +0.269 C 
BRANCH  14  15
ATOM     15  C   UNL     1       0.737   1.436   9.259  0.00  0.00    -0.010 A 
ATOM     16  C   UNL     1      -0.319   1.754  10.092  0.00  0.00    +0.007 A 
ATOM     17  C   UNL     1      -0.167   1.672  11.463  0.00  0.00    +0.000 A 
ATOM     18  C   UNL     1       1.045   1.283  12.002  0.00  0.00    +0.000 A 
ATOM     19  C   UNL     1       2.103   0.970  11.169  0.00  0.00    +0.000 A 
ATOM     20  C   UNL     1       1.949   1.046   9.798  0.00  0.00    +0.007 A 
ENDBRANCH  14  15
ENDBRANCH  13  14
ENDBRANCH  11  13
ENDBRANCH   3   6
ENDBRANCH   1   2
BRANCH   1  21
ATOM     21  C   UNL     1      -4.085  -0.166   1.320  0.00  0.00    +0.328 C 
ATOM     22  O   UNL     1      -4.103  -1.319   1.683  0.00  0.00    -0.249 OA
BRANCH  21  23
ATOM     23  O   UNL     1      -5.193   0.393   0.807  0.00  0.00    -0.459 OA
BRANCH  23  24
ATOM     24  C   UNL     1      -6.375  -0.447   0.719  0.00  0.00    +0.267 C 
BRANCH  24  28
ATOM     25  C   UNL     1      -9.593   1.798  -0.969  0.00  0.00    +0.000 A 
ATOM     26  C   UNL     1      -8.742   1.084  -1.791  0.00  0.00    +0.000 A 
ATOM     27  C   UNL     1      -7.700   0.358  -1.245  0.00  0.00    +0.007 A 
ATOM     28  C   UNL     1      -7.510   0.345   0.124  0.00  0.00    -0.010 A 
ATOM     29  C   UNL     1      -8.364   1.054   0.947  0.00  0.00    +0.007 A 
ATOM     30  C   UNL     1      -9.403   1.785   0.401  0.00  0.00    +0.000 A 
ENDBRANCH  24  28
ENDBRANCH  23  24
ENDBRANCH  21  23
ENDBRANCH   1  21
BRANCH   1  31
ATOM     31  C   UNL     1      -2.385   1.122   0.056  0.00  0.00    +0.069 C 
BRANCH  31  32
ATOM     32  C   UNL     1      -1.206   2.051   0.192  0.00  0.00    -0.045 A 
ATOM     33  C   UNL     1       0.076   1.536   0.240  0.00  0.00    +0.007 A 
ATOM     34  C   UNL     1       1.159   2.386   0.359  0.00  0.00    +0.045 A 
ATOM     35  C   UNL     1       0.958   3.757   0.436  0.00  0.00    +0.117 A 
ATOM     36  C   UNL     1      -0.330   4.270   0.393  0.00  0.00    +0.045 A 
ATOM     37  C   UNL     1      -1.409   3.416   0.274  0.00  0.00    +0.007 A 
BRANCH  35  38
ATOM     38  O   UNL     1       2.022   4.595   0.552  0.00  0.00    -0.507 OA
ATOM     39  H   UNL     1       1.861   5.681   0.613  0.00  0.00    +0.292 HD
ENDBRANCH  35  38
ENDBRANCH  31  32
ENDBRANCH   1  31
TORSDOF 12
