REMARK  Name = ZINC29853156
REMARK  10 active torsions:
REMARK  status: ('A' for Active; 'I' for Inactive)
REMARK    1  A    between atoms: C_1  and  C_2
REMARK    2  A    between atoms: C_15  and  C_17
REMARK    3  A    between atoms: C_17  and  C_19
REMARK    4  A    between atoms: C_17  and  N_20
REMARK    5  A    between atoms: N_20  and  C_21
REMARK    6  A    between atoms: N_20  and  C_22
REMARK    7  A    between atoms: C_22  and  C_23
REMARK    8  A    between atoms: C_23  and  C_24
REMARK    9  A    between atoms: C_24  and  O_25
REMARK   10  A    between atoms: O_25  and  C_26
REMARK                            x       y       z     vdW  Elec       q    Type
REMARK                         _______ _______ _______ _____ _____    ______ ____
ROOT
ATOM      1  C   UNL     1       3.546   2.093  -1.322  0.00  0.00    +0.008 C 
ATOM      2  C   UNL     1       2.194   1.398  -1.157  0.00  0.00    -0.009 C 
ATOM      3  C   UNL     1       1.421   2.037  -0.001  0.00  0.00    +0.008 C 
ATOM      4  C   UNL     1      -0.019   1.522   0.010  0.00  0.00    +0.037 C 
ATOM      5  C   UNL     1       0.002  -0.004   0.002  0.00  0.00    -0.023 A 
ATOM      6  C   UNL     1       1.113  -0.674  -0.386  0.00  0.00    -0.004 A 
ATOM      7  S   UNL     1       0.692  -2.393  -0.240  0.00  0.00    -0.073 S 
ATOM      8  C   UNL     1      -0.965  -2.210   0.338  0.00  0.00    +0.116 A 
ATOM      9  C   UNL     1      -1.139  -0.809   0.399  0.00  0.00    +0.075 A 
ATOM     10  C   UNL     1      -2.417  -0.330   0.843  0.00  0.00    +0.260 A 
ATOM     11  O   UNL     1      -2.669   0.859   0.931  0.00  0.00    -0.267 OA
ATOM     12  N   UNL     1      -3.325  -1.284   1.159  0.00  0.00    -0.312 N 
ATOM     13  H   UNL     1      -4.327  -0.996   1.507  0.00  0.00    +0.170 HD
ATOM     14  C   UNL     1      -3.065  -2.611   1.068  0.00  0.00    +0.097 A 
ATOM     15  N   UNL     1      -1.908  -3.088   0.665  0.00  0.00    -0.228 NA
ATOM     16  C   UNL     1       2.414  -0.088  -0.839  0.00  0.00    +0.046 C 
ENDROOT
BRANCH  14  17
ATOM     17  C   UNL     1      -4.152  -3.584   1.446  0.00  0.00    -0.004 C 
ATOM     18  C   UNL     1      -4.635  -3.281   2.866  0.00  0.00    -0.005 C 
BRANCH  17  19
ATOM     19  N   UNL     1      -3.624  -4.953   1.390  0.00  0.00    +0.384 N 
ATOM     20  C   UNL     1      -2.594  -5.163   2.416  0.00  0.00    -0.095 C 
ATOM     21  H   UNL     1      -3.154  -5.094   0.405  0.00  0.00    -0.081 HD
BRANCH  19  22
ATOM     22  C   UNL     1      -4.705  -5.940   1.519  0.00  0.00    -0.075 C 
BRANCH  22  23
ATOM     23  C   UNL     1      -4.161  -7.336   1.209  0.00  0.00    +0.022 C 
BRANCH  23  24
ATOM     24  C   UNL     1      -5.287  -8.363   1.343  0.00  0.00    +0.227 C 
BRANCH  24  25
ATOM     25  O   UNL     1      -4.779  -9.667   1.054  0.00  0.00    -0.492 OA
BRANCH  25  26
ATOM     26  C   UNL     1      -5.657 -10.702   1.128  0.00  0.00    +0.120 A 
ATOM     27  C   UNL     1      -6.979 -10.468   1.479  0.00  0.00    +0.045 A 
ATOM     28  C   UNL     1      -7.870 -11.520   1.548  0.00  0.00    +0.004 A 
ATOM     29  C   UNL     1      -7.444 -12.808   1.280  0.00  0.00    +0.000 A 
ATOM     30  C   UNL     1      -6.126 -13.045   0.936  0.00  0.00    +0.004 A 
ATOM     31  C   UNL     1      -5.231 -11.995   0.860  0.00  0.00    +0.045 A 
ENDBRANCH  25  26
ENDBRANCH  24  25
ENDBRANCH  23  24
ENDBRANCH  22  23
ENDBRANCH  19  22
ENDBRANCH  17  19
ENDBRANCH  14  17
TORSDOF 7
