REMARK  Name = ZINC16926016
REMARK  11 active torsions:
REMARK  status: ('A' for Active; 'I' for Inactive)
REMARK    1  A    between atoms: C_1  and  C_2
REMARK    2  A    between atoms: C_4  and  O_31
REMARK    3  A    between atoms: C_6  and  O_27
REMARK    4  A    between atoms: C_8  and  O_23
REMARK    5  A    between atoms: C_10  and  N_13
REMARK    6  A    between atoms: O_23  and  C_24
REMARK    7  A    between atoms: C_24  and  C_26
REMARK    8  A    between atoms: O_27  and  C_28
REMARK    9  A    between atoms: C_28  and  C_30
REMARK   10  A    between atoms: O_31  and  C_32
REMARK   11  A    between atoms: C_32  and  C_34
REMARK                            x       y       z     vdW  Elec       q    Type
REMARK                         _______ _______ _______ _____ _____    ______ ____
ROOT
ATOM      1  C   UNL     1      -2.286   2.892   5.514  0.00  0.00    +0.042 C 
ATOM      2  C   UNL     1      -1.258   3.937   5.075  0.00  0.00    +0.162 C 
ATOM      3  C   UNL     1      -0.533   3.441   3.821  0.00  0.00    +0.249 C 
ATOM      4  C   UNL     1      -1.547   3.284   2.683  0.00  0.00    +0.264 C 
ATOM      5  C   UNL     1      -2.257   4.622   2.456  0.00  0.00    +0.270 C 
ATOM      6  C   UNL     1      -2.916   5.070   3.764  0.00  0.00    +0.267 C 
ATOM      7  O   UNL     1      -1.922   5.168   4.787  0.00  0.00    -0.346 OA
ENDROOT
BRANCH   6   8
ATOM      8  N   UNL     1      -3.549   6.377   3.570  0.00  0.00    -0.284 N 
ATOM      9  C   UNL     1      -2.995   7.590   3.853  0.00  0.00    +0.204 A 
ATOM     10  N   UNL     1      -3.840   8.536   3.555  0.00  0.00    -0.229 NA
ATOM     11  C   UNL     1      -4.973   7.981   3.068  0.00  0.00    +0.172 A 
ATOM     12  C   UNL     1      -4.794   6.601   3.068  0.00  0.00    +0.169 A 
ATOM     13  N   UNL     1      -5.808   5.805   2.611  0.00  0.00    -0.218 NA
ATOM     14  C   UNL     1      -6.957   6.344   2.165  0.00  0.00    +0.201 A 
ATOM     15  N   UNL     1      -7.174   7.630   2.141  0.00  0.00    -0.312 N 
ATOM     16  C   UNL     1      -6.248   8.506   2.575  0.00  0.00    +0.279 A 
ATOM     17  O   UNL     1      -6.461   9.708   2.546  0.00  0.00    -0.265 OA
ATOM     18  H   UNL     1      -8.130   8.019   1.760  0.00  0.00    +0.170 HD
ENDBRANCH   6   8
BRANCH   5  19
ATOM     19  O   UNL     1      -1.290   5.620   2.034  0.00  0.00    -0.453 OA
BRANCH  19  20
ATOM     20  C   UNL     1      -1.735   6.598   1.230  0.00  0.00    +0.304 C 
ATOM     21  O   UNL     1      -2.894   6.620   0.890  0.00  0.00    -0.251 OA
ATOM     22  C   UNL     1      -0.789   7.668   0.751  0.00  0.00    +0.136 C 
ENDBRANCH  19  20
ENDBRANCH   5  19
BRANCH   4  23
ATOM     23  O   UNL     1      -0.857   2.889   1.469  0.00  0.00    -0.454 OA
BRANCH  23  24
ATOM     24  C   UNL     1      -0.718   1.572   1.248  0.00  0.00    +0.304 C 
ATOM     25  O   UNL     1      -1.159   0.776   2.043  0.00  0.00    -0.251 OA
ATOM     26  C   UNL     1      -0.013   1.086   0.008  0.00  0.00    +0.136 C 
ENDBRANCH  23  24
ENDBRANCH   4  23
BRANCH   3  27
ATOM     27  O   UNL     1       0.092   2.160   4.094  0.00  0.00    -0.455 OA
BRANCH  27  28
ATOM     28  C   UNL     1       1.352   2.183   4.557  0.00  0.00    +0.304 C 
ATOM     29  O   UNL     1       1.914   3.239   4.728  0.00  0.00    -0.251 OA
ATOM     30  C   UNL     1       2.066   0.891   4.862  0.00  0.00    +0.136 C 
ENDBRANCH  27  28
ENDBRANCH   3  27
TORSDOF 7
