REMARK  Name = ZINC66272473
REMARK  9 active torsions:
REMARK  status: ('A' for Active; 'I' for Inactive)
REMARK    1  A    between atoms: C_1  and  C_2
REMARK    2  A    between atoms: C_2  and  C_4
REMARK    3  A    between atoms: C_2  and  N_21
REMARK    4  A    between atoms: C_4  and  C_5
REMARK    5  A    between atoms: N_7  and  C_8
REMARK    6  A    between atoms: C_8  and  C_9
REMARK    7  A    between atoms: C_9  and  C_11
REMARK    8  A    between atoms: C_9  and  N_16
REMARK    9  A    between atoms: C_22  and  C_24
REMARK                            x       y       z     vdW  Elec       q    Type
REMARK                         _______ _______ _______ _____ _____    ______ ____
ROOT
ATOM      1  C   UNL     1       0.567  -1.950  -1.413  0.00  0.00    +0.215 C 
ATOM      2  O   UNL     1      -0.143  -2.530  -0.618  0.00  0.00    -0.276 OA
ATOM      3  N   UNL     1       1.184  -2.639  -2.393  0.00  0.00    -0.316 N 
ATOM      4  H   UNL     1       1.752  -2.175  -3.028  0.00  0.00    +0.149 HD
ENDROOT
BRANCH   1   5
ATOM      5  C   UNL     1       0.758  -0.460  -1.304  0.00  0.00    +0.117 C 
BRANCH   5   7
ATOM      6  C   UNL     1       0.047   1.599  -0.080  0.00  0.00    +0.028 C 
ATOM      7  C   UNL     1      -0.046   0.072  -0.116  0.00  0.00    +0.079 C 
BRANCH   7   8
ATOM      8  N   UNL     1       0.497  -0.480   1.128  0.00  0.00    -0.312 N 
ATOM      9  C   UNL     1      -0.289  -0.587   2.217  0.00  0.00    +0.216 C 
ATOM     10  O   UNL     1      -1.446  -0.226   2.168  0.00  0.00    -0.276 OA
ATOM     11  H   UNL     1       1.422  -0.768   1.167  0.00  0.00    +0.149 HD
BRANCH   9  12
ATOM     12  C   UNL     1       0.270  -1.155   3.497  0.00  0.00    +0.075 C 
ATOM     13  C   UNL     1       0.756  -2.584   3.250  0.00  0.00    +0.013 C 
ATOM     14  C   UNL     1       1.323  -3.160   4.549  0.00  0.00    +0.001 C 
ATOM     15  C   UNL     1       0.233  -3.171   5.622  0.00  0.00    +0.000 C 
ATOM     16  C   UNL     1      -0.254  -1.742   5.868  0.00  0.00    +0.001 C 
ATOM     17  C   UNL     1      -0.822  -1.165   4.569  0.00  0.00    +0.013 C 
ENDBRANCH   9  12
ENDBRANCH   7   8
ENDBRANCH   5   7
ENDBRANCH   1   5
BRANCH   3  18
ATOM     18  C   UNL     1       0.998  -4.088  -2.498  0.00  0.00    +0.096 C 
BRANCH  18  19
ATOM     19  C   UNL     1       1.718  -4.605  -3.746  0.00  0.00    +0.016 C 
BRANCH  19  20
ATOM     20  N   UNL     1       1.422  -6.033  -3.926  0.00  0.00    +0.387 N 
ATOM     21  C   UNL     1      -0.031  -6.229  -4.163  0.00  0.00    -0.078 C 
ATOM     22  C   UNL     1      -0.092  -7.607  -4.870  0.00  0.00    -0.020 C 
ATOM     23  C   UNL     1       1.163  -7.588  -5.772  0.00  0.00    -0.020 C 
ATOM     24  C   UNL     1       2.102  -6.546  -5.135  0.00  0.00    -0.078 C 
ATOM     25  H   UNL     1       1.716  -6.554  -3.114  0.00  0.00    -0.081 HD
ENDBRANCH  19  20
BRANCH  19  26
ATOM     26  C   UNL     1       3.204  -4.417  -3.583  0.00  0.00    +0.093 A 
ATOM     27  C   UNL     1       3.933  -3.417  -4.111  0.00  0.00    +0.043 A 
ATOM     28  C   UNL     1       5.271  -3.629  -3.708  0.00  0.00    +0.041 A 
ATOM     29  C   UNL     1       5.281  -4.745  -2.958  0.00  0.00    +0.195 A 
ATOM     30  O   UNL     1       4.025  -5.215  -2.881  0.00  0.00    -0.469 OA
ENDBRANCH  19  26
ENDBRANCH  18  19
ENDBRANCH   3  18
TORSDOF 8
