REMARK  Name = ZINC44465832
REMARK  10 active torsions:
REMARK  status: ('A' for Active; 'I' for Inactive)
REMARK    1  A    between atoms: C_1  and  C_2
REMARK    2  A    between atoms: C_5  and  N_8
REMARK    3  A    between atoms: N_8  and  C_9
REMARK    4  A    between atoms: N_8  and  C_16
REMARK    5  A    between atoms: C_12  and  C_15
REMARK    6  A    between atoms: C_19  and  C_22
REMARK    7  A    between atoms: C_22  and  CA_23
REMARK    8  A    between atoms: CA_23  and  C_25
REMARK    9  A    between atoms: CA_23  and  N_27
REMARK   10  A    between atoms: C_25  and  O_26
REMARK                            x       y       z     vdW  Elec       q    Type
REMARK                         _______ _______ _______ _____ _____    ______ ____
ROOT
ATOM      1  N   UNL     1       0.059  -4.169  -0.021  0.00  0.00    -0.269 N 
ENDROOT
BRANCH   1   6
ATOM      2  C   UNL     1      -0.522   1.391  -0.981  0.00  0.00    +0.044 C 
ATOM      3  C   UNL     1      -0.367  -0.086  -0.726  0.00  0.00    -0.050 A 
ATOM      4  C   UNL     1      -0.863  -0.999  -1.639  0.00  0.00    +0.005 A 
ATOM      5  C   UNL     1      -0.723  -2.354  -1.408  0.00  0.00    +0.024 A 
ATOM      6  C   UNL     1      -0.084  -2.798  -0.258  0.00  0.00    +0.039 A 
ATOM      7  C   UNL     1       0.412  -1.878   0.657  0.00  0.00    +0.024 A 
ATOM      8  C   UNL     1       0.274  -0.525   0.418  0.00  0.00    +0.005 A 
ENDBRANCH   1   6
BRANCH   1   9
ATOM      9  C   UNL     1      -0.538  -5.093  -0.883  0.00  0.00    +0.039 A 
ATOM     10  C   UNL     1       0.190  -5.634  -1.936  0.00  0.00    +0.024 A 
ATOM     11  C   UNL     1      -0.403  -6.547  -2.786  0.00  0.00    +0.005 A 
ATOM     12  C   UNL     1      -1.719  -6.923  -2.589  0.00  0.00    -0.050 A 
ATOM     13  C   UNL     1      -2.446  -6.387  -1.542  0.00  0.00    +0.005 A 
ATOM     14  C   UNL     1      -1.858  -5.478  -0.685  0.00  0.00    +0.024 A 
ATOM     15  C   UNL     1      -2.363  -7.919  -3.519  0.00  0.00    +0.044 C 
ENDBRANCH   1   9
BRANCH   1  16
ATOM     16  C   UNL     1       0.800  -4.615   1.078  0.00  0.00    +0.039 A 
ATOM     17  C   UNL     1       0.159  -4.909   2.276  0.00  0.00    +0.024 A 
ATOM     18  C   UNL     1       0.893  -5.349   3.359  0.00  0.00    +0.005 A 
ATOM     19  C   UNL     1       2.264  -5.498   3.253  0.00  0.00    -0.049 A 
ATOM     20  C   UNL     1       2.905  -5.206   2.063  0.00  0.00    +0.005 A 
ATOM     21  C   UNL     1       2.176  -4.770   0.974  0.00  0.00    +0.024 A 
BRANCH  19  22
ATOM     22  C   UNL     1       3.062  -5.978   4.438  0.00  0.00    +0.021 C 
BRANCH  22  23
ATOM     23  CA  UNL     1       3.151  -7.505   4.408  0.00  0.00    -0.045 C 
BRANCH  23  24
ATOM     24  N   UNL     1       1.810  -8.077   4.585  0.00  0.00    +0.382 N 
ATOM     25  H1  UNL     1       1.432  -7.780   5.472  0.00  0.00    -0.090 HD
ATOM     26  H2  UNL     1       1.208  -7.761   3.840  0.00  0.00    -0.090 HD
ATOM     27  H3  UNL     1       1.869  -9.084   4.565  0.00  0.00    -0.090 HD
ENDBRANCH  23  24
BRANCH  23  28
ATOM     28  C   UNL     1       4.064  -7.985   5.538  0.00  0.00    +0.140 C 
BRANCH  28  29
ATOM     29  O   UNL     1       4.240  -9.400   5.440  0.00  0.00    -0.397 OA
ATOM     30  H   UNL     1       4.809  -9.774   6.126  0.00  0.00    +0.209 HD
ENDBRANCH  28  29
ENDBRANCH  23  28
ENDBRANCH  22  23
ENDBRANCH  19  22
ENDBRANCH   1  16
TORSDOF 8
