REMARK  Name = ZINC08824814
REMARK  11 active torsions:
REMARK  status: ('A' for Active; 'I' for Inactive)
REMARK    1  A    between atoms: C_1  and  C_2
REMARK    2  A    between atoms: C_7  and  N_8
REMARK    3  A    between atoms: C_9  and  C_11
REMARK    4  A    between atoms: C_11  and  O_12
REMARK    5  A    between atoms: O_12  and  C_13
REMARK    6  A    between atoms: C_13  and  C_15
REMARK    7  A    between atoms: C_15  and  C_16
REMARK    8  A    between atoms: C_16  and  C_17
REMARK    9  A    between atoms: C_17  and  N_18
REMARK   10  A    between atoms: N_18  and  C_19
REMARK   11  A    between atoms: C_24  and  N_25
REMARK                            x       y       z     vdW  Elec       q    Type
REMARK                         _______ _______ _______ _____ _____    ______ ____
ROOT
ATOM      1  C   UNL     1       4.203  -0.038  -0.496  0.00  0.00    +0.308 C 
ATOM      2  O   UNL     1       4.098   1.165  -0.489  0.00  0.00    -0.251 OA
ENDROOT
BRANCH   1   3
ATOM      3  O   UNL     1       3.104  -0.808  -0.520  0.00  0.00    -0.455 OA
BRANCH   3   4
ATOM      4  C   UNL     1       1.822  -0.125  -0.537  0.00  0.00    +0.328 C 
BRANCH   4   6
ATOM      5  N   UNL     1      -0.574  -0.738  -0.588  0.00  0.00    -0.282 N 
ATOM      6  C   UNL     1       0.711  -1.143  -0.563  0.00  0.00    +0.255 C 
ATOM      7  O   UNL     1       0.974  -2.328  -0.567  0.00  0.00    -0.272 OA
ATOM      8  H   UNL     1      -0.787   0.204  -0.499  0.00  0.00    +0.155 HD
BRANCH   5  15
ATOM      9  C   UNL     1      -3.041  -0.261   0.747  0.00  0.00    +0.046 C 
ATOM     10  C   UNL     1      -2.821  -1.482  -0.107  0.00  0.00    -0.028 A 
ATOM     11  C   UNL     1      -3.834  -2.408  -0.264  0.00  0.00    +0.019 A 
ATOM     12  C   UNL     1      -3.631  -3.533  -1.042  0.00  0.00    +0.014 A 
ATOM     13  C   UNL     1      -2.414  -3.731  -1.671  0.00  0.00    +0.016 A 
ATOM     14  C   UNL     1      -1.399  -2.807  -1.522  0.00  0.00    +0.024 A 
ATOM     15  C   UNL     1      -1.601  -1.677  -0.741  0.00  0.00    +0.036 A 
ATOM     16  I   UNL     1      -5.167  -4.938  -1.270  0.00  0.00    -0.044 I 
ENDBRANCH   5  15
ENDBRANCH   4   6
ENDBRANCH   3   4
ENDBRANCH   1   3
BRANCH   1  17
ATOM     17  C   UNL     1       5.569  -0.676  -0.477  0.00  0.00    +0.122 C 
BRANCH  17  18
ATOM     18  C   UNL     1       6.641   0.415  -0.451  0.00  0.00    +0.030 C 
BRANCH  18  19
ATOM     19  C   UNL     1       8.027  -0.232  -0.432  0.00  0.00    +0.102 C 
BRANCH  19  20
ATOM     20  N   UNL     1       9.053   0.813  -0.407  0.00  0.00    -0.342 N 
ATOM     21  H   UNL     1       8.794   1.748  -0.405  0.00  0.00    +0.146 HD
BRANCH  20  22
ATOM     22  C   UNL     1      10.406   0.464  -0.387  0.00  0.00    +0.058 A 
ATOM     23  C   UNL     1      10.782  -0.869  -0.498  0.00  0.00    +0.025 A 
ATOM     24  C   UNL     1      12.120  -1.211  -0.483  0.00  0.00    +0.002 A 
ATOM     25  C   UNL     1      13.084  -0.229  -0.346  0.00  0.00    +0.002 A 
ATOM     26  C   UNL     1      12.713   1.097  -0.229  0.00  0.00    +0.034 A 
ATOM     27  C   UNL     1      11.377   1.447  -0.249  0.00  0.00    +0.147 A 
BRANCH  27  28
ATOM     28  N   UNL     1      10.980   2.867  -0.124  0.00  0.00    +0.058 N 
ATOM     29  O   UNL     1      11.662   3.737  -0.636  0.00  0.00    -0.126 OA
ATOM     30  O   UNL     1       9.973   3.166   0.492  0.00  0.00    -0.126 OA
ENDBRANCH  27  28
ENDBRANCH  20  22
ENDBRANCH  19  20
ENDBRANCH  18  19
ENDBRANCH  17  18
ENDBRANCH   1  17
TORSDOF 10
