REMARK  Name = ZINC09188822
REMARK  13 active torsions:
REMARK  status: ('A' for Active; 'I' for Inactive)
REMARK    1  A    between atoms: C_1  and  C_2
REMARK    2  A    between atoms: C_2  and  C_3
REMARK    3  A    between atoms: C_2  and  C_4
REMARK    4  A    between atoms: C_2  and  C_5
REMARK    5  A    between atoms: C_7  and  C_16
REMARK    6  A    between atoms: C_9  and  C_12
REMARK    7  A    between atoms: C_10  and  O_11
REMARK    8  A    between atoms: C_12  and  C_13
REMARK    9  A    between atoms: C_12  and  C_14
REMARK   10  A    between atoms: C_12  and  C_15
REMARK   11  A    between atoms: N_20  and  C_24
REMARK   12  A    between atoms: C_27  and  O_30
REMARK   13  A    between atoms: O_30  and  C_31
REMARK                            x       y       z     vdW  Elec       q    Type
REMARK                         _______ _______ _______ _____ _____    ______ ____
ROOT
ATOM      1  C   UNL     1      -8.980  -1.923   0.340  0.00  0.00    +0.028 C 
ATOM      2  C   UNL     1      -8.617  -0.680  -0.067  0.00  0.00    +0.077 C 
ATOM      3  C   UNL     1      -7.289  -0.035  -0.054  0.00  0.00    +0.263 C 
ATOM      4  O   UNL     1      -6.302  -0.614   0.362  0.00  0.00    -0.269 OA
ATOM      5  N   UNL     1      -7.226   1.203  -0.513  0.00  0.00    -0.224 N 
ATOM      6  C   UNL     1      -8.321   1.838  -0.978  0.00  0.00    +0.125 C 
ATOM      7  S   UNL     1      -8.441   3.424  -1.613  0.00  0.00    -0.027 S 
ATOM      8  S   UNL     1      -9.616   0.626  -0.771  0.00  0.00    -0.061 S 
ENDROOT
BRANCH   1  11
ATOM      9  C   UNL     1     -12.108  -3.953   0.711  0.00  0.00    +0.000 A 
ATOM     10  C   UNL     1     -10.775  -3.616   0.649  0.00  0.00    +0.015 A 
ATOM     11  C   UNL     1     -10.401  -2.288   0.406  0.00  0.00    -0.023 A 
ATOM     12  C   UNL     1     -11.387  -1.309   0.232  0.00  0.00    +0.015 A 
ATOM     13  C   UNL     1     -12.718  -1.658   0.289  0.00  0.00    +0.000 A 
ATOM     14  C   UNL     1     -13.083  -2.978   0.532  0.00  0.00    +0.124 A 
BRANCH   9  16
ATOM     15  C   UNL     1     -11.259  -6.244   1.132  0.00  0.00    +0.015 C 
ATOM     16  C   UNL     1     -12.512  -5.381   0.973  0.00  0.00    -0.009 C 
ATOM     17  C   UNL     1     -13.344  -5.448   2.255  0.00  0.00    +0.015 C 
ATOM     18  C   UNL     1     -13.343  -5.899  -0.203  0.00  0.00    +0.015 C 
ENDBRANCH   9  16
BRANCH  13  19
ATOM     19  C   UNL     1     -13.780  -0.607   0.096  0.00  0.00    -0.009 C 
ATOM     20  C   UNL     1     -13.117   0.749  -0.153  0.00  0.00    +0.015 C 
ATOM     21  C   UNL     1     -14.651  -0.978  -1.106  0.00  0.00    +0.015 C 
ATOM     22  C   UNL     1     -14.651  -0.526   1.351  0.00  0.00    +0.015 C 
ENDBRANCH  13  19
BRANCH  14  23
ATOM     23  O   UNL     1     -14.396  -3.315   0.594  0.00  0.00    -0.506 OA
ATOM     24  H   UNL     1     -14.777  -3.254   1.480  0.00  0.00    +0.292 HD
ENDBRANCH  14  23
ENDBRANCH   1  11
BRANCH   5  25
ATOM     25  C   UNL     1      -5.992   1.869  -0.523  0.00  0.00    +0.043 A 
ATOM     26  C   UNL     1      -5.401   2.253   0.674  0.00  0.00    +0.027 A 
ATOM     27  C   UNL     1      -4.186   2.908   0.664  0.00  0.00    +0.048 A 
ATOM     28  C   UNL     1      -3.555   3.183  -0.541  0.00  0.00    +0.129 A 
ATOM     29  C   UNL     1      -4.147   2.804  -1.737  0.00  0.00    +0.048 A 
ATOM     30  C   UNL     1      -5.360   2.144  -1.728  0.00  0.00    +0.027 A 
BRANCH  28  31
ATOM     31  O   UNL     1      -2.358   3.828  -0.550  0.00  0.00    -0.456 OA
BRANCH  31  32
ATOM     32  C   UNL     1      -1.790   4.102  -1.753  0.00  0.00    +0.128 A 
ATOM     33  C   UNL     1      -2.244   5.175  -2.507  0.00  0.00    +0.046 A 
ATOM     34  C   UNL     1      -1.668   5.448  -3.733  0.00  0.00    +0.004 A 
ATOM     35  C   UNL     1      -0.635   4.660  -4.204  0.00  0.00    +0.000 A 
ATOM     36  C   UNL     1      -0.178   3.593  -3.453  0.00  0.00    +0.004 A 
ATOM     37  C   UNL     1      -0.753   3.312  -2.229  0.00  0.00    +0.046 A 
ENDBRANCH  31  32
ENDBRANCH  28  31
ENDBRANCH   5  25
TORSDOF 7
