REMARK  Name = ZINC13130136
REMARK  10 active torsions:
REMARK  status: ('A' for Active; 'I' for Inactive)
REMARK    1  A    between atoms: C_1  and  C_2
REMARK    2  A    between atoms: C_9  and  N_14
REMARK    3  A    between atoms: C_10  and  C_11
REMARK    4  A    between atoms: C_15  and  C_17
REMARK    5  A    between atoms: C_17  and  C_19
REMARK    6  A    between atoms: C_17  and  N_23
REMARK    7  A    between atoms: C_19  and  C_20
REMARK    8  A    between atoms: C_20  and  S_21
REMARK    9  A    between atoms: S_21  and  C_22
REMARK   10  A    between atoms: C_24  and  C_26
REMARK                            x       y       z     vdW  Elec       q    Type
REMARK                         _______ _______ _______ _____ _____    ______ ____
ROOT
ATOM      1  N   UNL     1       4.609   0.894   4.420  0.00  0.00    -0.278 N 
ATOM      2  C   UNL     1       5.894   1.103   4.068  0.00  0.00    +0.238 C 
ATOM      3  O   UNL     1       6.168   1.399   2.924  0.00  0.00    -0.273 OA
ATOM      4  H   UNL     1       4.390   0.657   5.334  0.00  0.00    +0.155 HD
ENDROOT
BRANCH   1  12
ATOM      5  C   UNL     1      -0.758   1.595  -1.227  0.00  0.00    +0.008 C 
ATOM      6  C   UNL     1      -0.013   1.086   0.008  0.00  0.00    -0.009 C 
ATOM      7  C   UNL     1      -0.714   1.583   1.276  0.00  0.00    +0.008 C 
ATOM      8  C   UNL     1      -0.129   0.881   2.503  0.00  0.00    +0.037 C 
ATOM      9  C   UNL     1       1.387   1.034   2.479  0.00  0.00    -0.023 A 
ATOM     10  C   UNL     1       2.035   1.365   1.342  0.00  0.00    -0.004 A 
ATOM     11  S   UNL     1       3.745   1.426   1.797  0.00  0.00    -0.077 S 
ATOM     12  C   UNL     1       3.602   1.017   3.475  0.00  0.00    +0.084 A 
ATOM     13  C   UNL     1       2.236   0.844   3.643  0.00  0.00    +0.068 A 
ATOM     14  C   UNL     1       1.427   1.620  -0.003  0.00  0.00    +0.046 C 
BRANCH  13  15
ATOM     15  C   UNL     1       1.670   0.482   4.946  0.00  0.00    +0.244 C 
ATOM     16  O   UNL     1       1.336   1.354   5.727  0.00  0.00    -0.270 OA
ATOM     17  N   UNL     1       1.521  -0.815   5.280  0.00  0.00    -0.325 N 
ATOM     18  H   UNL     1       1.787  -1.509   4.657  0.00  0.00    +0.145 HD
ATOM     19  H   UNL     1       1.147  -1.054   6.142  0.00  0.00    +0.145 HD
ENDBRANCH  13  15
ENDBRANCH   1  12
BRANCH   2  20
ATOM     20  C   UNL     1       6.988   0.969   5.095  0.00  0.00    +0.160 C 
BRANCH  20  21
ATOM     21  N   UNL     1       8.283   1.244   4.467  0.00  0.00    -0.300 N 
ATOM     22  C   UNL     1       9.410   0.723   4.991  0.00  0.00    +0.246 C 
ATOM     23  O   UNL     1       9.352   0.024   5.984  0.00  0.00    -0.270 OA
ATOM     24  H   UNL     1       8.329   1.802   3.675  0.00  0.00    +0.150 HD
BRANCH  22  25
ATOM     25  C   UNL     1      10.716   1.000   4.359  0.00  0.00    +0.055 A 
ATOM     26  C   UNL     1      10.786   1.802   3.218  0.00  0.00    +0.016 A 
ATOM     27  C   UNL     1      12.007   2.058   2.632  0.00  0.00    +0.021 A 
ATOM     28  C   UNL     1      13.165   1.521   3.172  0.00  0.00    +0.042 A 
ATOM     29  C   UNL     1      13.103   0.725   4.303  0.00  0.00    +0.040 A 
ATOM     30  C   UNL     1      11.886   0.465   4.903  0.00  0.00    +0.054 A 
ATOM     31 CL   UNL     1      11.811  -0.527   6.325  0.00  0.00    -0.083 Cl
ATOM     32 CL   UNL     1      14.698   1.848   2.428  0.00  0.00    -0.083 Cl
ENDBRANCH  22  25
ENDBRANCH  20  21
BRANCH  20  33
ATOM     33  C   UNL     1       6.748   1.968   6.229  0.00  0.00    +0.042 C 
BRANCH  33  34
ATOM     34  C   UNL     1       7.787   1.748   7.330  0.00  0.00    +0.071 C 
BRANCH  34  35
ATOM     35  S   UNL     1       7.503   2.932   8.675  0.00  0.00    -0.164 S 
ATOM     36  C   UNL     1       8.799   2.543   9.883  0.00  0.00    +0.084 C 
ENDBRANCH  34  35
ENDBRANCH  33  34
ENDBRANCH  20  33
ENDBRANCH   2  20
TORSDOF 8
