REMARK  Name = ZINC38803466
REMARK  7 active torsions:
REMARK  status: ('A' for Active; 'I' for Inactive)
REMARK    1  A    between atoms: C_1  and  C_2
REMARK    2  A    between atoms: C_2  and  C_4
REMARK    3  A    between atoms: C_2  and  S_17
REMARK    4  A    between atoms: S_17  and  C_18
REMARK    5  A    between atoms: C_21  and  C_29
REMARK    6  A    between atoms: N_22  and  C_23
REMARK    7  A    between atoms: C_29  and  N_30
REMARK                            x       y       z     vdW  Elec       q    Type
REMARK                         _______ _______ _______ _____ _____    ______ ____
ROOT
ATOM      1  C   UNL     1       2.503  -0.309  -1.342  0.00  0.00    +0.197 A 
ATOM      2  N   UNL     1       3.054   0.260  -0.294  0.00  0.00    -0.122 NA
ATOM      3  N   UNL     1       4.318   0.396  -0.484  0.00  0.00    -0.135 NA
ATOM      4  C   UNL     1       4.649  -0.072  -1.654  0.00  0.00    +0.122 A 
ATOM      5  N   UNL     1       3.506  -0.545  -2.242  0.00  0.00    -0.276 N 
ENDROOT
BRANCH   5   6
ATOM      6  C   UNL     1       3.387  -1.143  -3.505  0.00  0.00    +0.050 A 
ATOM      7  C   UNL     1       3.994  -2.366  -3.755  0.00  0.00    +0.026 A 
ATOM      8  C   UNL     1       3.876  -2.953  -5.000  0.00  0.00    +0.002 A 
ATOM      9  C   UNL     1       3.153  -2.323  -5.996  0.00  0.00    +0.000 A 
ATOM     10  C   UNL     1       2.548  -1.105  -5.750  0.00  0.00    +0.002 A 
ATOM     11  C   UNL     1       2.658  -0.516  -4.506  0.00  0.00    +0.026 A 
ENDBRANCH   5   6
BRANCH   1  12
ATOM     12  S   UNL     1       0.797  -0.701  -1.546  0.00  0.00    -0.073 S 
BRANCH  12  14
ATOM     13  C   UNL     1       0.151   1.391   0.094  0.00  0.00    +0.029 C 
ATOM     14  C   UNL     1       0.029  -0.131  -0.005  0.00  0.00    +0.137 C 
BRANCH  14  15
ATOM     15  C   UNL     1      -1.427  -0.520   0.004  0.00  0.00    +0.230 C 
ATOM     16  O   UNL     1      -1.991  -0.783  -1.037  0.00  0.00    -0.274 OA
ATOM     17  N   UNL     1      -2.103  -0.575   1.169  0.00  0.00    -0.285 N 
ATOM     18  C   UNL     1      -2.720  -1.686   1.521  0.00  0.00    +0.036 C 
ATOM     19  C   UNL     1      -2.558  -2.903   0.716  0.00  0.00    +0.025 C 
ATOM     20  C   UNL     1      -3.185  -4.042   1.070  0.00  0.00    +0.032 C 
ATOM     21  C   UNL     1      -4.033  -4.073   2.265  0.00  0.00    +0.095 C 
ATOM     22  N   UNL     1      -4.757  -5.005   2.856  0.00  0.00    -0.190 NA
ATOM     23  C   UNL     1      -5.348  -4.484   3.944  0.00  0.00    +0.369 C 
ATOM     24  O   UNL     1      -6.161  -5.178   4.776  0.00  0.00    -0.243 OA
ATOM     25  N   UNL     1      -5.037  -3.218   4.101  0.00  0.00    -0.190 NA
ATOM     26  C   UNL     1      -4.203  -2.856   3.083  0.00  0.00    +0.097 C 
ATOM     27  C   UNL     1      -3.569  -1.709   2.732  0.00  0.00    +0.053 C 
ATOM     28  H   UNL     1      -2.136   0.203   1.747  0.00  0.00    +0.155 HD
ENDBRANCH  14  15
ENDBRANCH  12  14
ENDBRANCH   1  12
BRANCH   4  29
ATOM     29  C   UNL     1       6.034  -0.096  -2.247  0.00  0.00    -0.001 C 
BRANCH  29  30
ATOM     30  N   UNL     1       6.704  -1.350  -1.879  0.00  0.00    +0.384 N 
ATOM     31  C   UNL     1       6.894  -1.393  -0.424  0.00  0.00    -0.078 C 
ATOM     32  C   UNL     1       7.518  -2.732  -0.026  0.00  0.00    -0.019 C 
ATOM     33  C   UNL     1       8.872  -2.886  -0.725  0.00  0.00    -0.004 C 
ATOM     34  C   UNL     1       8.671  -2.766  -2.238  0.00  0.00    -0.019 C 
ATOM     35  C   UNL     1       8.005  -1.425  -2.554  0.00  0.00    -0.078 C 
ATOM     36  H   UNL     1       6.132  -2.131  -2.164  0.00  0.00    -0.081 HD
ENDBRANCH  29  30
ENDBRANCH   4  29
TORSDOF 6
