REMARK  Name = ZINC09135580
REMARK  7 active torsions:
REMARK  status: ('A' for Active; 'I' for Inactive)
REMARK    1  A    between atoms: C_1  and  N_2
REMARK    2  A    between atoms: C_10  and  C_12
REMARK    3  A    between atoms: C_12  and  C_14
REMARK    4  A    between atoms: C_12  and  N_60
REMARK    5  A    between atoms: C_14  and  N_15
REMARK    6  A    between atoms: C_16  and  C_18
REMARK    7  A    between atoms: N_20  and  C_21
REMARK                            x       y       z     vdW  Elec       q    Type
REMARK                         _______ _______ _______ _____ _____    ______ ____
ROOT
ATOM      1  C   UNL     1       2.683  -2.653   4.296  0.00  0.00    -0.020 C 
ENDROOT
BRANCH   1  11
ATOM      2  C   UNL     1       0.065  -0.984  -1.205  0.00  0.00    +0.129 C 
ATOM      3  N   UNL     1       0.877  -0.051  -0.413  0.00  0.00    -0.333 N 
ATOM      4  C   UNL     1       0.165   1.210  -0.195  0.00  0.00    +0.105 C 
ATOM      5  C   UNL     1       1.047   2.131   0.658  0.00  0.00    +0.024 C 
ATOM      6  C   UNL     1       1.143   1.524   2.060  0.00  0.00    +0.038 C 
ATOM      7  C   UNL     1       1.458   0.053   1.955  0.00  0.00    -0.026 A 
ATOM      8  C   UNL     1       1.312  -0.646   0.770  0.00  0.00    +0.033 A 
ATOM      9  C   UNL     1       1.610  -2.009   0.737  0.00  0.00    +0.023 A 
ATOM     10  C   UNL     1       2.050  -2.655   1.873  0.00  0.00    +0.004 A 
ATOM     11  C   UNL     1       2.199  -1.950   3.054  0.00  0.00    -0.059 A 
ATOM     12  C   UNL     1       1.904  -0.602   3.092  0.00  0.00    +0.007 A 
ENDBRANCH   1  11
BRANCH   1  17
ATOM     13  C   UNL     1       2.082  -4.421   5.859  0.00  0.00    -0.078 C 
ATOM     14  C   UNL     1       0.870  -5.373   6.013  0.00  0.00    -0.020 C 
ATOM     15  C   UNL     1      -0.250  -4.635   5.243  0.00  0.00    -0.020 C 
ATOM     16  C   UNL     1       0.484  -3.687   4.277  0.00  0.00    -0.078 C 
ATOM     17  N   UNL     1       1.914  -3.920   4.485  0.00  0.00    +0.385 N 
ATOM     18  H   UNL     1       2.252  -4.622   3.816  0.00  0.00    -0.081 HD
ENDBRANCH   1  17
BRANCH   1  19
ATOM     19  C   UNL     1       4.174  -2.966   4.156  0.00  0.00    +0.094 C 
BRANCH  19  20
ATOM     20  N   UNL     1       4.699  -3.426   5.444  0.00  0.00    -0.309 N 
ATOM     21  C   UNL     1       5.953  -3.913   5.526  0.00  0.00    +0.299 C 
ATOM     22  O   UNL     1       6.647  -3.970   4.532  0.00  0.00    -0.265 OA
ATOM     23  H   UNL     1       4.144  -3.380   6.239  0.00  0.00    +0.149 HD
BRANCH  21  24
ATOM     24  C   UNL     1       6.488  -4.381   6.839  0.00  0.00    +0.303 C 
ATOM     25  O   UNL     1       5.794  -4.324   7.833  0.00  0.00    -0.265 OA
ATOM     26  N   UNL     1       7.742  -4.868   6.921  0.00  0.00    -0.275 N 
ATOM     27  H   UNL     1       8.323  -4.846   6.144  0.00  0.00    +0.155 HD
BRANCH  26  28
ATOM     28  C   UNL     1       8.207  -5.404   8.126  0.00  0.00    +0.069 A 
ATOM     29  C   UNL     1       7.307  -5.900   9.060  0.00  0.00    +0.026 A 
ATOM     30  C   UNL     1       7.770  -6.434  10.247  0.00  0.00    +0.002 A 
ATOM     31  C   UNL     1       9.127  -6.466  10.511  0.00  0.00    +0.003 A 
ATOM     32  C   UNL     1      10.027  -5.968   9.587  0.00  0.00    +0.040 A 
ATOM     33  C   UNL     1       9.572  -5.437   8.394  0.00  0.00    +0.144 A 
ATOM     34  F   UNL     1      10.451  -4.950   7.491  0.00  0.00    -0.204 F 
ENDBRANCH  26  28
ENDBRANCH  21  24
ENDBRANCH  19  20
ENDBRANCH   1  19
TORSDOF 6
