REMARK  Name = ZINC05263602
REMARK  7 active torsions:
REMARK  status: ('A' for Active; 'I' for Inactive)
REMARK    1  A    between atoms: C_1  and  N_2
REMARK    2  A    between atoms: C_6  and  C_7
REMARK    3  A    between atoms: C_10  and  C_12
REMARK    4  A    between atoms: C_12  and  S_13
REMARK    5  A    between atoms: S_13  and  C_14
REMARK    6  A    between atoms: C_17  and  C_20
REMARK    7  A    between atoms: N_18  and  N_19
REMARK                            x       y       z     vdW  Elec       q    Type
REMARK                         _______ _______ _______ _____ _____    ______ ____
ROOT
ATOM      1  S   UNL     1       3.553   7.990   0.347  0.00  0.00    -0.075 S 
ENDROOT
BRANCH   1   2
ATOM      2  C   UNL     1       2.192   6.898   0.102  0.00  0.00    +0.209 A 
ATOM      3  N   UNL     1       0.965   7.242  -0.217  0.00  0.00    -0.121 NA
ATOM      4  N   UNL     1       0.226   6.196  -0.323  0.00  0.00    -0.126 NA
ATOM      5  C   UNL     1       0.934   5.118  -0.069  0.00  0.00    +0.188 A 
ATOM      6  N   UNL     1       2.217   5.535   0.208  0.00  0.00    -0.223 N 
BRANCH   5   7
ATOM      7  C   UNL     1       0.449   3.728  -0.084  0.00  0.00    +0.058 A 
ATOM      8  C   UNL     1      -0.842   3.263  -0.074  0.00  0.00    +0.019 A 
ATOM      9  C   UNL     1      -1.054   1.903  -0.097  0.00  0.00    +0.008 A 
ATOM     10  C   UNL     1       0.016   1.066  -0.119  0.00  0.00    +0.046 A 
ATOM     11  S   UNL     1       1.387   2.210  -0.119  0.00  0.00    -0.093 S 
ENDBRANCH   5   7
BRANCH   6  12
ATOM     12  N   UNL     1       3.290   4.750   0.522  0.00  0.00    -0.295 N 
ATOM     13  H   UNL     1       3.793   4.476  -0.309  0.00  0.00    +0.163 HD
ATOM     14  H   UNL     1       3.900   5.217   1.176  0.00  0.00    +0.163 HD
ENDBRANCH   6  12
ENDBRANCH   1   2
BRANCH   1  15
ATOM     15  C   UNL     1       2.742   9.578   0.037  0.00  0.00    +0.173 C 
BRANCH  15  19
ATOM     16  C   UNL     1       4.258  12.969   0.150  0.00  0.00    +0.267 C 
ATOM     17  O   UNL     1       5.385  12.724   0.537  0.00  0.00    -0.268 OA
ATOM     18  N   UNL     1       3.362  11.972   0.009  0.00  0.00    -0.250 N 
ATOM     19  C   UNL     1       3.743  10.693   0.194  0.00  0.00    +0.230 C 
ATOM     20  O   UNL     1       4.892  10.439   0.487  0.00  0.00    -0.274 OA
ATOM     21  H   UNL     1       2.443  12.175  -0.225  0.00  0.00    +0.158 HD
BRANCH  16  27
ATOM     22  C   UNL     1       6.132  15.435   0.176  0.00  0.00    +0.149 C 
ATOM     23  N   UNL     1       4.704  15.447  -0.152  0.00  0.00    -0.346 N 
ATOM     24  C   UNL     1       3.986  16.536  -0.498  0.00  0.00    +0.086 A 
ATOM     25  C   UNL     1       2.703  16.164  -0.724  0.00  0.00    +0.020 A 
ATOM     26  C   UNL     1       2.614  14.784  -0.516  0.00  0.00    +0.032 A 
ATOM     27  C   UNL     1       3.874  14.348  -0.163  0.00  0.00    +0.105 A 
ENDBRANCH  16  27
ENDBRANCH  15  19
ENDBRANCH   1  15
TORSDOF 6
