REMARK  Name = ZINC02489625
REMARK  6 active torsions:
REMARK  status: ('A' for Active; 'I' for Inactive)
REMARK    1  A    between atoms: C_4  and  N_19
REMARK    2  A    between atoms: C_6  and  C_7
REMARK    3  A    between atoms: C_8  and  C_17
REMARK    4  A    between atoms: C_9  and  N_16
REMARK    5  A    between atoms: C_11  and  N_15
REMARK    6  A    between atoms: C_12  and  C_13
REMARK                            x       y       z     vdW  Elec       q    Type
REMARK                         _______ _______ _______ _____ _____    ______ ____
ROOT
ATOM      1  C   UNL     1       1.149   3.593   0.010  0.00  0.00    +0.104 C 
ATOM      2  C   UNL     1       0.491   4.053   1.264  0.00  0.00    +0.069 C 
ATOM      3  C   UNL     1      -0.796   4.410   1.388  0.00  0.00    +0.079 C 
ATOM      4  S   UNL     1      -1.927   4.395   0.046  0.00  0.00    -0.058 S 
ATOM      5  C   UNL     1      -0.825   4.423  -1.319  0.00  0.00    +0.079 C 
ATOM      6  C   UNL     1       0.468   4.066  -1.227  0.00  0.00    +0.069 C 
ENDROOT
BRANCH   1  12
ATOM      7  C   UNL     1      -0.017   1.378   0.010  0.00  0.00    +0.006 A 
ATOM      8  C   UNL     1       0.002  -0.004   0.002  0.00  0.00    +0.022 A 
ATOM      9  C   UNL     1       1.209  -0.679  -0.013  0.00  0.00    +0.071 A 
ATOM     10  C   UNL     1       2.398   0.030  -0.021  0.00  0.00    +0.145 A 
ATOM     11  C   UNL     1       2.378   1.412  -0.013  0.00  0.00    +0.038 A 
ATOM     12  C   UNL     1       1.171   2.086   0.002  0.00  0.00    -0.032 A 
ATOM     13 CL   UNL     1       1.234  -2.415  -0.022  0.00  0.00    -0.081 Cl
BRANCH  10  14
ATOM     14  N   UNL     1       3.690  -0.692  -0.037  0.00  0.00    +0.058 N 
ATOM     15  O   UNL     1       4.736  -0.067  -0.044  0.00  0.00    -0.126 OA
ATOM     16  O   UNL     1       3.707  -1.909  -0.045  0.00  0.00    -0.126 OA
ENDBRANCH  10  14
ENDBRANCH   1  12
BRANCH   5  17
ATOM     17  N   UNL     1      -1.306   4.828  -2.541  0.00  0.00    -0.352 N 
ATOM     18  H   UNL     1      -0.638   4.855  -3.414  0.00  0.00    +0.143 HD
ATOM     19  H   UNL     1      -2.360   5.125  -2.646  0.00  0.00    +0.143 HD
ENDBRANCH   5  17
BRANCH   3  20
ATOM     20  N   UNL     1      -1.253   4.803   2.624  0.00  0.00    -0.352 N 
ATOM     21  H   UNL     1      -2.304   5.100   2.753  0.00  0.00    +0.143 HD
ATOM     22  H   UNL     1      -0.566   4.821   3.483  0.00  0.00    +0.143 HD
ENDBRANCH   3  20
BRANCH   6  23
ATOM     23  C   UNL     1       1.256   4.148  -2.420  0.00  0.00    +0.098 C 
ATOM     24  N   UNL     1       1.882   4.213  -3.366  0.00  0.00    -0.191 NA
ENDBRANCH   6  23
BRANCH   2  25
ATOM     25  C   UNL     1       1.302   4.123   2.443  0.00  0.00    +0.098 C 
ATOM     26  N   UNL     1       1.945   4.178   3.377  0.00  0.00    -0.191 NA
ENDBRANCH   2  25
TORSDOF 6
