REMARK  Name = ZINC21971007
REMARK  8 active torsions:
REMARK  status: ('A' for Active; 'I' for Inactive)
REMARK    1  A    between atoms: C_1  and  C_2
REMARK    2  A    between atoms: C_3  and  C_13
REMARK    3  A    between atoms: C_4  and  C_12
REMARK    4  A    between atoms: C_9  and  C_10
REMARK    5  A    between atoms: C_13  and  C_14
REMARK    6  A    between atoms: C_14  and  C_15
REMARK    7  A    between atoms: N_17  and  N_18
REMARK    8  A    between atoms: C_19  and  C_21
REMARK                            x       y       z     vdW  Elec       q    Type
REMARK                         _______ _______ _______ _____ _____    ______ ____
ROOT
ATOM      1  C   UNL     1       4.172   5.318   1.426  0.00  0.00    +0.229 C 
ATOM      2  O   UNL     1       4.626   5.725   0.378  0.00  0.00    -0.274 OA
ATOM      3  N   UNL     1       4.808   5.587   2.584  0.00  0.00    -0.234 N 
ATOM      4  H   UNL     1       4.396   5.218   3.535  0.00  0.00    +0.173 HD
ENDROOT
BRANCH   3   5
ATOM      5  N   UNL     1       5.991   6.336   2.576  0.00  0.00    -0.230 N 
ATOM      6  C   UNL     1       6.627   6.604   3.735  0.00  0.00    +0.267 C 
ATOM      7  O   UNL     1       6.172   6.196   4.787  0.00  0.00    -0.268 OA
ATOM      8  H   UNL     1       6.403   6.705   1.625  0.00  0.00    +0.173 HD
BRANCH   6   9
ATOM      9  C   UNL     1       7.865   7.388   3.726  0.00  0.00    +0.076 A 
ATOM     10  C   UNL     1       8.663   7.771   4.790  0.00  0.00    +0.024 A 
ATOM     11  C   UNL     1       9.805   8.514   4.516  0.00  0.00    -0.036 A 
ATOM     12  C   UNL     1      10.025   8.830   3.220  0.00  0.00    -0.006 A 
ATOM     13  S   UNL     1       8.744   8.093   2.341  0.00  0.00    -0.088 S 
ATOM     14  C   UNL     1      11.159   9.669   2.675  0.00  0.00    +0.043 C 
ATOM     15  C   UNL     1      12.455   8.861   2.866  0.00  0.00    +0.005 C 
ATOM     16  C   UNL     1      12.928   8.962   4.297  0.00  0.00    +0.001 C 
ATOM     17  C   UNL     1      12.118   8.218   5.326  0.00  0.00    +0.005 C 
ATOM     18  C   UNL     1      10.788   8.913   5.623  0.00  0.00    +0.036 C 
ENDBRANCH   6   9
ENDBRANCH   3   5
BRANCH   1  19
ATOM     19  C   UNL     1       2.899   4.512   1.435  0.00  0.00    +0.102 C 
BRANCH  19  20
ATOM     20  C   UNL     1       2.387   4.353   0.002  0.00  0.00    +0.046 C 
BRANCH  20  23
ATOM     21  C   UNL     1       2.501   1.442  -0.013  0.00  0.00    +0.045 C 
ATOM     22  C   UNL     1       1.172   2.153   0.002  0.00  0.00    -0.023 A 
ATOM     23  C   UNL     1       1.113   3.547   0.010  0.00  0.00    -0.024 A 
ATOM     24  C   UNL     1      -0.087   4.178   0.024  0.00  0.00    +0.019 A 
ATOM     25  N   UNL     1      -1.248   3.480   0.032  0.00  0.00    -0.325 N 
ATOM     26  H   UNL     1      -2.211   4.013   0.048  0.00  0.00    +0.169 HD
ATOM     27  C   UNL     1      -1.249   2.133   0.019  0.00  0.00    +0.267 A 
ATOM     28  O   UNL     1      -2.304   1.522   0.021  0.00  0.00    -0.266 OA
ATOM     29  C   UNL     1      -0.017   1.428   0.010  0.00  0.00    +0.119 A 
ATOM     30  C   UNL     1      -0.131   5.685   0.033  0.00  0.00    +0.063 C 
BRANCH  29  31
ATOM     31  C   UNL     1       0.002  -0.004   0.002  0.00  0.00    +0.105 C 
ATOM     32  N   UNL     1       0.018  -1.140  -0.004  0.00  0.00    -0.191 NA
ENDBRANCH  29  31
ENDBRANCH  20  23
ENDBRANCH  19  20
ENDBRANCH   1  19
TORSDOF 6
