REMARK  Name = ZINC02806215
REMARK  11 active torsions:
REMARK  status: ('A' for Active; 'I' for Inactive)
REMARK    1  A    between atoms: C_1  and  C_2
REMARK    2  A    between atoms: C_3  and  C_31
REMARK    3  A    between atoms: C_4  and  N_11
REMARK    4  A    between atoms: C_6  and  C_7
REMARK    5  A    between atoms: C_7  and  O_9
REMARK    6  A    between atoms: O_9  and  C_10
REMARK    7  A    between atoms: C_12  and  C_14
REMARK    8  A    between atoms: C_14  and  S_15
REMARK    9  A    between atoms: S_15  and  C_16
REMARK   10  A    between atoms: C_18  and  C_26
REMARK   11  A    between atoms: C_20  and  C_22
REMARK                            x       y       z     vdW  Elec       q    Type
REMARK                         _______ _______ _______ _____ _____    ______ ____
ROOT
ATOM      1  N   UNL     1      -3.994   2.531   2.699  0.00  0.00    -0.279 N 
ATOM      2  C   UNL     1      -4.368   2.959   3.921  0.00  0.00    +0.228 C 
ATOM      3  O   UNL     1      -3.541   3.091   4.797  0.00  0.00    -0.275 OA
ATOM      4  H   UNL     1      -4.656   2.426   1.998  0.00  0.00    +0.155 HD
ENDROOT
BRANCH   1   8
ATOM      5  C   UNL     1      -0.013   1.086   0.008  0.00  0.00    +0.046 C 
ATOM      6  C   UNL     1      -0.718   1.572   1.248  0.00  0.00    -0.015 A 
ATOM      7  C   UNL     1      -2.085   1.797   1.253  0.00  0.00    +0.069 A 
ATOM      8  C   UNL     1      -2.667   2.243   2.444  0.00  0.00    +0.085 A 
ATOM      9  S   UNL     1      -1.313   2.351   3.521  0.00  0.00    -0.066 S 
ATOM     10  C   UNL     1      -0.029   1.812   2.407  0.00  0.00    +0.102 A 
BRANCH   7  11
ATOM     11  C   UNL     1      -2.897   1.571   0.050  0.00  0.00    +0.244 C 
ATOM     12  O   UNL     1      -3.396   0.479  -0.150  0.00  0.00    -0.270 OA
ATOM     13  N   UNL     1      -3.088   2.571  -0.832  0.00  0.00    -0.325 N 
ATOM     14  H   UNL     1      -2.690   3.442  -0.672  0.00  0.00    +0.145 HD
ATOM     15  H   UNL     1      -3.624   2.422  -1.627  0.00  0.00    +0.145 HD
ENDBRANCH   7  11
BRANCH  10  16
ATOM     16  C   UNL     1       1.402   1.663   2.667  0.00  0.00    +0.346 C 
ATOM     17  O   UNL     1       2.144   1.279   1.782  0.00  0.00    -0.244 OA
BRANCH  16  18
ATOM     18  O   UNL     1       1.900   1.951   3.887  0.00  0.00    -0.464 OA
ATOM     19  C   UNL     1       3.307   1.783   4.070  0.00  0.00    +0.280 C 
ENDBRANCH  16  18
ENDBRANCH  10  16
ENDBRANCH   1   8
BRANCH   2  20
ATOM     20  C   UNL     1      -5.816   3.273   4.198  0.00  0.00    +0.173 C 
BRANCH  20  21
ATOM     21  S   UNL     1      -5.996   3.819   5.915  0.00  0.00    -0.077 S 
BRANCH  21  22
ATOM     22  C   UNL     1      -7.733   4.111   5.962  0.00  0.00    +0.190 A 
ATOM     23  N   UNL     1      -8.286   4.532   7.089  0.00  0.00    -0.219 NA
ATOM     24  C   UNL     1      -9.597   4.767   7.154  0.00  0.00    +0.111 A 
ATOM     25  C   UNL     1     -10.383   4.549   6.015  0.00  0.00    +0.064 A 
ATOM     26  C   UNL     1      -9.762   4.103   4.863  0.00  0.00    +0.149 A 
ATOM     27  N   UNL     1      -8.454   3.897   4.870  0.00  0.00    -0.218 NA
BRANCH  24  28
ATOM     28  C   UNL     1     -10.212   5.243   8.409  0.00  0.00    +0.153 A 
ATOM     29  C   UNL     1      -9.557   5.485   9.577  0.00  0.00    +0.051 A 
ATOM     30  C   UNL     1     -10.525   5.922  10.501  0.00  0.00    +0.042 A 
ATOM     31  C   UNL     1     -11.712   5.919   9.861  0.00  0.00    +0.196 A 
ATOM     32  O   UNL     1     -11.519   5.508   8.598  0.00  0.00    -0.461 OA
ENDBRANCH  24  28
BRANCH  26  33
ATOM     33  C   UNL     1     -10.566   3.856   3.613  0.00  0.00    +0.434 C 
ATOM     34  F   UNL     1      -9.739   3.306   2.628  0.00  0.00    -0.164 F 
ATOM     35  F   UNL     1     -11.608   2.966   3.897  0.00  0.00    -0.164 F 
ATOM     36  F   UNL     1     -11.098   5.065   3.153  0.00  0.00    -0.164 F 
ENDBRANCH  26  33
ENDBRANCH  21  22
ENDBRANCH  20  21
ENDBRANCH   2  20
TORSDOF 9
