REMARK  Name = ZINC33121209
REMARK  13 active torsions:
REMARK  status: ('A' for Active; 'I' for Inactive)
REMARK    1  A    between atoms: C_1  and  C_2
REMARK    2  A    between atoms: C_2  and  C_3
REMARK    3  A    between atoms: C_2  and  C_4
REMARK    4  A    between atoms: C_4  and  N_5
REMARK    5  A    between atoms: N_5  and  C_6
REMARK    6  A    between atoms: C_6  and  C_7
REMARK    7  A    between atoms: C_7  and  C_8
REMARK    8  A    between atoms: C_7  and  C_9
REMARK    9  A    between atoms: C_10  and  C_12
REMARK   10  A    between atoms: C_14  and  N_24
REMARK   11  A    between atoms: C_17  and  N_18
REMARK   12  A    between atoms: N_24  and  S_25
REMARK   13  A    between atoms: S_25  and  C_28
REMARK                            x       y       z     vdW  Elec       q    Type
REMARK                         _______ _______ _______ _____ _____    ______ ____
ROOT
ATOM      1  C   UNL     1       1.239  -2.882   2.326  0.00  0.00    +0.060 A 
ATOM      2  C   UNL     1       2.215  -1.944   1.981  0.00  0.00    +0.039 A 
ATOM      3  C   UNL     1       1.886  -0.874   1.168  0.00  0.00    +0.049 A 
ATOM      4  C   UNL     1       0.585  -0.728   0.697  0.00  0.00    +0.026 A 
ATOM      5  C   UNL     1      -0.385  -1.652   1.028  0.00  0.00    +0.026 A 
ATOM      6  C   UNL     1      -0.070  -2.731   1.843  0.00  0.00    +0.042 A 
ENDROOT
BRANCH   6   7
ATOM      7  N   UNL     1      -1.049  -3.660   2.181  0.00  0.00    -0.333 N 
ATOM      8  C   UNL     1      -2.197  -3.005   2.823  0.00  0.00    +0.086 C 
ATOM      9  C   UNL     1      -3.214  -4.066   3.250  0.00  0.00    -0.063 C 
ATOM     10  N   UNL     1      -3.641  -4.833   2.071  0.00  0.00    +0.381 N 
ATOM     11  C   UNL     1      -2.493  -5.489   1.429  0.00  0.00    -0.063 C 
ATOM     12  C   UNL     1      -1.476  -4.427   1.003  0.00  0.00    +0.086 C 
ATOM     13  H   UNL     1      -4.363  -5.604   2.378  0.00  0.00    -0.086 HD
ATOM     14  H   UNL     1      -4.114  -4.156   1.345  0.00  0.00    -0.086 HD
ENDBRANCH   6   7
BRANCH   1  16
ATOM     15  N   UNL     1       2.203  -3.816   4.370  0.00  0.00    -0.297 N 
ATOM     16  C   UNL     1       1.582  -4.025   3.192  0.00  0.00    +0.248 C 
ATOM     17  O   UNL     1       1.306  -5.157   2.843  0.00  0.00    -0.270 OA
BRANCH  15  18
ATOM     18  C   UNL     1       2.431  -2.449   4.844  0.00  0.00    +0.111 C 
BRANCH  18  20
ATOM     19  C   UNL     1       1.584  -0.645   6.351  0.00  0.00    +0.009 C 
ATOM     20  C   UNL     1       1.322  -2.056   5.823  0.00  0.00    +0.000 C 
ATOM     21  C   UNL     1      -0.028  -2.089   5.103  0.00  0.00    +0.009 C 
ENDBRANCH  18  20
ENDBRANCH  15  18
BRANCH  15  22
ATOM     22  C   UNL     1       2.649  -4.955   5.175  0.00  0.00    +0.111 C 
BRANCH  22  23
ATOM     23  C   UNL     1       4.079  -5.330   4.781  0.00  0.00    +0.000 C 
ATOM     24  C   UNL     1       4.589  -6.437   5.705  0.00  0.00    +0.009 C 
ATOM     25  C   UNL     1       4.095  -5.827   3.334  0.00  0.00    +0.009 C 
ENDBRANCH  22  23
ENDBRANCH  15  22
ENDBRANCH   1  16
BRANCH   3  26
ATOM     26  N   UNL     1       2.863   0.067   0.822  0.00  0.00    -0.216 N 
ATOM     27  H   UNL     1       3.525   0.483   1.597  0.00  0.00    +0.174 HD
BRANCH  26  28
ATOM     28  S   UNL     1       3.023   0.555  -0.752  0.00  0.00    +0.075 S 
ATOM     29  O   UNL     1       4.161   1.405  -0.801  0.00  0.00    -0.150 OA
ATOM     30  O   UNL     1       1.736   0.980  -1.178  0.00  0.00    -0.150 OA
BRANCH  28  31
ATOM     31  C   UNL     1       3.421  -0.874  -1.702  0.00  0.00    +0.143 A 
ATOM     32  C   UNL     1       2.527  -1.350  -2.643  0.00  0.00    +0.032 A 
ATOM     33  C   UNL     1       2.840  -2.471  -3.389  0.00  0.00    +0.002 A 
ATOM     34  C   UNL     1       4.047  -3.117  -3.196  0.00  0.00    +0.003 A 
ATOM     35  C   UNL     1       4.944  -2.640  -2.259  0.00  0.00    +0.040 A 
ATOM     36  C   UNL     1       4.630  -1.521  -1.508  0.00  0.00    +0.150 A 
ATOM     37  F   UNL     1       5.505  -1.056  -0.589  0.00  0.00    -0.203 F 
ENDBRANCH  28  31
ENDBRANCH  26  28
ENDBRANCH   3  26
TORSDOF 9
