REMARK  Name = ZINC20725221
REMARK  9 active torsions:
REMARK  status: ('A' for Active; 'I' for Inactive)
REMARK    1  A    between atoms: C_1  and  C_2
REMARK    2  A    between atoms: C_2  and  C_3
REMARK    3  A    between atoms: C_3  and  C_5
REMARK    4  A    between atoms: C_3  and  C_6
REMARK    5  A    between atoms: C_6  and  C_8
REMARK    6  A    between atoms: C_6  and  N_12
REMARK    7  A    between atoms: C_8  and  O_10
REMARK    8  A    between atoms: O_10  and  C_11
REMARK    9  A    between atoms: C_24  and  C_26
REMARK                            x       y       z     vdW  Elec       q    Type
REMARK                         _______ _______ _______ _____ _____    ______ ____
ROOT
ATOM      1  N   UNL     1      -0.551  -2.156  -3.963  0.00  0.00    -0.286 N 
ATOM      2  C   UNL     1      -1.240  -2.435  -2.839  0.00  0.00    +0.304 C 
ATOM      3  O   UNL     1      -0.670  -2.451  -1.765  0.00  0.00    -0.253 OA
ATOM      4  N   UNL     1      -2.560  -2.698  -2.905  0.00  0.00    -0.273 N 
ATOM      5  C   UNL     1      -3.351  -2.898  -1.681  0.00  0.00    +0.116 C 
ATOM      6  C   UNL     1      -3.882  -4.337  -1.655  0.00  0.00    +0.076 C 
ATOM      7  C   UNL     1      -4.438  -4.677  -3.015  0.00  0.00    +0.066 A 
ATOM      8  C   UNL     1      -4.155  -3.995  -4.146  0.00  0.00    +0.064 A 
ATOM      9  N   UNL     1      -4.832  -4.598  -5.160  0.00  0.00    -0.346 N 
ATOM     10  H   UNL     1      -4.827  -4.335  -6.094  0.00  0.00    +0.167 HD
ATOM     11  C   UNL     1      -5.516  -5.632  -4.618  0.00  0.00    +0.197 A 
ATOM     12  N   UNL     1      -5.273  -5.670  -3.334  0.00  0.00    -0.240 NA
ATOM     13  C   UNL     1      -3.250  -2.785  -4.205  0.00  0.00    +0.159 C 
ATOM     14  H   UNL     1      -0.989  -2.215  -4.827  0.00  0.00    +0.151 HD
ENDROOT
BRANCH  13  15
ATOM     15  C   UNL     1      -4.067  -1.540  -4.437  0.00  0.00    +0.017 A 
ATOM     16  C   UNL     1      -5.439  -1.572  -4.272  0.00  0.00    +0.009 A 
ATOM     17  C   UNL     1      -6.189  -0.431  -4.484  0.00  0.00    +0.003 A 
ATOM     18  C   UNL     1      -5.569   0.746  -4.862  0.00  0.00    +0.041 A 
ATOM     19  C   UNL     1      -4.196   0.781  -5.027  0.00  0.00    +0.159 A 
ATOM     20  C   UNL     1      -3.442  -0.362  -4.809  0.00  0.00    +0.164 A 
ATOM     21  F   UNL     1      -2.101  -0.328  -4.965  0.00  0.00    -0.202 F 
ATOM     22  F   UNL     1      -3.589   1.931  -5.397  0.00  0.00    -0.202 F 
ENDBRANCH  13  15
BRANCH   1  23
ATOM     23  C   UNL     1       0.858  -1.764  -3.881  0.00  0.00    +0.186 C 
BRANCH  23  24
ATOM     24  C   UNL     1       1.734  -3.018  -3.832  0.00  0.00    +0.017 C 
ATOM     25  C   UNL     1       3.194  -2.612  -3.620  0.00  0.00    +0.010 C 
BRANCH  24  27
ATOM     26  C   UNL     1       2.379  -5.099  -5.054  0.00  0.00    +0.004 C 
ATOM     27  C   UNL     1       1.603  -3.784  -5.149  0.00  0.00    +0.002 C 
ENDBRANCH  24  27
ENDBRANCH  23  24
BRANCH  23  28
ATOM     28  C   UNL     1       1.222  -0.944  -5.092  0.00  0.00    +0.328 C 
ATOM     29  O   UNL     1       0.391  -0.711  -5.937  0.00  0.00    -0.249 OA
BRANCH  28  30
ATOM     30  O   UNL     1       2.471  -0.473  -5.232  0.00  0.00    -0.467 OA
ATOM     31  C   UNL     1       2.747   0.297  -6.404  0.00  0.00    +0.280 C 
ENDBRANCH  28  30
ENDBRANCH  23  28
ENDBRANCH   1  23
TORSDOF 6
