REMARK  Name = ZINC12454719
REMARK  6 active torsions:
REMARK  status: ('A' for Active; 'I' for Inactive)
REMARK    1  A    between atoms: C_4  and  C_7
REMARK    2  A    between atoms: C_7  and  C_8
REMARK    3  A    between atoms: N_10  and  C_11
REMARK    4  A    between atoms: C_20  and  O_22
REMARK    5  A    between atoms: C_27  and  C_28
REMARK    6  A    between atoms: C_27  and  N_69
REMARK                            x       y       z     vdW  Elec       q    Type
REMARK                         _______ _______ _______ _____ _____    ______ ____
ROOT
ATOM      1  C   UNL     1      -2.449   1.117   0.020  0.00  0.00    +0.133 C 
ATOM      2  C   UNL     1      -2.862   0.780  -1.397  0.00  0.00    -0.021 A 
ATOM      3  C   UNL     1      -2.114   0.302  -2.460  0.00  0.00    +0.006 A 
ATOM      4  C   UNL     1      -2.714   0.062  -3.681  0.00  0.00    +0.000 A 
ATOM      5  C   UNL     1      -4.066   0.302  -3.844  0.00  0.00    +0.000 A 
ATOM      6  C   UNL     1      -4.814   0.780  -2.786  0.00  0.00    +0.004 A 
ATOM      7  C   UNL     1      -4.215   1.020  -1.560  0.00  0.00    -0.034 A 
ATOM      8  C   UNL     1      -4.797   1.533  -0.265  0.00  0.00    +0.021 C 
ATOM      9  C   UNL     1      -3.593   1.992   0.578  0.00  0.00    +0.149 C 
ATOM     10  C   UNL     1      -5.546   0.417   0.460  0.00  0.00    -0.005 C 
ATOM     11  C   UNL     1      -6.147   0.971   1.755  0.00  0.00    -0.077 C 
ATOM     12  C   UNL     1      -6.327   3.191   0.798  0.00  0.00    -0.077 C 
ATOM     13  C   UNL     1      -5.730   2.712  -0.529  0.00  0.00    -0.005 C 
ATOM     14  N   UNL     1      -7.072   2.075   1.419  0.00  0.00    +0.383 N 
ATOM     15  H   UNL     1      -7.772   1.731   0.752  0.00  0.00    -0.081 HD
ENDROOT
BRANCH   1  18
ATOM     16  C   UNL     1      -0.014   1.209   0.009  0.00  0.00    +0.218 C 
ATOM     17  O   UNL     1       0.002  -0.004   0.002  0.00  0.00    -0.275 OA
ATOM     18  N   UNL     1      -1.191   1.867   0.018  0.00  0.00    -0.306 N 
ATOM     19  H   UNL     1      -1.204   2.837   0.023  0.00  0.00    +0.149 HD
BRANCH  16  20
ATOM     20  C   UNL     1       1.280   1.980   0.001  0.00  0.00    +0.130 C 
BRANCH  20  24
ATOM     21  C   UNL     1       4.565  -0.751  -0.046  0.00  0.00    +0.000 A 
ATOM     22  C   UNL     1       4.021  -0.303  -1.235  0.00  0.00    +0.000 A 
ATOM     23  C   UNL     1       2.959   0.581  -1.220  0.00  0.00    +0.004 A 
ATOM     24  C   UNL     1       2.439   1.016  -0.016  0.00  0.00    -0.039 A 
ATOM     25  C   UNL     1       2.985   0.572   1.174  0.00  0.00    +0.004 A 
ATOM     26  C   UNL     1       4.045  -0.315   1.159  0.00  0.00    +0.000 A 
ENDBRANCH  20  24
ENDBRANCH  16  20
ENDBRANCH   1  18
BRANCH   9  27
ATOM     27  O   UNL     1      -3.810   1.722   1.964  0.00  0.00    -0.389 OA
ATOM     28  H   UNL     1      -3.047   1.912   2.526  0.00  0.00    +0.210 HD
ENDBRANCH   9  27
BRANCH  14  29
ATOM     29  C   UNL     1      -7.760   2.546   2.638  0.00  0.00    -0.024 C 
BRANCH  29  30
ATOM     30  C   UNL     1      -8.283   1.355   3.400  0.00  0.00    +0.009 A 
ATOM     31  C   UNL     1      -7.664   0.740   4.428  0.00  0.00    +0.021 A 
ATOM     32  C   UNL     1      -8.493  -0.318   4.850  0.00  0.00    +0.020 A 
ATOM     33  C   UNL     1      -9.585  -0.318   4.059  0.00  0.00    +0.093 A 
ATOM     34  N   UNL     1      -9.463   0.708   3.165  0.00  0.00    -0.307 N 
ATOM     35  C   UNL     1     -10.392   1.041   2.175  0.00  0.00    +0.138 A 
ATOM     36  C   UNL     1     -11.557   0.295   2.046  0.00  0.00    +0.047 A 
ATOM     37  C   UNL     1     -12.469   0.636   1.061  0.00  0.00    +0.005 A 
ATOM     38  C   UNL     1     -12.181   1.715   0.237  0.00  0.00    +0.020 A 
ATOM     39  C   UNL     1     -11.003   2.412   0.423  0.00  0.00    +0.113 A 
ATOM     40  N   UNL     1     -10.156   2.067   1.373  0.00  0.00    -0.238 NA
ENDBRANCH  29  30
ENDBRANCH  14  29
TORSDOF 6
