REMARK  Name = ZINC02336993
REMARK  7 active torsions:
REMARK  status: ('A' for Active; 'I' for Inactive)
REMARK    1  A    between atoms: C_1  and  C_2
REMARK    2  A    between atoms: C_2  and  C_3
REMARK    3  A    between atoms: C_2  and  C_4
REMARK    4  A    between atoms: N_14  and  C_22
REMARK    5  A    between atoms: C_15  and  S_17
REMARK    6  A    between atoms: S_17  and  C_18
REMARK    7  A    between atoms: C_18  and  C_19
REMARK                            x       y       z     vdW  Elec       q    Type
REMARK                         _______ _______ _______ _____ _____    ______ ____
ROOT
ATOM      1  C   UNL     1      -2.055  -2.421   6.808  0.00  0.00    +0.126 C 
ATOM      2  C   UNL     1      -1.977  -1.295   5.772  0.00  0.00    +0.068 C 
ATOM      3  C   UNL     1      -0.520  -0.851   5.665  0.00  0.00    -0.018 A 
ATOM      4  C   UNL     1       0.350  -1.177   6.646  0.00  0.00    +0.021 A 
ATOM      5  S   UNL     1       1.897  -0.484   6.137  0.00  0.00    -0.071 S 
ATOM      6  C   UNL     1       1.371   0.244   4.605  0.00  0.00    +0.117 A 
ATOM      7  C   UNL     1       0.003  -0.079   4.541  0.00  0.00    +0.076 A 
ATOM      8  C   UNL     1      -0.695   0.397   3.386  0.00  0.00    +0.263 A 
ATOM      9  O   UNL     1      -1.885   0.171   3.247  0.00  0.00    -0.267 OA
ATOM     10  N   UNL     1      -0.020   1.094   2.454  0.00  0.00    -0.284 N 
ATOM     11  C   UNL     1       1.310   1.362   2.595  0.00  0.00    +0.173 A 
ATOM     12  N   UNL     1       1.977   0.941   3.651  0.00  0.00    -0.216 NA
ATOM     13  C   UNL     1       0.036  -1.957   7.885  0.00  0.00    +0.203 C 
ATOM     14  O   UNL     1      -1.393  -2.028   8.013  0.00  0.00    -0.371 OA
ENDROOT
BRANCH  10  15
ATOM     15  C   UNL     1      -0.729   1.579   1.267  0.00  0.00    +0.093 C 
ATOM     16  C   UNL     1      -1.859   2.518   1.696  0.00  0.00    +0.025 C 
ATOM     17  C   UNL     1      -2.599   3.024   0.456  0.00  0.00    +0.002 C 
ATOM     18  C   UNL     1      -3.185   1.836  -0.309  0.00  0.00    +0.000 C 
ATOM     19  C   UNL     1      -2.055   0.898  -0.738  0.00  0.00    +0.002 C 
ATOM     20  C   UNL     1      -1.315   0.391   0.501  0.00  0.00    +0.025 C 
ENDBRANCH  10  15
BRANCH   1  22
ATOM     21  C   UNL     1      -3.603  -3.852   8.149  0.00  0.00    +0.010 C 
ATOM     22  C   UNL     1      -3.522  -2.727   7.115  0.00  0.00    +0.012 C 
ATOM     23  C   UNL     1      -4.199  -1.473   7.671  0.00  0.00    +0.010 C 
ENDBRANCH   1  22
BRANCH  11  24
ATOM     24  S   UNL     1       2.149   2.284   1.349  0.00  0.00    -0.078 S 
BRANCH  24  25
ATOM     25  C   UNL     1       3.815   2.322   2.054  0.00  0.00    +0.172 C 
BRANCH  25  26
ATOM     26  C   UNL     1       4.734   3.083   1.133  0.00  0.00    +0.221 C 
ATOM     27  O   UNL     1       4.303   3.553   0.101  0.00  0.00    -0.275 OA
ATOM     28  N   UNL     1       6.033   3.240   1.455  0.00  0.00    -0.329 N 
ATOM     29  H   UNL     1       6.703   3.795   0.782  0.00  0.00    +0.145 HD
ATOM     30  H   UNL     1       6.423   2.814   2.391  0.00  0.00    +0.145 HD
ENDBRANCH  25  26
ENDBRANCH  24  25
ENDBRANCH  11  24
TORSDOF 5
