REMARK  Name = ZINC00910074
REMARK  6 active torsions:
REMARK  status: ('A' for Active; 'I' for Inactive)
REMARK    1  A    between atoms: C_1  and  C_2
REMARK    2  A    between atoms: C_5  and  C_31
REMARK    3  A    between atoms: C_9  and  C_14
REMARK    4  A    between atoms: C_14  and  C_16
REMARK    5  A    between atoms: C_14  and  N_60
REMARK    6  A    between atoms: N_20  and  C_21
REMARK                            x       y       z     vdW  Elec       q    Type
REMARK                         _______ _______ _______ _____ _____    ______ ____
ROOT
ATOM      1  C   UNL     1       3.512   0.638  -0.029  0.00  0.00    +0.039 C 
ENDROOT
BRANCH   1  10
ATOM      2  C   UNL     1       5.827   3.417   3.718  0.00  0.00    +0.044 C 
ATOM      3  C   UNL     1       5.557   2.045   4.280  0.00  0.00    -0.041 A 
ATOM      4  C   UNL     1       5.918   1.746   5.563  0.00  0.00    +0.004 A 
ATOM      5  C   UNL     1       5.673   0.486   6.091  0.00  0.00    +0.005 A 
ATOM      6  C   UNL     1       5.062  -0.488   5.331  0.00  0.00    -0.026 A 
ATOM      7  C   UNL     1       4.686  -0.207   4.021  0.00  0.00    +0.052 A 
ATOM      8  C   UNL     1       4.936   1.072   3.490  0.00  0.00    +0.002 A 
ATOM      9  C   UNL     1       4.535   1.359   2.111  0.00  0.00    +0.018 A 
ATOM     10  C   UNL     1       3.936   0.377   1.394  0.00  0.00    +0.011 A 
ATOM     11  C   UNL     1       3.704  -0.888   1.975  0.00  0.00    +0.251 A 
ATOM     12  O   UNL     1       3.159  -1.755   1.314  0.00  0.00    -0.268 OA
ATOM     13  N   UNL     1       4.073  -1.162   3.239  0.00  0.00    -0.322 N 
ATOM     14  H   UNL     1       3.900  -2.072   3.616  0.00  0.00    +0.169 HD
ATOM     15  C   UNL     1       4.802  -1.852   5.916  0.00  0.00    +0.046 C 
ENDBRANCH   1  10
BRANCH   1  20
ATOM     16  C   UNL     1       3.667  -0.177  -2.317  0.00  0.00    -0.077 C 
ATOM     17  C   UNL     1       4.732  -0.962  -3.125  0.00  0.00    -0.020 C 
ATOM     18  C   UNL     1       6.031  -0.703  -2.327  0.00  0.00    -0.020 C 
ATOM     19  C   UNL     1       5.563  -0.318  -0.911  0.00  0.00    -0.077 C 
ATOM     20  N   UNL     1       4.102  -0.398  -0.929  0.00  0.00    +0.389 N 
ATOM     21  H   UNL     1       3.801  -1.328  -0.615  0.00  0.00    -0.080 HD
ENDBRANCH   1  20
BRANCH   1  22
ATOM     22  C   UNL     1       2.008   0.594  -0.120  0.00  0.00    +0.143 A 
ATOM     23  N   UNL     1       1.258  -0.479  -0.178  0.00  0.00    -0.115 NA
ATOM     24  N   UNL     1       0.028  -0.103  -0.249  0.00  0.00    -0.023 NA
ATOM     25  N   UNL     1      -0.026   1.183  -0.237  0.00  0.00    -0.044 NA
ATOM     26  N   UNL     1       1.174   1.650  -0.158  0.00  0.00    -0.227 N 
BRANCH  26  27
ATOM     27  C   UNL     1       1.557   3.063  -0.118  0.00  0.00    +0.111 C 
ATOM     28  C   UNL     1       0.920   3.730   1.103  0.00  0.00    +0.027 C 
ATOM     29  C   UNL     1       1.321   5.206   1.145  0.00  0.00    +0.002 C 
ATOM     30  C   UNL     1       0.835   5.903  -0.128  0.00  0.00    +0.000 C 
ATOM     31  C   UNL     1       1.471   5.236  -1.349  0.00  0.00    +0.002 C 
ATOM     32  C   UNL     1       1.071   3.760  -1.391  0.00  0.00    +0.027 C 
ENDBRANCH  26  27
ENDBRANCH   1  22
TORSDOF 4
