REMARK  Name = ZINC37443721
REMARK  8 active torsions:
REMARK  status: ('A' for Active; 'I' for Inactive)
REMARK    1  A    between atoms: C_1  and  C_2
REMARK    2  A    between atoms: C_7  and  C_8
REMARK    3  A    between atoms: C_8  and  N_9
REMARK    4  A    between atoms: C_18  and  C_19
REMARK    5  A    between atoms: C_18  and  C_20
REMARK    6  A    between atoms: N_22  and  C_23
REMARK    7  A    between atoms: C_28  and  C_33
REMARK    8  A    between atoms: C_30  and  C_32
REMARK                            x       y       z     vdW  Elec       q    Type
REMARK                         _______ _______ _______ _____ _____    ______ ____
ROOT
ATOM      1  N   UNL     1      -0.921   0.594   3.030  0.00  0.00    -0.276 N 
ATOM      2  C   UNL     1      -1.418   1.780   2.608  0.00  0.00    +0.264 C 
ATOM      3  O   UNL     1      -0.894   2.411   1.708  0.00  0.00    -0.268 OA
ATOM      4  C   UNL     1      -2.621   2.266   3.295  0.00  0.00    +0.109 A 
ATOM      5  C   UNL     1      -3.450   3.308   3.001  0.00  0.00    +0.079 A 
ATOM      6  C   UNL     1      -4.464   3.325   3.971  0.00  0.00    +0.153 A 
ATOM      7  C   UNL     1      -4.220   2.274   4.855  0.00  0.00    +0.088 A 
ATOM      8  N   UNL     1      -3.088   1.636   4.446  0.00  0.00    -0.331 N 
ATOM      9  C   UNL     1      -2.385   0.492   5.035  0.00  0.00    +0.157 C 
ATOM     10  C   UNL     1      -1.669  -0.282   3.924  0.00  0.00    +0.129 C 
ATOM     11  C   UNL     1      -0.701  -1.280   4.562  0.00  0.00    +0.043 C 
ATOM     12  C   UNL     1      -5.262   2.317   5.813  0.00  0.00    +0.067 A 
ATOM     13  C   UNL     1      -6.059   3.349   5.489  0.00  0.00    +0.198 A 
ATOM     14  O   UNL     1      -5.583   3.955   4.389  0.00  0.00    -0.461 OA
ENDROOT
BRANCH  10  15
ATOM     15  C   UNL     1      -2.690  -1.044   3.119  0.00  0.00    +0.238 C 
ATOM     16  O   UNL     1      -2.721  -0.926   1.912  0.00  0.00    -0.273 OA
ATOM     17  N   UNL     1      -3.568  -1.857   3.739  0.00  0.00    -0.310 N 
ATOM     18  H   UNL     1      -3.591  -1.896   4.708  0.00  0.00    +0.149 HD
BRANCH  17  19
ATOM     19  C   UNL     1      -4.487  -2.680   2.950  0.00  0.00    +0.076 C 
ATOM     20  C   UNL     1      -3.830  -4.028   2.644  0.00  0.00    +0.022 C 
ATOM     21  C   UNL     1      -4.790  -4.888   1.820  0.00  0.00    +0.002 C 
ATOM     22  C   UNL     1      -6.079  -5.117   2.613  0.00  0.00    +0.003 C 
ATOM     23  C   UNL     1      -6.736  -3.770   2.919  0.00  0.00    -0.009 C 
ATOM     24  C   UNL     1      -5.775  -2.909   3.743  0.00  0.00    +0.009 C 
ATOM     25  C   UNL     1      -6.432  -1.562   4.049  0.00  0.00    +0.009 C 
ATOM     26  C   UNL     1      -7.065  -3.053   1.608  0.00  0.00    +0.008 C 
ENDBRANCH  17  19
ENDBRANCH  10  15
BRANCH   1  27
ATOM     27  C   UNL     1       0.405   0.174   2.569  0.00  0.00    +0.144 C 
BRANCH  27  34
ATOM     28  C   UNL     1      -0.623   0.394  -0.122  0.00  0.00    +0.044 C 
ATOM     29  C   UNL     1      -0.220  -0.952   0.423  0.00  0.00    -0.046 A 
ATOM     30  C   UNL     1      -0.337  -2.081  -0.367  0.00  0.00    +0.003 A 
ATOM     31  C   UNL     1       0.033  -3.316   0.133  0.00  0.00    +0.000 A 
ATOM     32  C   UNL     1       0.520  -3.421   1.423  0.00  0.00    +0.000 A 
ATOM     33  C   UNL     1       0.637  -2.293   2.212  0.00  0.00    +0.005 A 
ATOM     34  C   UNL     1       0.272  -1.057   1.710  0.00  0.00    -0.027 A 
ENDBRANCH  27  34
ENDBRANCH   1  27
TORSDOF 4
