REMARK  Name = ZINC63870727
REMARK  7 active torsions:
REMARK  status: ('A' for Active; 'I' for Inactive)
REMARK    1  A    between atoms: C_1  and  C_2
REMARK    2  A    between atoms: C_2  and  C_3
REMARK    3  A    between atoms: C_3  and  C_4
REMARK    4  A    between atoms: C_4  and  C_5
REMARK    5  A    between atoms: N_8  and  C_11
REMARK    6  A    between atoms: C_11  and  C_12
REMARK    7  A    between atoms: C_18  and  C_20
REMARK                            x       y       z     vdW  Elec       q    Type
REMARK                         _______ _______ _______ _____ _____    ______ ____
ROOT
ATOM      1  C   UNL     1       4.486  -6.087  -3.415  0.00  0.00    +0.005 C 
ATOM      2  C   UNL     1       5.355  -4.928  -3.908  0.00  0.00    +0.024 C 
ATOM      3  C   UNL     1       6.831  -5.325  -3.811  0.00  0.00    +0.108 C 
ATOM      4  N   UNL     1       7.031  -6.583  -4.543  0.00  0.00    -0.298 N 
ATOM      5  C   UNL     1       6.185  -7.737  -4.210  0.00  0.00    +0.108 C 
ATOM      6  C   UNL     1       4.715  -7.313  -4.302  0.00  0.00    +0.024 C 
ATOM      7  C   UNL     1       7.974  -6.678  -5.502  0.00  0.00    +0.247 C 
ATOM      8  O   UNL     1       8.062  -7.690  -6.170  0.00  0.00    -0.270 OA
ENDROOT
BRANCH   7   9
ATOM      9  C   UNL     1       8.898  -5.553  -5.742  0.00  0.00    +0.037 C 
ATOM     10  C   UNL     1       9.945  -5.309  -4.859  0.00  0.00    +0.019 C 
ATOM     11  C   UNL     1      10.791  -4.246  -5.222  0.00  0.00    -0.017 C 
ATOM     12  C   UNL     1      11.526  -3.383  -4.500  0.00  0.00    +0.025 C 
ATOM     13  C   UNL     1      11.982  -2.309  -5.380  0.00  0.00    +0.106 C 
ATOM     14  N   UNL     1      11.655  -2.544  -6.617  0.00  0.00    -0.279 NA
ATOM     15  C   UNL     1      10.998  -3.839  -6.669  0.00  0.00    +0.158 C 
ATOM     16  C   UNL     1       9.665  -3.857  -7.353  0.00  0.00    +0.005 C 
ATOM     17  C   UNL     1       8.720  -4.688  -6.916  0.00  0.00    +0.011 C 
ENDBRANCH   7   9
BRANCH   1  18
ATOM     18  C   UNL     1       3.012  -5.682  -3.477  0.00  0.00    +0.072 C 
BRANCH  18  21
ATOM     19  C   UNL     1       1.668  -4.146  -0.472  0.00  0.00    +0.053 C 
ATOM     20  C   UNL     1       2.747  -5.010  -1.155  0.00  0.00    +0.086 C 
ATOM     21  N   UNL     1       2.775  -4.555  -2.565  0.00  0.00    -0.334 NA
ATOM     22  N   UNL     1       1.447  -3.965  -2.790  0.00  0.00    +0.400 N 
ATOM     23  N   UNL     1       1.149  -3.254  -1.537  0.00  0.00    -0.345 NA
ATOM     24  H   UNL     1       1.474  -3.319  -3.565  0.00  0.00    -0.033 HD
ATOM     25  H   UNL     1       0.156  -3.105  -1.432  0.00  0.00    +0.104 HD
ATOM     26  H   UNL     1       0.763  -4.689  -2.955  0.00  0.00    -0.033 HD
BRANCH  19  27
ATOM     27  C   UNL     1       2.286  -3.319   0.657  0.00  0.00    +0.018 C 
BRANCH  27  28
ATOM     28  C   UNL     1       1.185  -2.539   1.380  0.00  0.00    +0.001 C 
BRANCH  28  30
ATOM     29  C   UNL     1       0.703  -0.932   3.231  0.00  0.00    +0.004 C 
ATOM     30  C   UNL     1       1.804  -1.712   2.509  0.00  0.00    -0.003 C 
ENDBRANCH  28  30
ENDBRANCH  27  28
ENDBRANCH  19  27
ENDBRANCH  18  21
ENDBRANCH   1  18
TORSDOF 6
