REMARK  Name = ZINC01424044
REMARK  7 active torsions:
REMARK  status: ('A' for Active; 'I' for Inactive)
REMARK    1  A    between atoms: C_9  and  C_12
REMARK    2  A    between atoms: N_14  and  N_15
REMARK    3  A    between atoms: C_16  and  C_17
REMARK    4  A    between atoms: C_22  and  O_23
REMARK    5  A    between atoms: O_23  and  C_24
REMARK    6  A    between atoms: C_24  and  C_26
REMARK    7  A    between atoms: C_29  and  N_32
REMARK                            x       y       z     vdW  Elec       q    Type
REMARK                         _______ _______ _______ _____ _____    ______ ____
ROOT
ATOM      1  C   UNL     1       8.114  -6.567   0.086  0.00  0.00    +0.038 A 
ATOM      2  C   UNL     1       8.569  -7.857  -0.193  0.00  0.00    +0.028 A 
ATOM      3  C   UNL     1       9.903  -8.167  -0.025  0.00  0.00    +0.019 A 
ATOM      4  C   UNL     1      10.793  -7.202   0.419  0.00  0.00    +0.019 A 
ATOM      5  C   UNL     1      10.354  -5.922   0.699  0.00  0.00    +0.048 A 
ATOM      6  C   UNL     1       9.018  -5.593   0.530  0.00  0.00    +0.141 A 
ATOM      7 BR   UNL     1      10.520  -9.914  -0.402  0.00  0.00    -0.050 Br
ENDROOT
BRANCH   1   9
ATOM      8  N   UNL     1       6.256  -5.051   0.238  0.00  0.00    -0.187 NA
ATOM      9  C   UNL     1       6.690  -6.229  -0.092  0.00  0.00    +0.142 C 
BRANCH   8  12
ATOM     10  C   UNL     1       4.445  -3.518   0.426  0.00  0.00    +0.276 C 
ATOM     11  O   UNL     1       5.224  -2.662   0.790  0.00  0.00    -0.270 OA
ATOM     12  N   UNL     1       4.886  -4.766   0.174  0.00  0.00    -0.204 N 
ATOM     13  H   UNL     1       4.255  -5.467  -0.051  0.00  0.00    +0.177 HD
BRANCH  10  22
ATOM     14  C   UNL     1      -1.121  -0.525   1.022  0.00  0.00    +0.004 A 
ATOM     15  C   UNL     1      -0.128   0.387   0.718  0.00  0.00    +0.004 A 
ATOM     16  C   UNL     1       1.174  -0.039   0.541  0.00  0.00    +0.049 A 
ATOM     17  C   UNL     1       1.488  -1.384   0.666  0.00  0.00    +0.163 A 
ATOM     18  C   UNL     1       0.490  -2.302   0.969  0.00  0.00    +0.162 A 
ATOM     19  C   UNL     1      -0.815  -1.867   1.148  0.00  0.00    +0.049 A 
ATOM     20  O   UNL     1       0.775  -3.627   1.089  0.00  0.00    -0.484 OA
ATOM     21  C   UNL     1       2.151  -3.976   1.271  0.00  0.00    +0.283 C 
ATOM     22  C   UNL     1       2.986  -3.185   0.254  0.00  0.00    +0.297 C 
ATOM     23  O   UNL     1       2.776  -1.789   0.492  0.00  0.00    -0.472 OA
ENDBRANCH  10  22
ENDBRANCH   8  12
ENDBRANCH   1   9
BRANCH   6  24
ATOM     24  O   UNL     1       8.587  -4.334   0.799  0.00  0.00    -0.422 OA
BRANCH  24  25
ATOM     25  C   UNL     1       8.112  -4.078   2.034  0.00  0.00    +0.344 C 
ATOM     26  O   UNL     1       7.985  -4.983   2.835  0.00  0.00    -0.245 OA
BRANCH  25  27
ATOM     27  C   UNL     1       7.746  -2.699   2.413  0.00  0.00    +0.060 A 
ATOM     28  C   UNL     1       7.894  -1.656   1.496  0.00  0.00    +0.017 A 
ATOM     29  C   UNL     1       7.550  -0.370   1.857  0.00  0.00    +0.033 A 
ATOM     30  C   UNL     1       7.060  -0.112   3.125  0.00  0.00    +0.126 A 
ATOM     31  C   UNL     1       6.912  -1.140   4.039  0.00  0.00    +0.033 A 
ATOM     32  C   UNL     1       7.245  -2.432   3.689  0.00  0.00    +0.017 A 
BRANCH  30  33
ATOM     33  N   UNL     1       6.694   1.271   3.506  0.00  0.00    +0.056 N 
ATOM     34  O   UNL     1       6.823   2.172   2.709  0.00  0.00    -0.126 OA
ATOM     35  O   UNL     1       6.266   1.500   4.613  0.00  0.00    -0.126 OA
ENDBRANCH  30  33
ENDBRANCH  25  27
ENDBRANCH  24  25
ENDBRANCH   6  24
TORSDOF 7
