REMARK  Name = ZINC20891410
REMARK  4 active torsions:
REMARK  status: ('A' for Active; 'I' for Inactive)
REMARK    1  A    between atoms: C_1  and  C_2
REMARK    2  A    between atoms: C_4  and  C_34
REMARK    3  A    between atoms: C_11  and  C_13
REMARK    4  A    between atoms: C_20  and  C_27
REMARK                            x       y       z     vdW  Elec       q    Type
REMARK                         _______ _______ _______ _____ _____    ______ ____
ROOT
ATOM      1  C   UNL     1      -4.488  -4.500   1.575  0.00  0.00    +0.066 C 
ATOM      2  C   UNL     1      -3.131  -4.972   1.121  0.00  0.00    +0.044 A 
ATOM      3  C   UNL     1      -2.808  -6.319   1.155  0.00  0.00    +0.046 A 
ATOM      4  C   UNL     1      -1.548  -6.710   0.729  0.00  0.00    +0.044 A 
ATOM      5  N   UNL     1      -0.697  -5.790   0.305  0.00  0.00    -0.216 NA
ATOM      6  C   UNL     1      -1.037  -4.511   0.286  0.00  0.00    +0.253 A 
ATOM      7  N   UNL     1      -2.230  -4.104   0.691  0.00  0.00    -0.216 NA
ATOM      8  N   UNL     1      -0.115  -3.570  -0.167  0.00  0.00    -0.183 N 
ATOM      9  C   UNL     1       1.117  -3.849  -0.723  0.00  0.00    +0.137 A 
ATOM     10  C   UNL     1       1.692  -2.668  -1.030  0.00  0.00    +0.038 A 
ATOM     11  C   UNL     1       0.793  -1.636  -0.646  0.00  0.00    +0.100 A 
ATOM     12  N   UNL     1      -0.281  -2.185  -0.136  0.00  0.00    -0.162 NA
ATOM     13  C   UNL     1       3.026  -2.372  -1.639  0.00  0.00    +0.115 C 
ATOM     14  S   UNL     1       4.302  -3.543  -1.169  0.00  0.00    -0.138 S 
ATOM     15  C   UNL     1       3.841  -5.109  -1.923  0.00  0.00    +0.166 C 
ATOM     16  C   UNL     1       2.633  -5.707  -1.315  0.00  0.00    +0.228 C 
ATOM     17  O   UNL     1       2.663  -6.914  -1.200  0.00  0.00    -0.275 OA
ATOM     18  N   UNL     1       1.544  -5.144  -0.884  0.00  0.00    -0.269 N 
ATOM     19  C   UNL     1      -1.153  -8.164   0.749  0.00  0.00    +0.066 C 
ATOM     20  H   UNL     1       0.881  -5.979  -0.613  0.00  0.00    +0.156 HD
ENDROOT
BRANCH  11  21
ATOM     21  C   UNL     1       1.029  -0.179  -0.802  0.00  0.00    +0.003 A 
ATOM     22  C   UNL     1       0.914   0.670   0.297  0.00  0.00    +0.011 A 
ATOM     23  C   UNL     1       1.135   2.024   0.146  0.00  0.00    +0.020 A 
ATOM     24  C   UNL     1       1.470   2.539  -1.095  0.00  0.00    +0.041 A 
ATOM     25  C   UNL     1       1.585   1.700  -2.189  0.00  0.00    +0.020 A 
ATOM     26  C   UNL     1       1.366   0.344  -2.049  0.00  0.00    +0.011 A 
ATOM     27 CL   UNL     1       1.745   4.243  -1.278  0.00  0.00    -0.084 Cl
ENDBRANCH  11  21
BRANCH  13  28
ATOM     28  C   UNL     1       3.457  -0.991  -1.217  0.00  0.00    +0.005 A 
ATOM     29  C   UNL     1       3.421  -0.633   0.117  0.00  0.00    +0.008 A 
ATOM     30  C   UNL     1       3.817   0.633   0.505  0.00  0.00    +0.000 A 
ATOM     31  C   UNL     1       4.250   1.543  -0.441  0.00  0.00    +0.003 A 
ATOM     32  C   UNL     1       4.286   1.188  -1.776  0.00  0.00    +0.038 A 
ATOM     33  C   UNL     1       3.895  -0.082  -2.165  0.00  0.00    +0.128 A 
ATOM     34  F   UNL     1       3.936  -0.432  -3.469  0.00  0.00    -0.205 F 
ENDBRANCH  13  28
TORSDOF 2
