REMARK  Name = ZINC35683521
REMARK  7 active torsions:
REMARK  status: ('A' for Active; 'I' for Inactive)
REMARK    1  A    between atoms: C_1  and  N_2
REMARK    2  A    between atoms: N_2  and  C_3
REMARK    3  A    between atoms: N_2  and  S_4
REMARK    4  A    between atoms: S_4  and  C_7
REMARK    5  A    between atoms: C_10  and  C_13
REMARK    6  A    between atoms: C_16  and  C_27
REMARK    7  A    between atoms: C_19  and  C_21
REMARK                            x       y       z     vdW  Elec       q    Type
REMARK                         _______ _______ _______ _____ _____    ______ ____
ROOT
ATOM      1  C   UNL     1       5.737  -1.626  -3.035  0.00  0.00    +0.266 C 
ATOM      2  O   UNL     1       6.273  -0.839  -3.790  0.00  0.00    -0.268 OA
ATOM      3  N   UNL     1       6.428  -2.681  -2.558  0.00  0.00    -0.181 N 
ATOM      4  C   UNL     1       7.860  -2.936  -2.779  0.00  0.00    +0.137 C 
ATOM      5  C   UNL     1       8.114  -4.254  -2.022  0.00  0.00    +0.087 C 
ATOM      6  C   UNL     1       6.763  -4.607  -1.442  0.00  0.00    +0.069 C 
ATOM      7  N   UNL     1       5.904  -3.704  -1.772  0.00  0.00    -0.181 NA
ENDROOT
BRANCH   1  11
ATOM      8  C   UNL     1       1.684  -1.055  -1.899  0.00  0.00    +0.105 A 
ATOM      9  C   UNL     1       2.330  -0.091  -2.653  0.00  0.00    +0.029 A 
ATOM     10  C   UNL     1       3.647  -0.271  -3.025  0.00  0.00    +0.015 A 
ATOM     11  C   UNL     1       4.327  -1.427  -2.639  0.00  0.00    +0.039 A 
ATOM     12  C   UNL     1       3.668  -2.396  -1.879  0.00  0.00    +0.015 A 
ATOM     13  C   UNL     1       2.354  -2.201  -1.509  0.00  0.00    +0.029 A 
BRANCH   8  14
ATOM     14  S   UNL     1       0.003  -0.818  -1.428  0.00  0.00    +0.060 S 
ATOM     15  O   UNL     1      -0.536  -2.110  -1.184  0.00  0.00    -0.153 OA
ATOM     16  O   UNL     1      -0.562   0.077  -2.376  0.00  0.00    -0.153 OA
BRANCH  14  18
ATOM     17  C   UNL     1      -0.002   1.439   0.062  0.00  0.00    +0.131 C 
ATOM     18  N   UNL     1       0.009  -0.025   0.026  0.00  0.00    -0.183 NA
ATOM     19  C   UNL     1       0.025  -0.789   1.276  0.00  0.00    +0.131 C 
ENDBRANCH  14  18
ENDBRANCH   8  14
ENDBRANCH   1  11
BRANCH   6  20
ATOM     20  C   UNL     1       6.473  -5.797  -0.621  0.00  0.00    -0.002 A 
ATOM     21  C   UNL     1       7.492  -6.704  -0.316  0.00  0.00    +0.010 A 
ATOM     22  C   UNL     1       7.214  -7.814   0.453  0.00  0.00    +0.001 A 
ATOM     23  C   UNL     1       5.931  -8.031   0.923  0.00  0.00    +0.000 A 
ATOM     24  C   UNL     1       4.917  -7.137   0.626  0.00  0.00    +0.001 A 
ATOM     25  C   UNL     1       5.181  -6.020  -0.138  0.00  0.00    +0.010 A 
ENDBRANCH   6  20
BRANCH   4  26
ATOM     26  C   UNL     1       8.149  -3.101  -4.249  0.00  0.00    -0.025 A 
ATOM     27  C   UNL     1       7.251  -3.771  -5.059  0.00  0.00    +0.005 A 
ATOM     28  C   UNL     1       7.516  -3.922  -6.407  0.00  0.00    +0.000 A 
ATOM     29  C   UNL     1       8.679  -3.404  -6.946  0.00  0.00    +0.000 A 
ATOM     30  C   UNL     1       9.576  -2.733  -6.136  0.00  0.00    +0.000 A 
ATOM     31  C   UNL     1       9.309  -2.578  -4.788  0.00  0.00    +0.005 A 
ENDBRANCH   4  26
TORSDOF 5
