REMARK  Name = ZINC44753437
REMARK  7 active torsions:
REMARK  status: ('A' for Active; 'I' for Inactive)
REMARK    1  A    between atoms: C_1  and  C_2
REMARK    2  A    between atoms: C_2  and  N_3
REMARK    3  A    between atoms: C_7  and  C_9
REMARK    4  A    between atoms: C_9  and  N_10
REMARK    5  A    between atoms: C_11  and  C_13
REMARK    6  A    between atoms: C_13  and  C_19
REMARK    7  A    between atoms: C_19  and  N_20
REMARK                            x       y       z     vdW  Elec       q    Type
REMARK                         _______ _______ _______ _____ _____    ______ ____
ROOT
ATOM      1  N   UNL     1      -1.749  -1.484   2.546  0.00  0.00    -0.316 N 
ATOM      2  C   UNL     1      -2.124  -1.935   3.759  0.00  0.00    +0.217 C 
ATOM      3  O   UNL     1      -2.969  -2.800   3.851  0.00  0.00    -0.275 OA
ATOM      4  H   UNL     1      -1.129  -0.742   2.474  0.00  0.00    +0.149 HD
ENDROOT
BRANCH   2   5
ATOM      5  C   UNL     1      -1.492  -1.364   5.003  0.00  0.00    +0.036 C 
ATOM      6  C   UNL     1      -2.214  -1.908   6.240  0.00  0.00    +0.042 C 
ATOM      7  C   UNL     1      -3.672  -1.441   6.217  0.00  0.00    +0.161 C 
ATOM      8  O   UNL     1      -3.712  -0.013   6.169  0.00  0.00    -0.380 OA
ATOM      9  C   UNL     1      -3.094   0.550   5.010  0.00  0.00    +0.161 C 
ATOM     10  C   UNL     1      -1.613   0.163   4.984  0.00  0.00    +0.042 C 
BRANCH   5  11
ATOM     11  C   UNL     1      -0.015  -1.760   5.055  0.00  0.00    -0.070 C 
BRANCH  11  12
ATOM     12  N   UNL     1       0.102  -3.224   5.000  0.00  0.00    +0.379 N 
ATOM     13  H   UNL     1      -0.319  -3.626   5.824  0.00  0.00    -0.090 HD
ATOM     14  H   UNL     1      -0.372  -3.568   4.178  0.00  0.00    -0.090 HD
ATOM     15  H   UNL     1       1.076  -3.482   4.959  0.00  0.00    -0.090 HD
ENDBRANCH  11  12
ENDBRANCH   5  11
ENDBRANCH   2   5
BRANCH   1  16
ATOM     16  C   UNL     1      -2.280  -2.115   1.334  0.00  0.00    +0.089 C 
BRANCH  16  21
ATOM     17  N   UNL     1      -1.969   0.029   0.170  0.00  0.00    +0.382 N 
ATOM     18  C   UNL     1      -2.808   0.406  -0.988  0.00  0.00    -0.078 C 
ATOM     19  C   UNL     1      -2.525  -0.682  -2.053  0.00  0.00    -0.020 C 
ATOM     20  C   UNL     1      -2.386  -1.952  -1.174  0.00  0.00    -0.016 C 
ATOM     21  C   UNL     1      -1.700  -1.419   0.101  0.00  0.00    -0.051 C 
ATOM     22  H   UNL     1      -2.459   0.243   1.025  0.00  0.00    -0.081 HD
BRANCH  17  24
ATOM     23  C   UNL     1      -0.977   2.262   0.321  0.00  0.00    -0.017 C 
ATOM     24  C   UNL     1      -0.702   0.770   0.125  0.00  0.00    -0.082 C 
ENDBRANCH  17  24
ENDBRANCH  16  21
ENDBRANCH   1  16
TORSDOF 6
