REMARK  Name = ZINC14478727
REMARK  6 active torsions:
REMARK  status: ('A' for Active; 'I' for Inactive)
REMARK    1  A    between atoms: C_1  and  C_2
REMARK    2  A    between atoms: C_7  and  C_8
REMARK    3  A    between atoms: C_19  and  S_24
REMARK    4  A    between atoms: S_24  and  N_27
REMARK    5  A    between atoms: N_27  and  C_28
REMARK    6  A    between atoms: N_27  and  C_29
REMARK                            x       y       z     vdW  Elec       q    Type
REMARK                         _______ _______ _______ _____ _____    ______ ____
ROOT
ATOM      1  C   UNL     1       6.522   3.305   6.547  0.00  0.00    +0.105 C 
ATOM      2  C   UNL     1       7.665   4.064   5.897  0.00  0.00    +0.029 C 
ATOM      3  C   UNL     1       7.456   5.592   6.015  0.00  0.00    +0.033 C 
ATOM      4  C   UNL     1       8.198   6.128   4.803  0.00  0.00    -0.030 C 
ATOM      5  C   UNL     1       8.321   5.195   3.892  0.00  0.00    -0.023 C 
ATOM      6  C   UNL     1       7.674   3.901   4.367  0.00  0.00    +0.049 C 
ATOM      7  C   UNL     1       6.285   3.856   3.788  0.00  0.00    -0.018 A 
ATOM      8  C   UNL     1       6.152   3.890   2.407  0.00  0.00    +0.034 A 
ATOM      9  C   UNL     1       4.902   3.860   1.823  0.00  0.00    +0.109 A 
ATOM     10  C   UNL     1       3.766   3.800   2.610  0.00  0.00    +0.030 A 
ATOM     11  C   UNL     1       3.887   3.758   3.984  0.00  0.00    +0.025 A 
ATOM     12  C   UNL     1       5.146   3.788   4.572  0.00  0.00    +0.031 A 
ATOM     13  N   UNL     1       5.248   3.746   5.967  0.00  0.00    -0.336 N 
ATOM     14  H   UNL     1       4.502   4.001   6.532  0.00  0.00    +0.147 HD
ENDROOT
BRANCH   1  21
ATOM     15  C   UNL     1       8.370   1.789   8.169  0.00  0.00    +0.044 C 
ATOM     16  C   UNL     1       7.583   1.103   7.082  0.00  0.00    -0.045 A 
ATOM     17  C   UNL     1       7.745  -0.253   6.862  0.00  0.00    +0.004 A 
ATOM     18  C   UNL     1       7.023  -0.882   5.865  0.00  0.00    +0.000 A 
ATOM     19  C   UNL     1       6.139  -0.156   5.089  0.00  0.00    +0.000 A 
ATOM     20  C   UNL     1       5.973   1.198   5.313  0.00  0.00    +0.006 A 
ATOM     21  C   UNL     1       6.699   1.828   6.306  0.00  0.00    -0.024 A 
ENDBRANCH   1  21
BRANCH   9  22
ATOM     22  S   UNL     1       4.752   3.904   0.068  0.00  0.00    +0.074 S 
ATOM     23  O   UNL     1       5.936   4.515  -0.426  0.00  0.00    -0.150 OA
ATOM     24  O   UNL     1       3.457   4.415  -0.216  0.00  0.00    -0.150 OA
BRANCH  22  25
ATOM     25  N   UNL     1       4.770   2.337  -0.465  0.00  0.00    -0.206 N 
ATOM     26  C   UNL     1       6.046   1.654  -0.691  0.00  0.00    +0.157 C 
BRANCH  25  27
ATOM     27  C   UNL     1       3.568   1.665  -0.700  0.00  0.00    +0.051 A 
ATOM     28  C   UNL     1       2.669   2.154  -1.639  0.00  0.00    +0.025 A 
ATOM     29  C   UNL     1       1.481   1.488  -1.868  0.00  0.00    +0.002 A 
ATOM     30  C   UNL     1       1.187   0.334  -1.165  0.00  0.00    +0.000 A 
ATOM     31  C   UNL     1       2.080  -0.156  -0.229  0.00  0.00    +0.002 A 
ATOM     32  C   UNL     1       3.269   0.506   0.005  0.00  0.00    +0.025 A 
ENDBRANCH  25  27
ENDBRANCH  22  25
ENDBRANCH   9  22
TORSDOF 4
