REMARK  Name = ZINC63137753
REMARK  6 active torsions:
REMARK  status: ('A' for Active; 'I' for Inactive)
REMARK    1  A    between atoms: C_1  and  O_2
REMARK    2  A    between atoms: O_2  and  C_3
REMARK    3  A    between atoms: C_7  and  C_9
REMARK    4  A    between atoms: N_28  and  C_31
REMARK    5  A    between atoms: C_31  and  C_32
REMARK    6  A    between atoms: C_32  and  C_33
REMARK                            x       y       z     vdW  Elec       q    Type
REMARK                         _______ _______ _______ _____ _____    ______ ____
ROOT
ATOM      1  C   UNL     1       1.325  -4.106  -2.289  0.00  0.00    +0.134 C 
ATOM      2  C   UNL     1       0.171  -4.621  -3.152  0.00  0.00    +0.131 C 
ATOM      3  C   UNL     1       0.443  -6.097  -3.414  0.00  0.00    -0.034 C 
ATOM      4  C   UNL     1      -0.632  -6.756  -2.997  0.00  0.00    -0.001 A 
ATOM      5  C   UNL     1      -0.988  -8.183  -3.051  0.00  0.00    +0.010 A 
ATOM      6  C   UNL     1      -2.187  -8.523  -2.509  0.00  0.00    +0.001 A 
ATOM      7  C   UNL     1      -3.057  -7.597  -1.925  0.00  0.00    +0.002 A 
ATOM      8  C   UNL     1      -2.813  -6.265  -1.836  0.00  0.00    +0.026 A 
ATOM      9  C   UNL     1      -1.584  -5.785  -2.377  0.00  0.00    +0.043 A 
ATOM     10  N   UNL     1      -1.111  -4.556  -2.448  0.00  0.00    -0.375 N 
ATOM     11  C   UNL     1       1.757  -6.590  -3.967  0.00  0.00    +0.065 C 
ATOM     12  C   UNL     1       2.864  -5.950  -3.109  0.00  0.00    +0.167 C 
ATOM     13  N   UNL     1       2.591  -4.527  -2.930  0.00  0.00    -0.279 N 
ATOM     14  C   UNL     1       3.441  -3.573  -3.326  0.00  0.00    +0.234 C 
ATOM     15  O   UNL     1       3.114  -2.419  -3.151  0.00  0.00    -0.274 OA
ATOM     16  C   UNL     1       4.765  -3.829  -3.967  0.00  0.00    +0.203 C 
ATOM     17  N   UNL     1       5.041  -5.248  -4.111  0.00  0.00    -0.291 N 
ATOM     18  C   UNL     1       4.195  -6.205  -3.733  0.00  0.00    +0.237 C 
ATOM     19  O   UNL     1       4.531  -7.358  -3.903  0.00  0.00    -0.274 OA
ATOM     20  H   UNL     1      -1.525  -3.752  -2.097  0.00  0.00    +0.160 HD
ENDROOT
BRANCH   1  25
ATOM     21  C   UNL     1       1.645  -0.573  -0.986  0.00  0.00    +0.120 A 
ATOM     22  C   UNL     1       1.167   0.161  -2.063  0.00  0.00    +0.045 A 
ATOM     23  C   UNL     1       0.743  -0.489  -3.205  0.00  0.00    +0.004 A 
ATOM     24  C   UNL     1       0.795  -1.869  -3.278  0.00  0.00    +0.006 A 
ATOM     25  C   UNL     1       1.271  -2.602  -2.207  0.00  0.00    -0.021 A 
ATOM     26  C   UNL     1       1.701  -1.957  -1.063  0.00  0.00    +0.051 A 
BRANCH  21  28
ATOM     27  C   UNL     1       1.977   1.490   0.148  0.00  0.00    +0.277 C 
ATOM     28  O   UNL     1       2.064   0.064   0.139  0.00  0.00    -0.495 OA
ENDBRANCH  21  28
ENDBRANCH   1  25
BRANCH  17  29
ATOM     29  C   UNL     1       6.317  -5.648  -4.709  0.00  0.00    +0.112 C 
BRANCH  29  30
ATOM     30  C   UNL     1       7.369  -5.802  -3.609  0.00  0.00    +0.049 C 
BRANCH  30  31
ATOM     31  C   UNL     1       8.682  -6.213  -4.224  0.00  0.00    -0.072 C 
ATOM     32  C   UNL     1       9.542  -5.285  -4.497  0.00  0.00    -0.028 C 
ATOM     33  C   UNL     1      10.884  -5.538  -5.119  0.00  0.00    +0.027 C 
ATOM     34  C   UNL     1      11.255  -7.017  -4.987  0.00  0.00    +0.004 C 
ATOM     35  C   UNL     1      10.067  -7.860  -5.467  0.00  0.00    +0.005 C 
ATOM     36  C   UNL     1       8.914  -7.675  -4.476  0.00  0.00    +0.030 C 
ENDBRANCH  30  31
ENDBRANCH  29  30
ENDBRANCH  17  29
TORSDOF 5
