REMARK  Name = ZINC33771985
REMARK  11 active torsions:
REMARK  status: ('A' for Active; 'I' for Inactive)
REMARK    1  A    between atoms: C_1  and  C_2
REMARK    2  A    between atoms: C_2  and  C_3
REMARK    3  A    between atoms: C_6  and  N_9
REMARK    4  A    between atoms: C_14  and  C_33
REMARK    5  A    between atoms: C_17  and  C_22
REMARK    6  A    between atoms: C_17  and  C_30
REMARK    7  A    between atoms: C_22  and  C_23
REMARK    8  A    between atoms: C_26  and  O_29
REMARK    9  A    between atoms: C_35  and  C_41
REMARK   10  A    between atoms: C_36  and  O_40
REMARK   11  A    between atoms: C_37  and  C_39
REMARK                            x       y       z     vdW  Elec       q    Type
REMARK                         _______ _______ _______ _____ _____    ______ ____
ROOT
ATOM      1  N   UNL     1      -2.882  -2.157  -0.224  0.00  0.00    -0.210 N 
ATOM      2  C   UNL     1      -1.986  -2.744  -1.082  0.00  0.00    +0.229 C 
ATOM      3  O   UNL     1      -2.184  -3.671  -1.838  0.00  0.00    -0.275 OA
ATOM      4  C   UNL     1      -0.754  -2.014  -0.887  0.00  0.00    +0.077 C 
ATOM      5  C   UNL     1       0.526  -1.769  -1.568  0.00  0.00    -0.027 C 
ATOM      6  N   UNL     1       1.053  -0.513  -0.939  0.00  0.00    +0.396 N 
ATOM      7  C   UNL     1       0.002  -0.004   0.002  0.00  0.00    +0.052 C 
ATOM      8  C   UNL     1      -1.288  -0.560  -0.593  0.00  0.00    +0.086 C 
ATOM      9  C   UNL     1      -2.433  -0.969   0.279  0.00  0.00    +0.229 C 
ATOM     10  O   UNL     1      -2.871  -0.368   1.237  0.00  0.00    -0.275 OA
ATOM     11  H   UNL     1       1.981  -0.738  -0.393  0.00  0.00    -0.083 HD
ATOM     12  H   UNL     1       1.259   0.231  -1.723  0.00  0.00    -0.083 HD
ENDROOT
BRANCH   5  13
ATOM     13  C   UNL     1       0.306  -1.565  -3.045  0.00  0.00    -0.060 A 
ATOM     14  C   UNL     1      -0.132  -0.341  -3.515  0.00  0.00    +0.009 A 
ATOM     15  C   UNL     1      -0.329  -0.150  -4.869  0.00  0.00    -0.009 A 
ATOM     16  C   UNL     1      -0.099  -1.192  -5.756  0.00  0.00    +0.123 A 
ATOM     17  C   UNL     1       0.335  -2.421  -5.281  0.00  0.00    -0.009 A 
ATOM     18  C   UNL     1       0.537  -2.605  -3.927  0.00  0.00    +0.009 A 
ATOM     19  C   UNL     1       0.586  -3.555  -6.242  0.00  0.00    +0.047 C 
ATOM     20  C   UNL     1      -0.800   1.187  -5.381  0.00  0.00    +0.047 C 
BRANCH  16  21
ATOM     21  O   UNL     1      -0.298  -1.008  -7.088  0.00  0.00    -0.506 OA
ATOM     22  H   UNL     1      -0.115  -1.835  -7.790  0.00  0.00    +0.292 HD
ENDBRANCH  16  21
ENDBRANCH   5  13
BRANCH   1  26
ATOM     23  C   UNL     1      -6.579  -3.823   0.745  0.00  0.00    -0.048 A 
ATOM     24  C   UNL     1      -5.734  -4.480  -0.130  0.00  0.00    +0.005 A 
ATOM     25  C   UNL     1      -4.509  -3.931  -0.454  0.00  0.00    +0.024 A 
ATOM     26  C   UNL     1      -4.126  -2.717   0.102  0.00  0.00    +0.044 A 
ATOM     27  C   UNL     1      -4.974  -2.063   0.985  0.00  0.00    +0.024 A 
ATOM     28  C   UNL     1      -6.200  -2.615   1.300  0.00  0.00    +0.005 A 
BRANCH  23  30
ATOM     29  C   UNL     1      -7.763  -5.328   2.322  0.00  0.00    +0.009 C 
ATOM     30  C   UNL     1      -7.915  -4.425   1.095  0.00  0.00    +0.032 C 
ENDBRANCH  23  30
ENDBRANCH   1  26
BRANCH   7  31
ATOM     31  C   UNL     1      -0.021   1.503   0.011  0.00  0.00    +0.347 C 
ATOM     32  O   UNL     1      -1.077   2.091   0.018  0.00  0.00    -0.248 OA
ATOM     33  O   UNL     1       1.131   2.192   0.004  0.00  0.00    -0.248 OA
ENDBRANCH   7  31
BRANCH   7  34
ATOM     34  C   UNL     1       0.226  -0.548   1.414  0.00  0.00    +0.035 C 
BRANCH  34  35
ATOM     35  C   UNL     1       1.596  -0.147   1.896  0.00  0.00    -0.048 A 
ATOM     36  C   UNL     1       2.679  -0.974   1.661  0.00  0.00    +0.007 A 
ATOM     37  C   UNL     1       3.938  -0.606   2.097  0.00  0.00    +0.045 A 
ATOM     38  C   UNL     1       4.112   0.589   2.780  0.00  0.00    +0.117 A 
ATOM     39  C   UNL     1       3.023   1.414   3.019  0.00  0.00    +0.045 A 
ATOM     40  C   UNL     1       1.767   1.044   2.577  0.00  0.00    +0.007 A 
BRANCH  38  41
ATOM     41  O   UNL     1       5.348   0.950   3.214  0.00  0.00    -0.507 OA
ATOM     42  H   UNL     1       5.485   1.898   3.756  0.00  0.00    +0.292 HD
ENDBRANCH  38  41
ENDBRANCH  34  35
ENDBRANCH   7  34
TORSDOF 8
