REMARK  Name = ZINC39763049
REMARK  9 active torsions:
REMARK  status: ('A' for Active; 'I' for Inactive)
REMARK    1  A    between atoms: C_1  and  C_2
REMARK    2  A    between atoms: C_3  and  C_27
REMARK    3  A    between atoms: C_7  and  N_8
REMARK    4  A    between atoms: C_9  and  C_11
REMARK    5  A    between atoms: C_11  and  S_12
REMARK    6  A    between atoms: S_12  and  C_13
REMARK    7  A    between atoms: C_16  and  C_19
REMARK    8  A    between atoms: N_17  and  C_18
REMARK    9  A    between atoms: C_22  and  O_25
REMARK                            x       y       z     vdW  Elec       q    Type
REMARK                         _______ _______ _______ _____ _____    ______ ____
ROOT
ATOM      1  S   UNL     1      -0.332  -1.154   6.263  0.00  0.00    -0.077 S 
ENDROOT
BRANCH   1   2
ATOM      2  C   UNL     1      -0.411  -0.125   7.691  0.00  0.00    +0.192 A 
ATOM      3  N   UNL     1      -0.424   1.189   7.705  0.00  0.00    -0.122 NA
ATOM      4  N   UNL     1      -0.488   1.617   8.915  0.00  0.00    -0.128 NA
ATOM      5  C   UNL     1      -0.519   0.603   9.748  0.00  0.00    +0.165 A 
ATOM      6  N   UNL     1      -0.477  -0.544   8.990  0.00  0.00    -0.305 N 
ATOM      7  C   UNL     1      -0.494  -1.927   9.474  0.00  0.00    +0.153 C 
BRANCH   5   8
ATOM      8  C   UNL     1      -0.591   0.679  11.223  0.00  0.00    +0.019 A 
ATOM      9  C   UNL     1      -0.202  -0.413  12.000  0.00  0.00    +0.015 A 
ATOM     10  C   UNL     1      -0.270  -0.338  13.375  0.00  0.00    +0.046 A 
ATOM     11  C   UNL     1      -0.726   0.822  13.987  0.00  0.00    +0.117 A 
ATOM     12  C   UNL     1      -1.115   1.911  13.217  0.00  0.00    +0.046 A 
ATOM     13  C   UNL     1      -1.044   1.846  11.842  0.00  0.00    +0.015 A 
BRANCH  11  14
ATOM     14  O   UNL     1      -0.793   0.892  15.342  0.00  0.00    -0.507 OA
ATOM     15  H   UNL     1       0.014   1.224  15.759  0.00  0.00    +0.292 HD
ENDBRANCH  11  14
ENDBRANCH   5   8
ENDBRANCH   1   2
BRANCH   1  16
ATOM     16  C   UNL     1      -0.267   0.018   4.881  0.00  0.00    +0.173 C 
BRANCH  16  18
ATOM     17  N   UNL     1      -0.138  -0.073   2.412  0.00  0.00    -0.285 N 
ATOM     18  C   UNL     1      -0.195  -0.742   3.581  0.00  0.00    +0.227 C 
ATOM     19  O   UNL     1      -0.190  -1.955   3.587  0.00  0.00    -0.275 OA
ATOM     20  H   UNL     1      -0.086   0.895   2.409  0.00  0.00    +0.155 HD
BRANCH  17  27
ATOM     21  C   UNL     1      -1.462   1.108   0.188  0.00  0.00    +0.046 C 
ATOM     22  C   UNL     1      -0.788  -0.237   0.092  0.00  0.00    -0.025 A 
ATOM     23  C   UNL     1      -0.797  -0.931  -1.103  0.00  0.00    -0.032 A 
ATOM     24  C   UNL     1      -0.179  -2.165  -1.191  0.00  0.00    +0.021 A 
ATOM     25  C   UNL     1       0.449  -2.709  -0.084  0.00  0.00    +0.017 A 
ATOM     26  C   UNL     1       0.461  -2.019   1.112  0.00  0.00    +0.024 A 
ATOM     27  C   UNL     1      -0.154  -0.777   1.202  0.00  0.00    +0.037 A 
ATOM     28 BR   UNL     1      -0.194  -3.112  -2.828  0.00  0.00    -0.050 Br
ATOM     29  C   UNL     1      -1.480  -0.342  -2.310  0.00  0.00    +0.045 C 
ENDBRANCH  17  27
ENDBRANCH  16  18
ENDBRANCH   1  16
TORSDOF 6
