REMARK  Name = ZINC40983794
REMARK  13 active torsions:
REMARK  status: ('A' for Active; 'I' for Inactive)
REMARK    1  A    between atoms: C_1  and  C_2
REMARK    2  A    between atoms: C_2  and  O_3
REMARK    3  A    between atoms: O_3  and  C_4
REMARK    4  A    between atoms: C_7  and  C_10
REMARK    5  A    between atoms: C_12  and  C_16
REMARK    6  A    between atoms: C_13  and  C_15
REMARK    7  A    between atoms: C_16  and  N_17
REMARK    8  A    between atoms: C_20  and  C_23
REMARK    9  A    between atoms: C_32  and  O_34
REMARK   10  A    between atoms: O_34  and  C_35
REMARK   11  A    between atoms: C_35  and  C_36
REMARK   12  A    between atoms: C_35  and  C_37
REMARK   13  A    between atoms: C_35  and  C_38
REMARK                            x       y       z     vdW  Elec       q    Type
REMARK                         _______ _______ _______ _____ _____    ______ ____
ROOT
ATOM      1  N   UNL     1       3.577  -9.424  -3.464  0.00  0.00    +0.383 N 
ATOM      2  C   UNL     1       3.588  -9.758  -2.035  0.00  0.00    -0.078 C 
ATOM      3  C   UNL     1       5.026 -10.021  -1.580  0.00  0.00    -0.006 C 
ATOM      4  C   UNL     1       5.604 -11.189  -2.384  0.00  0.00    +0.072 C 
ATOM      5  C   UNL     1       5.518 -10.861  -3.877  0.00  0.00    -0.006 C 
ATOM      6  C   UNL     1       4.062 -10.566  -4.247  0.00  0.00    -0.078 C 
ATOM      7  H   UNL     1       4.175  -8.628  -3.626  0.00  0.00    -0.081 HD
ENDROOT
BRANCH   4   8
ATOM      8  C   UNL     1       7.044 -11.403  -1.997  0.00  0.00    +0.219 C 
ATOM      9  O   UNL     1       7.686 -10.492  -1.520  0.00  0.00    -0.275 OA
ATOM     10  N   UNL     1       7.619 -12.608  -2.181  0.00  0.00    -0.300 N 
ATOM     11  C   UNL     1       8.979 -12.798  -1.677  0.00  0.00    +0.109 C 
ATOM     12  C   UNL     1       8.888 -13.480  -0.327  0.00  0.00    +0.038 C 
ATOM     13  C   UNL     1       8.830 -15.000  -0.501  0.00  0.00    +0.112 C 
ATOM     14  N   UNL     1       7.968 -15.408  -1.620  0.00  0.00    -0.266 N 
ATOM     15  C   UNL     1       6.671 -14.810  -1.886  0.00  0.00    +0.130 C 
ATOM     16  C   UNL     1       6.861 -13.609  -2.846  0.00  0.00    +0.127 C 
ATOM     17  C   UNL     1       8.404 -16.384  -2.441  0.00  0.00    +0.403 C 
ATOM     18  O   UNL     1       9.484 -16.904  -2.247  0.00  0.00    -0.226 OA
BRANCH  17  19
ATOM     19  O   UNL     1       7.641 -16.783  -3.476  0.00  0.00    -0.445 OA
BRANCH  19  20
ATOM     20  C   UNL     1       8.165 -17.823  -4.305  0.00  0.00    +0.107 C 
ATOM     21  C   UNL     1       8.402 -19.077  -3.461  0.00  0.00    +0.055 C 
ATOM     22  C   UNL     1       7.165 -18.139  -5.420  0.00  0.00    +0.055 C 
ATOM     23  C   UNL     1       9.488 -17.366  -4.922  0.00  0.00    +0.055 C 
ENDBRANCH  19  20
ENDBRANCH  17  19
ENDBRANCH   4   8
BRANCH   1  24
ATOM     24  C   UNL     1       2.206  -9.096  -3.878  0.00  0.00    -0.019 C 
BRANCH  24  27
ATOM     25  C   UNL     1       1.380  -5.773  -2.714  0.00  0.00    +0.228 A 
ATOM     26  N   UNL     1       1.900  -6.589  -3.601  0.00  0.00    -0.216 NA
ATOM     27  C   UNL     1       1.750  -7.849  -3.164  0.00  0.00    +0.066 A 
ATOM     28  C   UNL     1       1.120  -7.802  -1.977  0.00  0.00    +0.124 A 
ATOM     29  O   UNL     1       0.895  -6.503  -1.694  0.00  0.00    -0.440 OA
ATOM     30  C   UNL     1       0.742  -8.981  -1.118  0.00  0.00    +0.088 C 
BRANCH  25  34
ATOM     31  C   UNL     1       1.266  -1.537  -3.008  0.00  0.00    +0.121 A 
ATOM     32  C   UNL     1       0.725  -2.169  -1.895  0.00  0.00    +0.046 A 
ATOM     33  C   UNL     1       0.760  -3.543  -1.796  0.00  0.00    +0.017 A 
ATOM     34  C   UNL     1       1.340  -4.300  -2.817  0.00  0.00    +0.037 A 
ATOM     35  C   UNL     1       1.882  -3.661  -3.933  0.00  0.00    +0.017 A 
ATOM     36  C   UNL     1       1.838  -2.287  -4.027  0.00  0.00    +0.046 A 
BRANCH  31  37
ATOM     37  O   UNL     1       1.230  -0.182  -3.101  0.00  0.00    -0.492 OA
BRANCH  37  39
ATOM     38  C   UNL     1       0.678   2.030  -2.300  0.00  0.00    +0.048 C 
ATOM     39  C   UNL     1       0.626   0.527  -2.018  0.00  0.00    +0.225 C 
ENDBRANCH  37  39
ENDBRANCH  31  37
ENDBRANCH  25  34
ENDBRANCH  24  27
ENDBRANCH   1  24
TORSDOF 8
