REMARK  Name = ZINC20735269
REMARK  4 active torsions:
REMARK  status: ('A' for Active; 'I' for Inactive)
REMARK    1  A    between atoms: C_1  and  C_2
REMARK    2  A    between atoms: C_2  and  C_3
REMARK    3  A    between atoms: C_2  and  C_4
REMARK    4  A    between atoms: N_19  and  C_20
REMARK                            x       y       z     vdW  Elec       q    Type
REMARK                         _______ _______ _______ _____ _____    ______ ____
ROOT
ATOM      1  C   UNL     1       0.707  -0.490  -1.238  0.00  0.00    -0.044 A 
ATOM      2  C   UNL     1       0.210  -0.143  -2.478  0.00  0.00    +0.006 A 
ATOM      3  C   UNL     1       0.816  -0.558  -3.653  0.00  0.00    +0.024 A 
ATOM      4  C   UNL     1       1.959  -1.351  -3.538  0.00  0.00    +0.038 A 
ATOM      5  C   UNL     1       2.453  -1.697  -2.273  0.00  0.00    -0.006 A 
ATOM      6  C   UNL     1       1.849  -1.274  -1.109  0.00  0.00    +0.010 A 
ATOM      7  C   UNL     1       3.664  -2.539  -2.515  0.00  0.00    +0.111 C 
ATOM      8  C   UNL     1       3.491  -3.938  -1.930  0.00  0.00    +0.122 C 
ATOM      9  C   UNL     1       3.763  -3.949  -0.451  0.00  0.00    +0.220 C 
ATOM     10  O   UNL     1       3.087  -4.656   0.266  0.00  0.00    -0.275 OA
ATOM     11  N   UNL     1       4.737  -3.196   0.104  0.00  0.00    -0.270 N 
ATOM     12  C   UNL     1       5.372  -2.243  -0.691  0.00  0.00    +0.133 A 
ATOM     13  C   UNL     1       4.897  -1.906  -1.933  0.00  0.00    +0.032 A 
ATOM     14  C   UNL     1       5.741  -0.942  -2.465  0.00  0.00    +0.141 A 
ATOM     15  N   UNL     1       6.684  -0.689  -1.588  0.00  0.00    -0.173 NA
ATOM     16  N   UNL     1       6.466  -1.491  -0.456  0.00  0.00    -0.218 N 
ATOM     17  C   UNL     1       3.778  -2.614  -4.022  0.00  0.00    +0.233 C 
ATOM     18  O   UNL     1       4.628  -3.205  -4.654  0.00  0.00    -0.274 OA
ATOM     19  N   UNL     1       2.752  -1.899  -4.530  0.00  0.00    -0.284 N 
ATOM     20  H   UNL     1       4.988  -3.316   1.033  0.00  0.00    +0.156 HD
ATOM     21  H   UNL     1       2.590  -1.782  -5.479  0.00  0.00    +0.155 HD
ENDROOT
BRANCH  16  22
ATOM     22  C   UNL     1       7.247  -1.508   0.709  0.00  0.00    +0.067 A 
ATOM     23  C   UNL     1       6.649  -1.717   1.944  0.00  0.00    +0.029 A 
ATOM     24  C   UNL     1       7.420  -1.733   3.089  0.00  0.00    +0.017 A 
ATOM     25  C   UNL     1       8.788  -1.541   3.007  0.00  0.00    +0.018 A 
ATOM     26  C   UNL     1       9.386  -1.332   1.777  0.00  0.00    +0.017 A 
ATOM     27  C   UNL     1       8.620  -1.321   0.628  0.00  0.00    +0.029 A 
ATOM     28 BR   UNL     1       9.841  -1.562   4.577  0.00  0.00    -0.050 Br
ENDBRANCH  16  22
BRANCH   1  30
ATOM     29  C   UNL     1      -0.019   1.526   0.010  0.00  0.00    +0.012 C 
ATOM     30  C   UNL     1       0.002  -0.004   0.002  0.00  0.00    +0.013 C 
ATOM     31  C   UNL     1      -1.433  -0.534   0.013  0.00  0.00    +0.012 C 
ENDBRANCH   1  30
TORSDOF 2
