REMARK  Name = ZINC63513893
REMARK  9 active torsions:
REMARK  status: ('A' for Active; 'I' for Inactive)
REMARK    1  A    between atoms: C_1  and  C_2
REMARK    2  A    between atoms: C_4  and  C_12
REMARK    3  A    between atoms: C_12  and  C_13
REMARK    4  A    between atoms: C_13  and  N_14
REMARK    5  A    between atoms: C_15  and  C_17
REMARK    6  A    between atoms: C_17  and  N_28
REMARK    7  A    between atoms: C_18  and  C_19
REMARK    8  A    between atoms: C_23  and  N_25
REMARK    9  A    between atoms: C_29  and  C_31
REMARK                            x       y       z     vdW  Elec       q    Type
REMARK                         _______ _______ _______ _____ _____    ______ ____
ROOT
ATOM      1  C   UNL     1      -7.124  -0.883  -2.074  0.00  0.00    +0.097 C 
ATOM      2  C   UNL     1      -6.714  -0.632  -3.338  0.00  0.00    +0.036 C 
ENDROOT
BRANCH   2   3
ATOM      3  C   UNL     1      -7.688  -0.633  -4.441  0.00  0.00    -0.021 A 
ATOM      4  C   UNL     1      -9.056  -0.525  -4.171  0.00  0.00    +0.008 A 
ATOM      5  C   UNL     1      -9.963  -0.526  -5.210  0.00  0.00    +0.003 A 
ATOM      6  C   UNL     1      -9.522  -0.635  -6.517  0.00  0.00    +0.033 A 
ATOM      7  C   UNL     1      -8.170  -0.743  -6.793  0.00  0.00    +0.127 A 
ATOM      8  C   UNL     1      -7.250  -0.736  -5.765  0.00  0.00    +0.040 A 
BRANCH   7   9
ATOM      9  N   UNL     1      -7.709  -0.860  -8.195  0.00  0.00    +0.056 N 
ATOM     10  O   UNL     1      -8.514  -0.861  -9.097  0.00  0.00    -0.126 OA
ATOM     11  O   UNL     1      -6.528  -0.954  -8.437  0.00  0.00    -0.126 OA
ENDBRANCH   7   9
ENDBRANCH   2   3
BRANCH   1  13
ATOM     12  N   UNL     1      -4.926  -0.307  -1.181  0.00  0.00    -0.310 N 
ATOM     13  C   UNL     1      -6.190  -0.713  -0.951  0.00  0.00    +0.258 C 
ATOM     14  O   UNL     1      -6.559  -0.939   0.186  0.00  0.00    -0.269 OA
ATOM     15  H   UNL     1      -4.632  -0.127  -2.088  0.00  0.00    +0.149 HD
BRANCH  12  16
ATOM     16  C   UNL     1      -3.995  -0.138  -0.062  0.00  0.00    +0.109 C 
BRANCH  16  17
ATOM     17  C   UNL     1      -2.638   0.326  -0.594  0.00  0.00    +0.052 C 
BRANCH  17  20
ATOM     18  C   UNL     1      -0.149   2.349  -0.121  0.00  0.00    +0.035 C 
ATOM     19  C   UNL     1      -0.237   0.945   0.480  0.00  0.00    +0.103 C 
ATOM     20  C   UNL     1      -1.681   0.500   0.557  0.00  0.00    -0.037 C 
ATOM     21  C   UNL     1      -1.939   0.290   1.868  0.00  0.00    -0.001 A 
ATOM     22  C   UNL     1      -3.142  -0.145   2.588  0.00  0.00    +0.010 A 
ATOM     23  C   UNL     1      -3.094  -0.266   3.934  0.00  0.00    +0.001 A 
ATOM     24  C   UNL     1      -1.926   0.015   4.658  0.00  0.00    +0.002 A 
ATOM     25  C   UNL     1      -0.782   0.420   4.067  0.00  0.00    +0.026 A 
ATOM     26  C   UNL     1      -0.719   0.580   2.656  0.00  0.00    +0.043 A 
ATOM     27  N   UNL     1       0.257   0.954   1.862  0.00  0.00    -0.378 N 
ATOM     28  H   UNL     1       1.154   1.197   2.140  0.00  0.00    +0.160 HD
ENDBRANCH  17  20
ENDBRANCH  16  17
ENDBRANCH  12  16
ENDBRANCH   1  13
BRANCH   1  29
ATOM     29  N   UNL     1      -8.435  -1.304  -1.835  0.00  0.00    -0.277 N 
ATOM     30  C   UNL     1      -9.229  -0.599  -1.004  0.00  0.00    +0.250 C 
ATOM     31  O   UNL     1      -8.776   0.348  -0.389  0.00  0.00    -0.270 OA
ATOM     32  H   UNL     1      -8.775  -2.103  -2.267  0.00  0.00    +0.155 HD
BRANCH  30  33
ATOM     33  C   UNL     1     -10.647  -0.976  -0.839  0.00  0.00    +0.055 A 
ATOM     34  C   UNL     1     -11.167  -2.071  -1.534  0.00  0.00    +0.014 A 
ATOM     35  C   UNL     1     -12.492  -2.418  -1.376  0.00  0.00    +0.001 A 
ATOM     36  C   UNL     1     -13.308  -1.685  -0.531  0.00  0.00    +0.001 A 
ATOM     37  C   UNL     1     -12.801  -0.599   0.160  0.00  0.00    +0.021 A 
ATOM     38  C   UNL     1     -11.474  -0.244   0.016  0.00  0.00    +0.053 A 
ATOM     39 CL   UNL     1     -10.837   1.114   0.890  0.00  0.00    -0.083 Cl
ENDBRANCH  30  33
ENDBRANCH   1  29
TORSDOF 8
