REMARK  Name = ZINC20902842
REMARK  10 active torsions:
REMARK  status: ('A' for Active; 'I' for Inactive)
REMARK    1  A    between atoms: C_1  and  C_2
REMARK    2  A    between atoms: C_2  and  C_28
REMARK    3  A    between atoms: N_15  and  C_16
REMARK    4  A    between atoms: C_16  and  C_17
REMARK    5  A    between atoms: C_17  and  C_18
REMARK    6  A    between atoms: C_18  and  N_19
REMARK    7  A    between atoms: N_19  and  C_20
REMARK    8  A    between atoms: N_19  and  C_21
REMARK    9  A    between atoms: C_21  and  C_22
REMARK   10  A    between atoms: N_30  and  C_31
REMARK                            x       y       z     vdW  Elec       q    Type
REMARK                         _______ _______ _______ _____ _____    ______ ____
ROOT
ATOM      1  C   UNL     1      -0.426   3.074   1.426  0.00  0.00    +0.043 C 
ATOM      2  C   UNL     1      -0.739   1.585   1.268  0.00  0.00    +0.128 C 
ATOM      3  C   UNL     1      -0.034   1.062   0.017  0.00  0.00    +0.157 C 
ATOM      4  N   UNL     1      -0.728   1.560  -1.176  0.00  0.00    -0.334 N 
ATOM      5  C   UNL     1      -0.252   1.838  -2.413  0.00  0.00    +0.050 A 
ATOM      6  C   UNL     1       1.029   1.767  -2.962  0.00  0.00    +0.026 A 
ATOM      7  C   UNL     1       1.165   2.130  -4.290  0.00  0.00    +0.002 A 
ATOM      8  C   UNL     1       0.089   2.547  -5.058  0.00  0.00    +0.001 A 
ATOM      9  C   UNL     1      -1.182   2.628  -4.549  0.00  0.00    +0.010 A 
ATOM     10  C   UNL     1      -1.352   2.269  -3.204  0.00  0.00    +0.001 A 
ATOM     11  C   UNL     1      -2.493   2.243  -2.381  0.00  0.00    +0.041 A 
ATOM     12  C   UNL     1      -2.100   1.821  -1.161  0.00  0.00    +0.106 A 
ATOM     13  C   UNL     1      -2.887   1.638   0.073  0.00  0.00    +0.264 C 
ATOM     14  O   UNL     1      -4.102   1.688   0.070  0.00  0.00    -0.268 OA
ATOM     15  N   UNL     1      -2.186   1.411   1.208  0.00  0.00    -0.281 N 
ENDROOT
BRANCH   2  16
ATOM     16  C   UNL     1      -0.208   0.848   2.470  0.00  0.00    +0.238 C 
ATOM     17  O   UNL     1       0.291  -0.249   2.337  0.00  0.00    -0.273 OA
ATOM     18  N   UNL     1      -0.287   1.409   3.693  0.00  0.00    -0.311 N 
ATOM     19  H   UNL     1      -0.819   2.362   3.828  0.00  0.00    +0.149 HD
BRANCH  18  20
ATOM     20  C   UNL     1       0.335   0.749   4.843  0.00  0.00    +0.073 C 
ATOM     21  C   UNL     1      -0.629  -0.290   5.418  0.00  0.00    +0.022 C 
ATOM     22  C   UNL     1       0.020  -0.980   6.620  0.00  0.00    +0.002 C 
ATOM     23  C   UNL     1       0.345   0.062   7.692  0.00  0.00    +0.000 C 
ATOM     24  C   UNL     1       1.310   1.101   7.117  0.00  0.00    +0.002 C 
ATOM     25  C   UNL     1       0.660   1.791   5.915  0.00  0.00    +0.022 C 
ENDBRANCH  18  20
ENDBRANCH   2  16
BRANCH  15  26
ATOM     26  C   UNL     1      -2.901   0.978   2.411  0.00  0.00    +0.107 C 
BRANCH  26  27
ATOM     27  C   UNL     1      -3.080  -0.541   2.380  0.00  0.00    +0.000 C 
BRANCH  27  28
ATOM     28  C   UNL     1      -3.827  -0.993   3.636  0.00  0.00    -0.077 C 
BRANCH  28  29
ATOM     29  N   UNL     1      -3.998  -2.451   3.606  0.00  0.00    +0.381 N 
ATOM     30  C   UNL     1      -4.887  -2.854   2.508  0.00  0.00    -0.096 C 
ATOM     31  H   UNL     1      -3.012  -2.904   3.426  0.00  0.00    -0.082 HD
BRANCH  29  32
ATOM     32  C   UNL     1      -4.496  -2.950   4.896  0.00  0.00    -0.043 C 
BRANCH  32  33
ATOM     33  C   UNL     1      -4.427  -4.455   4.912  0.00  0.00    -0.064 A 
ATOM     34  C   UNL     1      -5.506  -5.201   4.477  0.00  0.00    +0.002 A 
ATOM     35  C   UNL     1      -5.442  -6.582   4.488  0.00  0.00    +0.000 A 
ATOM     36  C   UNL     1      -4.301  -7.216   4.944  0.00  0.00    +0.000 A 
ATOM     37  C   UNL     1      -3.224  -6.470   5.385  0.00  0.00    +0.000 A 
ATOM     38  C   UNL     1      -3.287  -5.090   5.369  0.00  0.00    +0.002 A 
ENDBRANCH  32  33
ENDBRANCH  29  32
ENDBRANCH  28  29
ENDBRANCH  27  28
ENDBRANCH  26  27
ENDBRANCH  15  26
TORSDOF 8
