REMARK  Name = ZINC39466498
REMARK  4 active torsions:
REMARK  status: ('A' for Active; 'I' for Inactive)
REMARK    1  A    between atoms: C_4  and  C_7
REMARK    2  A    between atoms: C_7  and  C_8
REMARK    3  A    between atoms: P_17  and  C_27
REMARK    4  A    between atoms: C_27  and  C_28
REMARK                            x       y       z     vdW  Elec       q    Type
REMARK                         _______ _______ _______ _____ _____    ______ ____
ROOT
ATOM      1  C   UNL     1       4.164  -0.959   1.377  0.00  0.00    -0.033 C 
ATOM      2  C   UNL     1       3.894  -2.119   1.972  0.00  0.00    -0.018 C 
ATOM      3  C   UNL     1       4.344  -2.348   3.389  0.00  0.00    +0.016 C 
ATOM      4  C   UNL     1       3.494  -3.422   4.054  0.00  0.00    -0.003 C 
ATOM      5  C   UNL     1       2.038  -2.958   4.188  0.00  0.00    -0.020 C 
ATOM      6  C   UNL     1       1.268  -4.085   4.889  0.00  0.00    +0.156 C 
ATOM      7  O   UNL     1      -0.120  -3.724   4.999  0.00  0.00    -0.319 OA
ATOM      8  P   UNL     1      -0.472  -2.262   5.621  0.00  0.00    +0.262 P 
ATOM      9  O   UNL     1      -0.397  -2.301   7.098  0.00  0.00    -0.274 OA
ATOM     10  N   UNL     1       0.679  -1.246   5.016  0.00  0.00    -0.291 NA
ATOM     11  N   UNL     1       1.976  -1.712   4.955  0.00  0.00    +0.397 N 
ATOM     12  C   UNL     1       2.751  -0.657   4.282  0.00  0.00    -0.046 C 
ATOM     13  C   UNL     1       4.210  -1.046   4.184  0.00  0.00    +0.005 C 
ATOM     14  C   UNL     1       4.938   0.051   3.444  0.00  0.00    -0.009 C 
ATOM     15  C   UNL     1       4.916   0.074   2.112  0.00  0.00    +0.017 C 
ATOM     16 BR   UNL     1       5.838   1.427   1.167  0.00  0.00    -0.050 Br
ATOM     17  H   UNL     1       0.451  -0.352   4.715  0.00  0.00    +0.111 HD
ATOM     18  H   UNL     1       2.329  -1.868   5.887  0.00  0.00    -0.055 HD
ENDROOT
BRANCH   1  19
ATOM     19  C   UNL     1       3.711  -0.707  -0.038  0.00  0.00    +0.071 C 
BRANCH  19  23
ATOM     20  C   UNL     1      -0.017   1.378   0.010  0.00  0.00    +0.000 A 
ATOM     21  C   UNL     1       1.171   2.086   0.002  0.00  0.00    +0.000 A 
ATOM     22  C   UNL     1       2.377   1.411  -0.013  0.00  0.00    +0.004 A 
ATOM     23  C   UNL     1       2.396   0.029  -0.020  0.00  0.00    -0.043 A 
ATOM     24  C   UNL     1       1.208  -0.679  -0.012  0.00  0.00    +0.004 A 
ATOM     25  C   UNL     1       0.002  -0.004   0.002  0.00  0.00    +0.000 A 
ENDBRANCH  19  23
ENDBRANCH   1  19
BRANCH   8  26
ATOM     26  C   UNL     1      -2.132  -1.731   5.087  0.00  0.00    +0.147 C 
BRANCH  26  27
ATOM     27  C   UNL     1      -3.156  -2.728   5.564  0.00  0.00    -0.037 A 
ATOM     28  C   UNL     1      -3.493  -3.808   4.769  0.00  0.00    +0.004 A 
ATOM     29  C   UNL     1      -4.432  -4.723   5.207  0.00  0.00    +0.000 A 
ATOM     30  C   UNL     1      -5.035  -4.558   6.440  0.00  0.00    +0.000 A 
ATOM     31  C   UNL     1      -4.697  -3.479   7.235  0.00  0.00    +0.000 A 
ATOM     32  C   UNL     1      -3.755  -2.567   6.800  0.00  0.00    +0.004 A 
ENDBRANCH  26  27
ENDBRANCH   8  26
TORSDOF 4
