REMARK  Name = ZINC14075225
REMARK  9 active torsions:
REMARK  status: ('A' for Active; 'I' for Inactive)
REMARK    1  A    between atoms: C_1  and  C_2
REMARK    2  A    between atoms: C_5  and  C_7
REMARK    3  A    between atoms: C_7  and  N_58
REMARK    4  A    between atoms: C_8  and  N_58
REMARK    5  A    between atoms: C_9  and  C_10
REMARK    6  A    between atoms: C_9  and  N_58
REMARK    7  A    between atoms: N_12  and  C_13
REMARK    8  A    between atoms: C_15  and  S_20
REMARK    9  A    between atoms: S_20  and  N_23
REMARK                            x       y       z     vdW  Elec       q    Type
REMARK                         _______ _______ _______ _____ _____    ______ ____
ROOT
ATOM      1  C   UNL     1       2.338   1.173   0.079  0.00  0.00    +0.054 A 
ATOM      2  C   UNL     1       2.310  -0.216   0.070  0.00  0.00    +0.053 A 
ATOM      3  C   UNL     1       3.491  -0.929   0.142  0.00  0.00    +0.107 A 
ATOM      4  C   UNL     1       4.699  -0.263   0.234  0.00  0.00    +0.030 A 
ATOM      5  C   UNL     1       4.731   1.119   0.248  0.00  0.00    +0.024 A 
ATOM      6  C   UNL     1       3.553   1.840   0.171  0.00  0.00    +0.062 A 
ATOM      7 CL   UNL     1       3.593   3.575   0.189  0.00  0.00    -0.082 Cl
ENDROOT
BRANCH   1  10
ATOM      8  C   UNL     1       0.054   1.345  -0.567  0.00  0.00    +0.201 C 
ATOM      9  O   UNL     1       0.134   0.258  -1.100  0.00  0.00    -0.278 OA
ATOM     10  N   UNL     1       1.143   1.898   0.001  0.00  0.00    -0.286 N 
ATOM     11  H   UNL     1       1.100   2.800   0.356  0.00  0.00    +0.155 HD
BRANCH   8  12
ATOM     12  C   UNL     1      -1.262   2.078  -0.545  0.00  0.00    +0.019 C 
BRANCH  12  14
ATOM     13  C   UNL     1      -2.560   0.035  -0.489  0.00  0.00    -0.095 C 
ATOM     14  N   UNL     1      -2.272   1.266  -1.255  0.00  0.00    +0.388 N 
ATOM     15  H   UNL     1      -1.903   1.006  -2.178  0.00  0.00    -0.081 HD
BRANCH  14  16
ATOM     16  C   UNL     1      -3.513   2.049  -1.438  0.00  0.00    -0.003 C 
BRANCH  16  21
ATOM     17  C   UNL     1      -5.765   0.361  -5.624  0.00  0.00    +0.086 C 
ATOM     18  C   UNL     1      -5.418   0.552  -4.170  0.00  0.00    +0.102 A 
ATOM     19  C   UNL     1      -6.007  -0.071  -3.133  0.00  0.00    +0.044 A 
ATOM     20  C   UNL     1      -5.372   0.398  -1.960  0.00  0.00    +0.043 A 
ATOM     21  C   UNL     1      -4.439   1.286  -2.350  0.00  0.00    +0.089 A 
ATOM     22  O   UNL     1      -4.470   1.372  -3.689  0.00  0.00    -0.467 OA
ENDBRANCH  16  21
ENDBRANCH  14  16
ENDBRANCH  12  14
ENDBRANCH   8  12
ENDBRANCH   1  10
BRANCH   3  23
ATOM     23  S   UNL     1       3.457  -2.691   0.124  0.00  0.00    +0.061 S 
ATOM     24  O   UNL     1       2.246  -3.067  -0.518  0.00  0.00    -0.153 OA
ATOM     25  O   UNL     1       4.730  -3.117  -0.342  0.00  0.00    -0.153 OA
BRANCH  23  26
ATOM     26  N   UNL     1       3.335  -3.194   1.697  0.00  0.00    -0.177 NA
ATOM     27  C   UNL     1       4.549  -3.436   2.443  0.00  0.00    +0.109 C 
ATOM     28  C   UNL     1       4.999  -4.900   2.254  0.00  0.00    +0.017 C 
ATOM     29  C   UNL     1       4.090  -5.809   2.968  0.00  0.00    +0.001 C 
ATOM     30  C   UNL     1       2.651  -5.786   2.460  0.00  0.00    +0.001 C 
ATOM     31  C   UNL     1       1.902  -4.661   3.131  0.00  0.00    +0.017 C 
ATOM     32  C   UNL     1       1.991  -3.383   2.277  0.00  0.00    +0.109 C 
ENDBRANCH  23  26
ENDBRANCH   3  23
TORSDOF 7
