REMARK  Name = ZINC35887034
REMARK  8 active torsions:
REMARK  status: ('A' for Active; 'I' for Inactive)
REMARK    1  A    between atoms: C_1  and  C_2
REMARK    2  A    between atoms: C_2  and  C_3
REMARK    3  A    between atoms: N_7  and  C_28
REMARK    4  A    between atoms: C_11  and  N_16
REMARK    5  A    between atoms: N_16  and  S_17
REMARK    6  A    between atoms: S_17  and  C_20
REMARK    7  A    between atoms: C_23  and  C_27
REMARK    8  A    between atoms: C_28  and  C_29
REMARK                            x       y       z     vdW  Elec       q    Type
REMARK                         _______ _______ _______ _____ _____    ______ ____
ROOT
ATOM      1  C   UNL     1       0.772  -0.437  -1.405  0.00  0.00    +0.258 C 
ATOM      2  C   UNL     1       0.952  -1.924  -1.409  0.00  0.00    +0.257 C 
ATOM      3  O   UNL     1       2.091  -2.275  -1.181  0.00  0.00    -0.272 OA
ATOM      4  N   UNL     1       0.152  -2.891  -1.602  0.00  0.00    -0.290 N 
ATOM      5  C   UNL     1      -1.173  -2.967  -2.121  0.00  0.00    +0.147 C 
ATOM      6  C   UNL     1      -1.830  -1.718  -2.622  0.00  0.00    +0.013 A 
ATOM      7  C   UNL     1      -3.153  -1.928  -3.041  0.00  0.00    +0.033 A 
ATOM      8  C   UNL     1      -3.942  -0.886  -3.485  0.00  0.00    +0.049 A 
ATOM      9  C   UNL     1      -3.407   0.396  -3.504  0.00  0.00    +0.028 A 
ATOM     10  C   UNL     1      -2.108   0.588  -3.113  0.00  0.00    +0.048 A 
ATOM     11  C   UNL     1      -1.288  -0.487  -2.692  0.00  0.00    +0.126 A 
ATOM     12  O   UNL     1      -0.015  -0.029  -2.506  0.00  0.00    -0.479 OA
ENDROOT
BRANCH   1  14
ATOM     13  C   UNL     1       0.018   1.512  -0.036  0.00  0.00    +0.008 C 
ATOM     14  C   UNL     1       0.081  -0.015  -0.107  0.00  0.00    +0.051 C 
ENDBRANCH   1  14
BRANCH   8  15
ATOM     15  N   UNL     1      -5.255  -1.117  -3.908  0.00  0.00    -0.216 N 
ATOM     16  H   UNL     1      -5.449  -1.855  -4.506  0.00  0.00    +0.174 HD
BRANCH  15  17
ATOM     17  S   UNL     1      -6.478  -0.129  -3.388  0.00  0.00    +0.072 S 
ATOM     18  O   UNL     1      -6.069   1.204  -3.662  0.00  0.00    -0.150 OA
ATOM     19  O   UNL     1      -7.687  -0.675  -3.898  0.00  0.00    -0.150 OA
BRANCH  17  20
ATOM     20  C   UNL     1      -6.559  -0.280  -1.634  0.00  0.00    +0.111 A 
ATOM     21  C   UNL     1      -7.280  -1.313  -1.062  0.00  0.00    +0.029 A 
ATOM     22  C   UNL     1      -7.344  -1.433   0.314  0.00  0.00    +0.008 A 
ATOM     23  C   UNL     1      -6.689  -0.520   1.119  0.00  0.00    -0.015 A 
ATOM     24  C   UNL     1      -5.967   0.514   0.547  0.00  0.00    +0.128 A 
ATOM     25  C   UNL     1      -5.899   0.629  -0.831  0.00  0.00    +0.067 A 
ATOM     26  F   UNL     1      -5.327   1.407   1.333  0.00  0.00    -0.205 F 
ATOM     27  C   UNL     1      -6.760  -0.650   2.619  0.00  0.00    +0.047 C 
ENDBRANCH  17  20
ENDBRANCH  15  17
ENDBRANCH   8  15
BRANCH   4  28
ATOM     28  C   UNL     1       0.702  -4.192  -1.212  0.00  0.00    +0.146 C 
BRANCH  28  29
ATOM     29  C   UNL     1       0.367  -4.466   0.232  0.00  0.00    +0.005 A 
ATOM     30  C   UNL     1       1.314  -4.245   1.214  0.00  0.00    +0.008 A 
ATOM     31  C   UNL     1       1.008  -4.497   2.539  0.00  0.00    +0.000 A 
ATOM     32  C   UNL     1      -0.246  -4.970   2.882  0.00  0.00    +0.003 A 
ATOM     33  C   UNL     1      -1.194  -5.191   1.901  0.00  0.00    +0.038 A 
ATOM     34  C   UNL     1      -0.889  -4.934   0.574  0.00  0.00    +0.128 A 
ATOM     35  F   UNL     1      -1.817  -5.145  -0.385  0.00  0.00    -0.205 F 
ENDBRANCH  28  29
ENDBRANCH   4  28
TORSDOF 6
