REMARK  Name = ZINC05752025
REMARK  10 active torsions:
REMARK  status: ('A' for Active; 'I' for Inactive)
REMARK    1  A    between atoms: C_1  and  C_2
REMARK    2  A    between atoms: C_13  and  C_32
REMARK    3  A    between atoms: C_14  and  O_27
REMARK    4  A    between atoms: C_17  and  C_24
REMARK    5  A    between atoms: C_17  and  C_25
REMARK    6  A    between atoms: C_18  and  O_23
REMARK    7  A    between atoms: C_20  and  C_22
REMARK    8  A    between atoms: O_27  and  C_28
REMARK    9  A    between atoms: C_28  and  C_30
REMARK   10  A    between atoms: C_30  and  O_31
REMARK                            x       y       z     vdW  Elec       q    Type
REMARK                         _______ _______ _______ _____ _____    ______ ____
ROOT
ATOM      1  C   UNL     1      -1.989  -1.783   5.891  0.00  0.00    +0.008 C 
ATOM      2  C   UNL     1      -2.044  -0.935   4.613  0.00  0.00    -0.004 C 
ATOM      3  C   UNL     1      -2.015   0.538   4.987  0.00  0.00    +0.004 C 
ATOM      4  C   UNL     1      -0.633   1.056   5.363  0.00  0.00    +0.008 C 
ATOM      5  C   UNL     1       0.420   0.691   4.335  0.00  0.00    -0.014 C 
ATOM      6  C   UNL     1       1.851   0.859   4.914  0.00  0.00    +0.015 C 
ATOM      7  C   UNL     1       2.686  -0.284   4.290  0.00  0.00    +0.075 C 
ATOM      8  C   UNL     1       1.711  -1.195   3.544  0.00  0.00    +0.138 C 
ATOM      9  O   UNL     1       1.977  -1.998   2.690  0.00  0.00    -0.297 OA
ATOM     10  C   UNL     1       0.392  -0.851   4.144  0.00  0.00    +0.071 C 
ATOM     11  C   UNL     1      -0.904  -1.345   3.684  0.00  0.00    +0.018 C 
ATOM     12  C   UNL     1      -1.232  -1.210   2.217  0.00  0.00    +0.184 C 
ATOM     13  C   UNL     1      -2.367  -0.213   2.019  0.00  0.00    +0.058 C 
ATOM     14  C   UNL     1      -1.787   1.105   1.448  0.00  0.00    +0.015 C 
ATOM     15  C   UNL     1      -0.956   1.838   2.425  0.00  0.00    +0.128 C 
ATOM     16  C   UNL     1       0.338   1.540   3.084  0.00  0.00    +0.022 C 
ATOM     17  C   UNL     1       1.440   1.282   2.067  0.00  0.00    +0.011 C 
ATOM     18  C   UNL     1      -1.132   0.952   0.078  0.00  0.00    +0.018 C 
ATOM     19  C   UNL     1      -0.815  -2.881   3.893  0.00  0.00    +0.016 C 
ENDROOT
BRANCH  15  20
ATOM     20  O   UNL     1      -0.736   3.129   1.790  0.00  0.00    -0.391 OA
ATOM     21  H   UNL     1      -1.533   3.518   1.403  0.00  0.00    +0.210 HD
ENDBRANCH  15  20
BRANCH  14  22
ATOM     22  C   UNL     1      -3.007   2.018   1.193  0.00  0.00    -0.025 C 
ATOM     23  C   UNL     1      -3.329   2.355  -0.031  0.00  0.00    +0.004 C 
ENDBRANCH  14  22
BRANCH  12  24
ATOM     24  O   UNL     1      -0.045  -1.044   1.422  0.00  0.00    -0.459 OA
BRANCH  24  25
ATOM     25  C   UNL     1       0.112  -1.875   0.380  0.00  0.00    +0.333 C 
ATOM     26  O   UNL     1      -0.724  -2.716   0.146  0.00  0.00    -0.248 OA
BRANCH  25  27
ATOM     27  C   UNL     1       1.331  -1.760  -0.499  0.00  0.00    +0.276 C 
BRANCH  27  28
ATOM     28  O   UNL     1       1.269  -2.747  -1.531  0.00  0.00    -0.384 OA
ATOM     29  H   UNL     1       2.023  -2.731  -2.136  0.00  0.00    +0.210 HD
ENDBRANCH  27  28
ENDBRANCH  25  27
ENDBRANCH  24  25
ENDBRANCH  12  24
TORSDOF 6
