REMARK  Name = ZINC08304249
REMARK  5 active torsions:
REMARK  status: ('A' for Active; 'I' for Inactive)
REMARK    1  A    between atoms: C_6  and  C_7
REMARK    2  A    between atoms: C_7  and  N_8
REMARK    3  A    between atoms: C_9  and  C_11
REMARK    4  A    between atoms: C_11  and  N_12
REMARK    5  A    between atoms: C_16  and  N_22
REMARK                            x       y       z     vdW  Elec       q    Type
REMARK                         _______ _______ _______ _____ _____    ______ ____
ROOT
ATOM      1  C   UNL     1      -3.312  -1.942  -3.025  0.00  0.00    +0.224 C 
ENDROOT
BRANCH   1   2
ATOM      2  N   UNL     1      -4.571  -2.692  -3.017  0.00  0.00    -0.265 N 
ATOM      3  C   UNL     1      -4.705  -4.080  -3.018  0.00  0.00    +0.091 A 
ATOM      4  C   UNL     1      -3.793  -5.124  -3.025  0.00  0.00    +0.032 A 
ATOM      5  C   UNL     1      -4.244  -6.429  -3.023  0.00  0.00    +0.035 A 
ATOM      6  C   UNL     1      -5.601  -6.697  -3.014  0.00  0.00    +0.130 A 
ATOM      7  C   UNL     1      -6.516  -5.662  -3.007  0.00  0.00    +0.081 A 
ATOM      8  C   UNL     1      -6.073  -4.348  -3.008  0.00  0.00    +0.159 A 
ATOM      9  O   UNL     1      -6.718  -3.156  -3.003  0.00  0.00    -0.407 OA
ATOM     10  C   UNL     1      -5.812  -2.165  -3.002  0.00  0.00    +0.422 A 
ATOM     11  O   UNL     1      -6.070  -0.977  -2.992  0.00  0.00    -0.223 OA
BRANCH   6  12
ATOM     12  N   UNL     1      -6.076  -8.099  -3.013  0.00  0.00    +0.057 N 
ATOM     13  O   UNL     1      -5.278  -9.007  -3.020  0.00  0.00    -0.126 OA
ATOM     14  O   UNL     1      -7.261  -8.336  -3.005  0.00  0.00    -0.126 OA
ENDBRANCH   6  12
ENDBRANCH   1   2
BRANCH   1  16
ATOM     15  N   UNL     1      -1.726  -1.017  -1.368  0.00  0.00    -0.310 N 
ATOM     16  C   UNL     1      -2.867  -1.693  -1.607  0.00  0.00    +0.233 C 
ATOM     17  O   UNL     1      -3.535  -2.101  -0.681  0.00  0.00    -0.274 OA
ATOM     18  H   UNL     1      -1.191  -0.691  -2.109  0.00  0.00    +0.149 HD
BRANCH  15  19
ATOM     19  C   UNL     1      -1.293  -0.775   0.010  0.00  0.00    +0.139 C 
BRANCH  19  25
ATOM     20  C   UNL     1      -0.017   1.378   0.010  0.00  0.00    +0.008 A 
ATOM     21  C   UNL     1       1.170   2.086   0.002  0.00  0.00    +0.038 A 
ATOM     22  C   UNL     1       2.379   1.410  -0.013  0.00  0.00    +0.123 A 
ATOM     23  C   UNL     1       2.396   0.026  -0.021  0.00  0.00    +0.038 A 
ATOM     24  C   UNL     1       1.208  -0.680  -0.013  0.00  0.00    +0.008 A 
ATOM     25  C   UNL     1       0.002  -0.004   0.002  0.00  0.00    -0.030 A 
ATOM     26  F   UNL     1       3.540   2.101  -0.021  0.00  0.00    -0.205 F 
ENDBRANCH  19  25
ENDBRANCH  15  19
ENDBRANCH   1  16
TORSDOF 5
