REMARK  Name = ZINC65403702
REMARK  7 active torsions:
REMARK  status: ('A' for Active; 'I' for Inactive)
REMARK    1  A    between atoms: C_1  and  N_2
REMARK    2  A    between atoms: C_6  and  C_7
REMARK    3  A    between atoms: C_10  and  C_14
REMARK    4  A    between atoms: N_16  and  C_17
REMARK    5  A    between atoms: C_17  and  C_18
REMARK    6  A    between atoms: C_18  and  C_19
REMARK    7  A    between atoms: C_19  and  C_20
REMARK                            x       y       z     vdW  Elec       q    Type
REMARK                         _______ _______ _______ _____ _____    ______ ____
ROOT
ATOM      1  C   UNL     1       1.091   0.342   5.488  0.00  0.00    +0.239 C 
ATOM      2  O   UNL     1      -0.007   0.721   5.838  0.00  0.00    -0.273 OA
ATOM      3  N   UNL     1       2.196   0.959   5.952  0.00  0.00    -0.313 N 
ATOM      4  H   UNL     1       3.074   0.656   5.672  0.00  0.00    +0.149 HD
ENDROOT
BRANCH   1   7
ATOM      5  C   UNL     1       0.031  -0.335   2.538  0.00  0.00    +0.176 C 
ATOM      6  C   UNL     1       1.476  -0.312   3.094  0.00  0.00    +0.073 C 
ATOM      7  C   UNL     1       1.219  -0.819   4.535  0.00  0.00    +0.215 C 
ATOM      8  N   UNL     1      -0.052  -1.549   4.435  0.00  0.00    -0.179 NA
ATOM      9  N   UNL     1      -0.671  -1.296   3.399  0.00  0.00    -0.182 NA
BRANCH   5  15
ATOM     10  C   UNL     1      -0.018   1.461   0.010  0.00  0.00    +0.148 C 
ATOM     11  N   UNL     1       0.002  -0.004   0.002  0.00  0.00    -0.352 N 
ATOM     12  C   UNL     1       0.008  -0.792  -1.110  0.00  0.00    +0.085 A 
ATOM     13  C   UNL     1       0.027  -2.081  -0.714  0.00  0.00    +0.019 A 
ATOM     14  C   UNL     1       0.033  -2.089   0.695  0.00  0.00    +0.025 A 
ATOM     15  C   UNL     1       0.023  -0.804   1.106  0.00  0.00    +0.045 A 
ENDBRANCH   5  15
ENDBRANCH   1   7
BRANCH   3  16
ATOM     16  C   UNL     1       2.071   2.087   6.878  0.00  0.00    +0.104 C 
BRANCH  16  17
ATOM     17  C   UNL     1       3.464   2.600   7.247  0.00  0.00    +0.026 C 
BRANCH  17  18
ATOM     18  C   UNL     1       3.333   3.778   8.215  0.00  0.00    +0.078 C 
BRANCH  18  19
ATOM     19  C   UNL     1       4.706   4.284   8.578  0.00  0.00    +0.138 A 
ATOM     20  N   UNL     1       5.442   3.873   9.578  0.00  0.00    -0.134 NA
ATOM     21  N   UNL     1       6.558   4.513   9.603  0.00  0.00    -0.129 NA
ATOM     22  C   UNL     1       6.592   5.380   8.605  0.00  0.00    +0.161 A 
ATOM     23  N   UNL     1       5.407   5.249   7.923  0.00  0.00    -0.286 N 
ATOM     24  C   UNL     1       5.151   6.018   6.826  0.00  0.00    +0.094 A 
ATOM     25  C   UNL     1       6.060   6.917   6.393  0.00  0.00    +0.018 A 
ATOM     26  C   UNL     1       7.283   7.073   7.068  0.00  0.00    +0.005 A 
ATOM     27  C   UNL     1       7.548   6.318   8.168  0.00  0.00    +0.048 A 
ENDBRANCH  18  19
ENDBRANCH  17  18
ENDBRANCH  16  17
ENDBRANCH   3  16
TORSDOF 6
