REMARK  Name = ZINC06442386
REMARK  10 active torsions:
REMARK  status: ('A' for Active; 'I' for Inactive)
REMARK    1  A    between atoms: C_1  and  C_2
REMARK    2  A    between atoms: C_7  and  C_15
REMARK    3  A    between atoms: C_13  and  C_14
REMARK    4  A    between atoms: C_15  and  C_17
REMARK    5  A    between atoms: C_15  and  N_67
REMARK    6  A    between atoms: N_21  and  C_22
REMARK    7  A    between atoms: C_22  and  C_23
REMARK    8  A    between atoms: C_26  and  O_29
REMARK    9  A    between atoms: O_29  and  C_30
REMARK   10  A    between atoms: C_34  and  C_37
REMARK                            x       y       z     vdW  Elec       q    Type
REMARK                         _______ _______ _______ _____ _____    ______ ____
ROOT
ATOM      1  C   UNL     1       4.643   4.715  -0.217  0.00  0.00    +0.039 C 
ENDROOT
BRANCH   1   8
ATOM      2  C   UNL     1      -2.632   1.453  -0.471  0.00  0.00    +0.044 C 
ATOM      3  C   UNL     1      -1.291   2.118  -0.649  0.00  0.00    -0.046 A 
ATOM      4  C   UNL     1      -0.939   2.632  -1.889  0.00  0.00    +0.004 A 
ATOM      5  C   UNL     1       0.272   3.239  -2.072  0.00  0.00    +0.010 A 
ATOM      6  C   UNL     1       1.164   3.342  -1.000  0.00  0.00    -0.001 A 
ATOM      7  C   UNL     1       2.469   3.987  -1.161  0.00  0.00    +0.017 A 
ATOM      8  C   UNL     1       3.293   4.059  -0.086  0.00  0.00    +0.011 A 
ATOM      9  C   UNL     1       2.890   3.520   1.155  0.00  0.00    +0.251 A 
ATOM     10  O   UNL     1       3.646   3.595   2.108  0.00  0.00    -0.268 OA
ATOM     11  N   UNL     1       1.694   2.927   1.312  0.00  0.00    -0.322 N 
ATOM     12  H   UNL     1       1.449   2.567   2.179  0.00  0.00    +0.169 HD
ATOM     13  C   UNL     1       0.811   2.822   0.259  0.00  0.00    +0.052 A 
ATOM     14  C   UNL     1      -0.427   2.208   0.421  0.00  0.00    -0.024 A 
ATOM     15  C   UNL     1      -0.825   1.651   1.763  0.00  0.00    +0.046 C 
ENDBRANCH   1   8
BRANCH   1  22
ATOM     16  C   UNL     1       3.662   6.824   0.454  0.00  0.00    -0.077 C 
ATOM     17  C   UNL     1       3.692   7.913   1.528  0.00  0.00    -0.018 C 
ATOM     18  C   UNL     1       5.058   8.605   1.509  0.00  0.00    -0.001 C 
ATOM     19  C   UNL     1       6.154   7.559   1.733  0.00  0.00    -0.031 C 
ATOM     20  C   UNL     1       6.052   6.481   0.652  0.00  0.00    -0.074 C 
ATOM     21  C   UNL     1       7.526   8.233   1.655  0.00  0.00    +0.005 C 
ATOM     22  N   UNL     1       4.724   5.837   0.741  0.00  0.00    +0.389 N 
ATOM     23  H   UNL     1       4.593   5.474   1.692  0.00  0.00    -0.080 HD
ENDBRANCH   1  22
BRANCH   1  24
ATOM     24  C   UNL     1       4.826   5.210  -1.629  0.00  0.00    +0.143 A 
ATOM     25  N   UNL     1       4.195   6.209  -2.196  0.00  0.00    -0.115 NA
ATOM     26  N   UNL     1       4.628   6.318  -3.405  0.00  0.00    -0.023 NA
ATOM     27  N   UNL     1       5.519   5.415  -3.623  0.00  0.00    -0.044 NA
ATOM     28  N   UNL     1       5.672   4.714  -2.551  0.00  0.00    -0.226 N 
BRANCH  28  29
ATOM     29  C   UNL     1       6.593   3.589  -2.371  0.00  0.00    +0.182 C 
BRANCH  29  30
ATOM     30  C   UNL     1       5.912   2.311  -2.788  0.00  0.00    -0.026 A 
ATOM     31  C   UNL     1       5.241   1.548  -1.849  0.00  0.00    +0.009 A 
ATOM     32  C   UNL     1       4.611   0.379  -2.230  0.00  0.00    +0.046 A 
ATOM     33  C   UNL     1       4.660  -0.035  -3.553  0.00  0.00    +0.120 A 
ATOM     34  C   UNL     1       5.338   0.730  -4.492  0.00  0.00    +0.046 A 
ATOM     35  C   UNL     1       5.963   1.900  -4.107  0.00  0.00    +0.009 A 
BRANCH  33  36
ATOM     36  O   UNL     1       4.046  -1.187  -3.929  0.00  0.00    -0.495 OA
ATOM     37  C   UNL     1       3.367  -1.923  -2.910  0.00  0.00    +0.277 C 
ENDBRANCH  33  36
ENDBRANCH  29  30
ENDBRANCH  28  29
ENDBRANCH   1  24
TORSDOF 6
