REMARK  Name = ZINC03376436
REMARK  11 active torsions:
REMARK  status: ('A' for Active; 'I' for Inactive)
REMARK    1  A    between atoms: C_1  and  C_2
REMARK    2  A    between atoms: C_7  and  N_8
REMARK    3  A    between atoms: C_11  and  C_16
REMARK    4  A    between atoms: C_16  and  S_17
REMARK    5  A    between atoms: S_17  and  C_18
REMARK    6  A    between atoms: C_21  and  C_30
REMARK    7  A    between atoms: N_22  and  C_23
REMARK    8  A    between atoms: C_30  and  C_32
REMARK    9  A    between atoms: C_30  and  N_60
REMARK   10  A    between atoms: C_33  and  N_60
REMARK   11  A    between atoms: C_34  and  N_60
REMARK                            x       y       z     vdW  Elec       q    Type
REMARK                         _______ _______ _______ _____ _____    ______ ____
ROOT
ATOM      1  C   UNL     1      -4.746   4.941  -3.369  0.00  0.00    +0.153 C 
ENDROOT
BRANCH   1   5
ATOM      2  N   UNL     1      -6.341   8.789  -5.751  0.00  0.00    -0.283 N 
ATOM      3  C   UNL     1      -6.603   7.571  -5.153  0.00  0.00    +0.224 A 
ATOM      4  N   UNL     1      -5.616   6.882  -4.584  0.00  0.00    -0.198 NA
ATOM      5  C   UNL     1      -5.866   5.718  -4.012  0.00  0.00    +0.146 A 
ATOM      6  N   UNL     1      -7.094   5.230  -4.007  0.00  0.00    -0.199 NA
ATOM      7  C   UNL     1      -8.087   5.915  -4.569  0.00  0.00    +0.217 A 
ATOM      8  N   UNL     1      -7.840   7.087  -5.145  0.00  0.00    -0.181 NA
ATOM      9  N   UNL     1      -9.370   5.407  -4.558  0.00  0.00    -0.327 N 
ATOM     10  H   UNL     1      -5.457   9.183  -5.683  0.00  0.00    +0.155 HD
ATOM     11  H   UNL     1     -10.092   5.906  -4.971  0.00  0.00    +0.145 HD
ATOM     12  H   UNL     1      -9.549   4.552  -4.137  0.00  0.00    +0.145 HD
BRANCH   2  19
ATOM     13  C   UNL     1      -6.147  11.614  -6.030  0.00  0.00    +0.045 C 
ATOM     14  C   UNL     1      -7.295  10.832  -6.614  0.00  0.00    -0.029 A 
ATOM     15  C   UNL     1      -8.293  11.486  -7.310  0.00  0.00    +0.005 A 
ATOM     16  C   UNL     1      -9.347  10.769  -7.847  0.00  0.00    +0.000 A 
ATOM     17  C   UNL     1      -9.405   9.396  -7.690  0.00  0.00    +0.002 A 
ATOM     18  C   UNL     1      -8.407   8.736  -7.000  0.00  0.00    +0.023 A 
ATOM     19  C   UNL     1      -7.350   9.454  -6.455  0.00  0.00    +0.036 A 
ENDBRANCH   2  19
ENDBRANCH   1   5
BRANCH   1  20
ATOM     20  S   UNL     1      -4.598   5.423  -1.630  0.00  0.00    -0.078 S 
BRANCH  20  21
ATOM     21  C   UNL     1      -3.256   4.393  -1.140  0.00  0.00    +0.196 A 
ATOM     22  N   UNL     1      -2.606   3.542  -1.900  0.00  0.00    -0.122 NA
ATOM     23  N   UNL     1      -1.684   2.962  -1.219  0.00  0.00    -0.135 NA
ATOM     24  C   UNL     1      -1.692   3.397   0.009  0.00  0.00    +0.125 A 
ATOM     25  N   UNL     1      -2.692   4.327   0.105  0.00  0.00    -0.275 N 
BRANCH  25  26
ATOM     26  C   UNL     1      -3.062   5.061   1.242  0.00  0.00    +0.050 A 
ATOM     27  C   UNL     1      -3.590   4.409   2.348  0.00  0.00    +0.028 A 
ATOM     28  C   UNL     1      -3.948   5.132   3.469  0.00  0.00    +0.022 A 
ATOM     29  C   UNL     1      -3.792   6.507   3.486  0.00  0.00    +0.041 A 
ATOM     30  C   UNL     1      -3.271   7.160   2.382  0.00  0.00    +0.022 A 
ATOM     31  C   UNL     1      -2.906   6.440   1.261  0.00  0.00    +0.028 A 
ATOM     32 CL   UNL     1      -4.250   7.414   4.893  0.00  0.00    -0.084 Cl
ENDBRANCH  25  26
BRANCH  24  33
ATOM     33  C   UNL     1      -0.769   2.961   1.118  0.00  0.00    -0.003 C 
ATOM     34  C   UNL     1       0.614   3.581   0.903  0.00  0.00    -0.005 C 
BRANCH  33  37
ATOM     35  C   UNL     1       0.016   1.025  -0.107  0.00  0.00    -0.096 C 
ATOM     36  C   UNL     1       0.042   1.018   2.314  0.00  0.00    -0.096 C 
ATOM     37  N   UNL     1      -0.681   1.485   1.113  0.00  0.00    +0.382 N 
ATOM     38  H   UNL     1      -1.630   1.095   1.122  0.00  0.00    -0.082 HD
ENDBRANCH  33  37
ENDBRANCH  24  33
ENDBRANCH  20  21
ENDBRANCH   1  20
TORSDOF 7
