REMARK  Name = ZINC22319854
REMARK  12 active torsions:
REMARK  status: ('A' for Active; 'I' for Inactive)
REMARK    1  A    between atoms: C_1  and  C_2
REMARK    2  A    between atoms: C_5  and  S_8
REMARK    3  A    between atoms: S_8  and  N_11
REMARK    4  A    between atoms: N_11  and  C_12
REMARK    5  A    between atoms: N_11  and  C_28
REMARK    6  A    between atoms: C_12  and  C_13
REMARK    7  A    between atoms: N_15  and  C_16
REMARK    8  A    between atoms: C_16  and  C_17
REMARK    9  A    between atoms: C_17  and  C_18
REMARK   10  A    between atoms: C_18  and  S_19
REMARK   11  A    between atoms: S_19  and  C_20
REMARK   12  A    between atoms: C_20  and  C_21
REMARK                            x       y       z     vdW  Elec       q    Type
REMARK                         _______ _______ _______ _____ _____    ______ ____
ROOT
ATOM      1  N   UNL     1      -1.408  -0.829  -0.094  0.00  0.00    -0.193 N 
ENDROOT
BRANCH   1   2
ATOM      2  C   UNL     1      -2.274  -1.163  -1.139  0.00  0.00    +0.070 A 
ATOM      3  C   UNL     1      -3.274  -0.281  -1.523  0.00  0.00    +0.026 A 
ATOM      4  C   UNL     1      -4.128  -0.614  -2.556  0.00  0.00    +0.002 A 
ATOM      5  C   UNL     1      -3.989  -1.826  -3.207  0.00  0.00    +0.002 A 
ATOM      6  C   UNL     1      -2.994  -2.708  -2.827  0.00  0.00    +0.022 A 
ATOM      7  C   UNL     1      -2.136  -2.381  -1.795  0.00  0.00    +0.064 A 
ATOM      8 CL   UNL     1      -0.882  -3.486  -1.323  0.00  0.00    -0.082 Cl
ENDBRANCH   1   2
BRANCH   1   9
ATOM      9  S   UNL     1       0.057  -0.130  -0.425  0.00  0.00    +0.075 S 
ATOM     10  O   UNL     1       0.903  -0.417   0.681  0.00  0.00    -0.150 OA
ATOM     11  O   UNL     1       0.392  -0.499  -1.756  0.00  0.00    -0.150 OA
BRANCH   9  16
ATOM     12  C   UNL     1      -0.780   5.845  -0.452  0.00  0.00    +0.044 C 
ATOM     13  C   UNL     1      -0.571   4.353  -0.445  0.00  0.00    -0.050 A 
ATOM     14  C   UNL     1      -0.230   3.708   0.729  0.00  0.00    +0.005 A 
ATOM     15  C   UNL     1      -0.038   2.339   0.735  0.00  0.00    +0.029 A 
ATOM     16  C   UNL     1      -0.188   1.615  -0.433  0.00  0.00    +0.109 A 
ATOM     17  C   UNL     1      -0.524   2.260  -1.608  0.00  0.00    +0.029 A 
ATOM     18  C   UNL     1      -0.720   3.628  -1.613  0.00  0.00    +0.005 A 
ENDBRANCH   9  16
ENDBRANCH   1   9
BRANCH   1  19
ATOM     19  C   UNL     1      -1.795  -1.095   1.293  0.00  0.00    +0.227 C 
BRANCH  19  20
ATOM     20  C   UNL     1      -2.635   0.045   1.808  0.00  0.00    +0.232 C 
ATOM     21  O   UNL     1      -2.798   1.034   1.126  0.00  0.00    -0.274 OA
ATOM     22  N   UNL     1      -3.203  -0.034   3.028  0.00  0.00    -0.314 N 
ATOM     23  H   UNL     1      -3.054  -0.931   3.647  0.00  0.00    +0.149 HD
BRANCH  22  24
ATOM     24  C   UNL     1      -4.019   1.075   3.529  0.00  0.00    +0.105 C 
BRANCH  24  25
ATOM     25  C   UNL     1      -4.542   0.734   4.926  0.00  0.00    +0.029 C 
BRANCH  25  26
ATOM     26  C   UNL     1      -5.394   1.892   5.449  0.00  0.00    +0.071 C 
BRANCH  26  27
ATOM     27  S   UNL     1      -6.013   1.486   7.105  0.00  0.00    -0.156 S 
BRANCH  27  28
ATOM     28  C   UNL     1      -6.990   2.940   7.576  0.00  0.00    +0.107 C 
BRANCH  28  29
ATOM     29  C   UNL     1      -7.570   2.732   8.951  0.00  0.00    -0.002 A 
ATOM     30  C   UNL     1      -8.813   2.144   9.095  0.00  0.00    +0.007 A 
ATOM     31  C   UNL     1      -9.343   1.948  10.357  0.00  0.00    +0.000 A 
ATOM     32  C   UNL     1      -8.635   2.349  11.475  0.00  0.00    +0.003 A 
ATOM     33  C   UNL     1      -7.395   2.942  11.333  0.00  0.00    +0.038 A 
ATOM     34  C   UNL     1      -6.861   3.134  10.070  0.00  0.00    +0.127 A 
ATOM     35  F   UNL     1      -5.649   3.714   9.930  0.00  0.00    -0.205 F 
ENDBRANCH  28  29
ENDBRANCH  27  28
ENDBRANCH  26  27
ENDBRANCH  25  26
ENDBRANCH  24  25
ENDBRANCH  22  24
ENDBRANCH  19  20
ENDBRANCH   1  19
TORSDOF 11
