REMARK  Name = ZINC52594700
REMARK  8 active torsions:
REMARK  status: ('A' for Active; 'I' for Inactive)
REMARK    1  A    between atoms: C_1  and  C_2
REMARK    2  A    between atoms: C_2  and  N_3
REMARK    3  A    between atoms: C_7  and  N_10
REMARK    4  A    between atoms: N_13  and  C_14
REMARK    5  A    between atoms: N_13  and  C_15
REMARK    6  A    between atoms: C_15  and  C_17
REMARK    7  A    between atoms: C_15  and  C_18
REMARK    8  A    between atoms: C_21  and  N_24
REMARK                            x       y       z     vdW  Elec       q    Type
REMARK                         _______ _______ _______ _____ _____    ______ ____
ROOT
ATOM      1  N   UNL     1       1.714  -3.894  -2.333  0.00  0.00    -0.298 N 
ATOM      2  C   UNL     1       2.732  -4.510  -2.967  0.00  0.00    +0.303 C 
ATOM      3  O   UNL     1       3.538  -3.856  -3.600  0.00  0.00    -0.253 OA
ATOM      4  N   UNL     1       2.856  -5.850  -2.899  0.00  0.00    -0.282 N 
ATOM      5  C   UNL     1       1.884  -6.638  -2.137  0.00  0.00    +0.134 C 
ATOM      6  H   UNL     1       1.071  -4.416  -1.829  0.00  0.00    +0.150 HD
ENDROOT
BRANCH   1  11
ATOM      7  N   UNL     1       0.665  -0.473  -1.262  0.00  0.00    +0.381 N 
ATOM      8  C   UNL     1      -0.123  -0.106  -2.445  0.00  0.00    -0.079 C 
ATOM      9  C   UNL     1       0.618  -0.540  -3.711  0.00  0.00    -0.017 C 
ATOM     10  C   UNL     1       0.821  -2.058  -3.682  0.00  0.00    +0.018 C 
ATOM     11  C   UNL     1       1.579  -2.437  -2.407  0.00  0.00    +0.058 C 
ATOM     12  C   UNL     1       0.803  -1.933  -1.189  0.00  0.00    -0.056 C 
ATOM     13  H   UNL     1       1.580  -0.053  -1.326  0.00  0.00    -0.082 HD
BRANCH   7  15
ATOM     14  C   UNL     1      -0.046   1.544  -0.069  0.00  0.00    -0.017 C 
ATOM     15  C   UNL     1      -0.012   0.015  -0.053  0.00  0.00    -0.082 C 
ENDBRANCH   7  15
ENDBRANCH   1  11
BRANCH   4  16
ATOM     16  C   UNL     1       3.962  -6.519  -3.588  0.00  0.00    +0.104 C 
ATOM     17  C   UNL     1       4.728  -7.394  -2.593  0.00  0.00    +0.033 C 
BRANCH  16  18
ATOM     18  C   UNL     1       3.416  -7.381  -4.697  0.00  0.00    -0.027 A 
ATOM     19  C   UNL     1       3.883  -7.221  -5.989  0.00  0.00    +0.007 A 
ATOM     20  C   UNL     1       3.384  -8.009  -7.007  0.00  0.00    +0.028 A 
ATOM     21  C   UNL     1       2.413  -8.963  -6.733  0.00  0.00    +0.067 A 
ATOM     22  C   UNL     1       1.946  -9.121  -5.436  0.00  0.00    +0.028 A 
ATOM     23  C   UNL     1       2.452  -8.333  -4.420  0.00  0.00    +0.007 A 
BRANCH  21  24
ATOM     24  N   UNL     1       1.905  -9.764  -7.765  0.00  0.00    -0.220 N 
ATOM     25  C   UNL     1       0.963 -10.722  -7.656  0.00  0.00    +0.225 A 
ATOM     26  N   UNL     1       0.768 -11.236  -8.843  0.00  0.00    -0.222 NA
ATOM     27  C   UNL     1       1.561 -10.638  -9.731  0.00  0.00    +0.245 A 
ATOM     28  N   UNL     1       2.272  -9.726  -9.120  0.00  0.00    -0.154 NA
ENDBRANCH  21  24
ENDBRANCH  16  18
ENDBRANCH   4  16
TORSDOF 5
