REMARK  Name = ZINC14639633
REMARK  11 active torsions:
REMARK  status: ('A' for Active; 'I' for Inactive)
REMARK    1  A    between atoms: C_1  and  C_2
REMARK    2  A    between atoms: C_2  and  C_3
REMARK    3  A    between atoms: C_3  and  C_4
REMARK    4  A    between atoms: C_4  and  O_5
REMARK    5  A    between atoms: O_5  and  C_6
REMARK    6  A    between atoms: C_6  and  C_8
REMARK    7  A    between atoms: C_8  and  C_9
REMARK    8  A    between atoms: C_17  and  C_19
REMARK    9  A    between atoms: C_19  and  O_20
REMARK   10  A    between atoms: O_20  and  C_21
REMARK   11  A    between atoms: C_22  and  C_29
REMARK                            x       y       z     vdW  Elec       q    Type
REMARK                         _______ _______ _______ _____ _____    ______ ____
ROOT
ATOM      1  C   UNL     1       1.391  -6.435  -2.027  0.00  0.00    +0.173 C 
ATOM      2  C   UNL     1       2.356  -6.882  -3.086  0.00  0.00    +0.234 C 
ATOM      3  O   UNL     1       2.819  -8.001  -3.012  0.00  0.00    -0.274 OA
ATOM      4  N   UNL     1       2.730  -6.104  -4.103  0.00  0.00    -0.312 N 
ATOM      5  C   UNL     1       2.329  -4.715  -4.272  0.00  0.00    +0.123 C 
ATOM      6  C   UNL     1       1.047  -4.421  -3.491  0.00  0.00    +0.127 C 
ATOM      7  N   UNL     1       1.195  -4.982  -2.137  0.00  0.00    -0.285 N 
ATOM      8  C   UNL     1       1.159  -4.194  -1.044  0.00  0.00    +0.254 C 
ATOM      9  O   UNL     1       1.180  -4.691   0.062  0.00  0.00    -0.272 OA
ATOM     10  H   UNL     1       3.311  -6.492  -4.777  0.00  0.00    +0.149 HD
ENDROOT
BRANCH   1  11
ATOM     11  C   UNL     1       1.954  -6.773  -0.645  0.00  0.00    +0.152 C 
BRANCH  11  12
ATOM     12  C   UNL     1       3.243  -6.023  -0.431  0.00  0.00    +0.309 C 
ATOM     13  O   UNL     1       3.628  -5.233  -1.261  0.00  0.00    -0.251 OA
BRANCH  12  14
ATOM     14  O   UNL     1       3.964  -6.231   0.682  0.00  0.00    -0.465 OA
BRANCH  14  15
ATOM     15  C   UNL     1       5.195  -5.473   0.822  0.00  0.00    +0.232 C 
BRANCH  15  16
ATOM     16  C   UNL     1       5.873  -5.842   2.143  0.00  0.00    +0.041 C 
BRANCH  16  18
ATOM     17  C   UNL     1       7.849  -5.412   3.611  0.00  0.00    +0.004 C 
ATOM     18  C   UNL     1       7.170  -5.043   2.290  0.00  0.00    -0.000 C 
ENDBRANCH  16  18
ENDBRANCH  15  16
ENDBRANCH  14  15
ENDBRANCH  12  14
ENDBRANCH  11  12
ENDBRANCH   1  11
BRANCH   8  19
ATOM     19  C   UNL     1       1.093  -2.696  -1.196  0.00  0.00    +0.324 C 
BRANCH  19  20
ATOM     20  O   UNL     1       1.064  -2.087   0.096  0.00  0.00    -0.481 OA
BRANCH  20  21
ATOM     21  C   UNL     1       1.004  -0.730   0.138  0.00  0.00    +0.138 A 
ATOM     22  C   UNL     1       2.173   0.017   0.161  0.00  0.00    -0.007 A 
ATOM     23  C   UNL     1       2.110   1.396   0.203  0.00  0.00    +0.022 A 
ATOM     24  C   UNL     1       0.882   2.033   0.222  0.00  0.00    +0.019 A 
ATOM     25  C   UNL     1      -0.285   1.291   0.199  0.00  0.00    +0.034 A 
ATOM     26  C   UNL     1      -0.227  -0.089   0.157  0.00  0.00    +0.061 A 
ATOM     27 BR   UNL     1      -1.822  -1.103   0.127  0.00  0.00    -0.046 Br
ATOM     28 BR   UNL     1       0.799   3.922   0.280  0.00  0.00    -0.050 Br
ATOM     29  C   UNL     1       3.511  -0.676   0.140  0.00  0.00    +0.047 C 
ENDBRANCH  20  21
ENDBRANCH  19  20
ENDBRANCH   8  19
TORSDOF 9
