REMARK  Name = ZINC51928695
REMARK  10 active torsions:
REMARK  status: ('A' for Active; 'I' for Inactive)
REMARK    1  A    between atoms: C_1  and  C_2
REMARK    2  A    between atoms: C_2  and  C_3
REMARK    3  A    between atoms: C_3  and  C_4
REMARK    4  A    between atoms: C_3  and  C_6
REMARK    5  A    between atoms: C_4  and  C_5
REMARK    6  A    between atoms: C_6  and  C_8
REMARK    7  A    between atoms: C_6  and  N_21
REMARK    8  A    between atoms: N_15  and  C_20
REMARK    9  A    between atoms: N_18  and  C_19
REMARK   10  A    between atoms: N_21  and  C_22
REMARK                            x       y       z     vdW  Elec       q    Type
REMARK                         _______ _______ _______ _____ _____    ______ ____
ROOT
ATOM      1  C   UNL     1       1.974  -2.569  -2.551  0.00  0.00    -0.045 A 
ATOM      2  C   UNL     1       3.258  -2.975  -2.245  0.00  0.00    +0.031 A 
ATOM      3  C   UNL     1       4.108  -3.398  -3.255  0.00  0.00    +0.070 A 
ATOM      4  C   UNL     1       3.663  -3.412  -4.579  0.00  0.00    +0.071 A 
ATOM      5  C   UNL     1       2.372  -3.003  -4.878  0.00  0.00    +0.043 A 
ATOM      6  C   UNL     1       1.530  -2.588  -3.863  0.00  0.00    +0.022 A 
ATOM      7 BR   UNL     1      -0.233  -2.037  -4.269  0.00  0.00    -0.050 Br
ATOM      8  N   UNL     1       4.721  -3.878  -5.355  0.00  0.00    -0.295 N 
ATOM      9  C   UNL     1       5.763  -4.136  -4.541  0.00  0.00    +0.330 A 
ATOM     10  O   UNL     1       6.846  -4.557  -4.901  0.00  0.00    -0.246 OA
ATOM     11  N   UNL     1       5.424  -3.856  -3.268  0.00  0.00    -0.295 N 
ATOM     12  C   UNL     1       6.291  -4.008  -2.097  0.00  0.00    +0.154 C 
ATOM     13  C   UNL     1       4.704  -4.058  -6.809  0.00  0.00    +0.154 C 
ENDROOT
BRANCH   1  14
ATOM     14  C   UNL     1       1.050  -2.109  -1.453  0.00  0.00    -0.037 C 
BRANCH  14  15
ATOM     15  N   UNL     1       1.000  -3.128  -0.396  0.00  0.00    +0.382 N 
ATOM     16  C   UNL     1      -0.008  -2.748   0.602  0.00  0.00    -0.100 C 
ATOM     17  H   UNL     1       0.755  -4.019  -0.800  0.00  0.00    -0.085 HD
ATOM     18  H   UNL     1       1.904  -3.196   0.048  0.00  0.00    -0.085 HD
ENDBRANCH  14  15
BRANCH  14  19
ATOM     19  C   UNL     1       1.568  -0.793  -0.869  0.00  0.00    -0.021 C 
BRANCH  19  21
ATOM     20  C   UNL     1       3.461   0.274   0.365  0.00  0.00    +0.004 C 
ATOM     21  C   UNL     1       3.005  -0.983  -0.380  0.00  0.00    -0.001 C 
ENDBRANCH  19  21
BRANCH  19  22
ATOM     22  C   UNL     1       1.536   0.292  -1.948  0.00  0.00    -0.001 C 
ATOM     23  C   UNL     1       0.084   0.603  -2.315  0.00  0.00    +0.004 C 
ENDBRANCH  19  22
ENDBRANCH  14  19
ENDBRANCH   1  14
TORSDOF 5
