REMARK  Name = ZINC40321979
REMARK  7 active torsions:
REMARK  status: ('A' for Active; 'I' for Inactive)
REMARK    1  A    between atoms: C_3  and  C_6
REMARK    2  A    between atoms: C_6  and  C_8
REMARK    3  A    between atoms: C_6  and  N_27
REMARK    4  A    between atoms: C_8  and  N_9
REMARK    5  A    between atoms: C_10  and  C_12
REMARK    6  A    between atoms: C_15  and  S_17
REMARK    7  A    between atoms: S_17  and  C_20
REMARK                            x       y       z     vdW  Elec       q    Type
REMARK                         _______ _______ _______ _____ _____    ______ ____
ROOT
ATOM      1  N   UNL     1       5.594   0.205  -1.396  0.00  0.00    -0.310 N 
ATOM      2  C   UNL     1       6.287  -0.016  -2.530  0.00  0.00    +0.279 C 
ATOM      3  O   UNL     1       5.696  -0.192  -3.580  0.00  0.00    -0.267 OA
ATOM      4  H   UNL     1       6.065   0.345  -0.559  0.00  0.00    +0.149 HD
ENDROOT
BRANCH   2   5
ATOM      5  C   UNL     1       7.753  -0.045  -2.500  0.00  0.00    +0.192 A 
ATOM      6  C   UNL     1       8.574  -0.252  -3.572  0.00  0.00    +0.056 A 
ATOM      7  C   UNL     1       9.890  -0.197  -3.089  0.00  0.00    +0.070 A 
ATOM      8  C   UNL     1       9.817   0.039  -1.760  0.00  0.00    +0.246 A 
ATOM      9  O   UNL     1       8.527   0.135  -1.410  0.00  0.00    -0.433 OA
BRANCH   8  10
ATOM     10  S   UNL     1      11.191   0.199  -0.669  0.00  0.00    +0.058 S 
ATOM     11  O   UNL     1      10.716  -0.121   0.632  0.00  0.00    -0.161 OA
ATOM     12  O   UNL     1      12.274  -0.493  -1.275  0.00  0.00    -0.161 OA
BRANCH  10  13
ATOM     13  C   UNL     1      11.636   1.903  -0.637  0.00  0.00    +0.097 A 
ATOM     14  C   UNL     1      12.555   2.394  -1.546  0.00  0.00    +0.029 A 
ATOM     15  C   UNL     1      12.904   3.731  -1.521  0.00  0.00    +0.022 A 
ATOM     16  C   UNL     1      12.334   4.578  -0.588  0.00  0.00    +0.041 A 
ATOM     17  C   UNL     1      11.414   4.086   0.321  0.00  0.00    +0.022 A 
ATOM     18  C   UNL     1      11.061   2.750   0.292  0.00  0.00    +0.029 A 
ATOM     19 CL   UNL     1      12.773   6.258  -0.557  0.00  0.00    -0.084 Cl
ENDBRANCH  10  13
ENDBRANCH   8  10
ENDBRANCH   2   5
BRANCH   1  20
ATOM     20  C   UNL     1       4.130   0.234  -1.426  0.00  0.00    +0.097 C 
BRANCH  20  21
ATOM     21  C   UNL     1       3.599   0.632  -0.047  0.00  0.00    +0.016 C 
BRANCH  21  22
ATOM     22  N   UNL     1       2.133   0.536  -0.040  0.00  0.00    +0.387 N 
ATOM     23  C   UNL     1       1.712  -0.871  -0.262  0.00  0.00    -0.078 C 
ATOM     24  C   UNL     1       0.277  -0.907   0.321  0.00  0.00    -0.020 C 
ATOM     25  C   UNL     1       0.383   0.012   1.559  0.00  0.00    -0.020 C 
ATOM     26  C   UNL     1       1.604   0.910   1.290  0.00  0.00    -0.078 C 
ATOM     27  H   UNL     1       1.741   1.134  -0.751  0.00  0.00    -0.081 HD
ENDBRANCH  21  22
BRANCH  21  30
ATOM     28  C   UNL     1       5.064   3.832   1.049  0.00  0.00    +0.041 A 
ATOM     29  C   UNL     1       5.043   2.418   1.039  0.00  0.00    +0.043 A 
ATOM     30  C   UNL     1       4.011   2.050   0.259  0.00  0.00    +0.093 A 
ATOM     31  O   UNL     1       3.409   3.159  -0.201  0.00  0.00    -0.469 OA
ATOM     32  C   UNL     1       4.044   4.243   0.275  0.00  0.00    +0.195 A 
ENDBRANCH  21  30
ENDBRANCH  20  21
ENDBRANCH   1  20
TORSDOF 7
