REMARK  Name = ZINC06739146
REMARK  7 active torsions:
REMARK  status: ('A' for Active; 'I' for Inactive)
REMARK    1  A    between atoms: C_1  and  C_2
REMARK    2  A    between atoms: C_2  and  C_3
REMARK    3  A    between atoms: C_3  and  C_5
REMARK    4  A    between atoms: C_3  and  N_6
REMARK    5  A    between atoms: C_7  and  C_9
REMARK    6  A    between atoms: C_9  and  C_10
REMARK    7  A    between atoms: C_13  and  N_16
REMARK                            x       y       z     vdW  Elec       q    Type
REMARK                         _______ _______ _______ _____ _____    ______ ____
ROOT
ATOM      1  C   UNL     1      -8.286   3.977  -2.088  0.00  0.00    -0.039 A 
ATOM      2  C   UNL     1      -8.669   4.023  -0.760  0.00  0.00    +0.006 A 
ATOM      3  C   UNL     1      -7.725   3.878   0.238  0.00  0.00    +0.023 A 
ATOM      4  C   UNL     1      -6.390   3.686  -0.094  0.00  0.00    +0.033 A 
ATOM      5  C   UNL     1      -6.008   3.646  -1.429  0.00  0.00    +0.023 A 
ATOM      6  C   UNL     1      -6.958   3.786  -2.422  0.00  0.00    +0.006 A 
ENDROOT
BRANCH   4   7
ATOM      7  N   UNL     1      -5.432   3.538   0.914  0.00  0.00    -0.294 N 
ATOM      8  C   UNL     1      -4.363   2.690   0.729  0.00  0.00    +0.154 C 
ATOM      9  N   UNL     1      -3.351   2.525   1.521  0.00  0.00    -0.257 NA
ATOM     10  C   UNL     1      -2.291   1.579   1.229  0.00  0.00    +0.143 C 
ATOM     11  C   UNL     1      -2.157   0.590   2.413  0.00  0.00    +0.193 C 
ATOM     12  S   UNL     1      -1.712  -0.978   1.549  0.00  0.00    -0.028 S 
ATOM     13  O   UNL     1      -2.317  -2.074   2.221  0.00  0.00    -0.174 OA
ATOM     14  O   UNL     1      -0.314  -0.992   1.292  0.00  0.00    -0.174 OA
ATOM     15  C   UNL     1      -2.619  -0.648  -0.025  0.00  0.00    +0.182 C 
ATOM     16  C   UNL     1      -2.482   0.883  -0.127  0.00  0.00    +0.101 C 
ATOM     17  S   UNL     1      -4.088   1.595  -0.650  0.00  0.00    -0.083 S 
ATOM     18  H   UNL     1      -5.520   4.033   1.743  0.00  0.00    +0.154 HD
ENDBRANCH   4   7
BRANCH   1  19
ATOM     19  C   UNL     1      -9.319   4.135  -3.174  0.00  0.00    +0.130 C 
BRANCH  19  21
ATOM     20  N   UNL     1     -10.332   5.977  -4.479  0.00  0.00    -0.312 N 
ATOM     21  C   UNL     1      -9.459   5.594  -3.526  0.00  0.00    +0.218 C 
ATOM     22  O   UNL     1      -8.786   6.423  -2.951  0.00  0.00    -0.275 OA
ATOM     23  H   UNL     1     -10.870   5.313  -4.939  0.00  0.00    +0.149 HD
BRANCH  20  24
ATOM     24  C   UNL     1     -10.468   7.395  -4.821  0.00  0.00    +0.070 C 
ATOM     25  C   UNL     1      -9.402   7.776  -5.851  0.00  0.00    +0.028 C 
BRANCH  24  27
ATOM     26  C   UNL     1     -12.919   7.384  -4.339  0.00  0.00    +0.005 C 
ATOM     27  C   UNL     1     -11.858   7.646  -5.409  0.00  0.00    +0.018 C 
ENDBRANCH  24  27
ENDBRANCH  20  24
ENDBRANCH  19  21
ENDBRANCH   1  19
TORSDOF 5
