REMARK  Name = ZINC64968349
REMARK  7 active torsions:
REMARK  status: ('A' for Active; 'I' for Inactive)
REMARK    1  A    between atoms: C_1  and  C_2
REMARK    2  A    between atoms: C_2  and  C_3
REMARK    3  A    between atoms: C_2  and  C_4
REMARK    4  A    between atoms: C_10  and  C_14
REMARK    5  A    between atoms: N_16  and  C_17
REMARK    6  A    between atoms: C_17  and  C_18
REMARK    7  A    between atoms: C_18  and  C_19
REMARK                            x       y       z     vdW  Elec       q    Type
REMARK                         _______ _______ _______ _____ _____    ______ ____
ROOT
ATOM      1  C   UNL     1      -4.270  -2.367   4.992  0.00  0.00    +0.244 C 
ATOM      2  O   UNL     1      -4.633  -1.327   5.509  0.00  0.00    -0.270 OA
ATOM      3  N   UNL     1      -4.553  -3.546   5.581  0.00  0.00    -0.311 N 
ATOM      4  H   UNL     1      -4.263  -4.375   5.169  0.00  0.00    +0.149 HD
ENDROOT
BRANCH   1  10
ATOM      5  C   UNL     1      -1.433  -0.534   0.013  0.00  0.00    +0.263 C 
ATOM      6  N   UNL     1      -1.432  -1.996   0.148  0.00  0.00    -0.307 N 
ATOM      7  C   UNL     1      -2.114  -2.283   1.332  0.00  0.00    +0.072 A 
ATOM      8  C   UNL     1      -2.406  -3.500   1.942  0.00  0.00    +0.027 A 
ATOM      9  C   UNL     1      -3.104  -3.531   3.127  0.00  0.00    +0.015 A 
ATOM     10  C   UNL     1      -3.522  -2.337   3.722  0.00  0.00    +0.040 A 
ATOM     11  C   UNL     1      -3.229  -1.116   3.111  0.00  0.00    +0.060 A 
ATOM     12  C   UNL     1      -2.527  -1.087   1.918  0.00  0.00    +0.145 A 
ATOM     13  O   UNL     1      -2.135  -0.031   1.153  0.00  0.00    -0.469 OA
ATOM     14  H   UNL     1      -1.036  -2.636  -0.464  0.00  0.00    +0.150 HD
BRANCH   5  16
ATOM     15  C   UNL     1      -0.019   1.526   0.010  0.00  0.00    +0.012 C 
ATOM     16  C   UNL     1       0.002  -0.004   0.002  0.00  0.00    +0.042 C 
ATOM     17  C   UNL     1       0.742  -0.511   1.242  0.00  0.00    +0.012 C 
ENDBRANCH   5  16
ENDBRANCH   1  10
BRANCH   3  18
ATOM     18  C   UNL     1      -5.296  -3.575   6.843  0.00  0.00    +0.109 C 
BRANCH  18  19
ATOM     19  C   UNL     1      -5.481  -5.026   7.292  0.00  0.00    +0.052 C 
BRANCH  19  20
ATOM     20  C   UNL     1      -6.246  -5.056   8.590  0.00  0.00    -0.040 C 
ATOM     21  C   UNL     1      -7.579  -5.223   8.745  0.00  0.00    +0.000 A 
ATOM     22  C   UNL     1      -8.674  -5.419   7.787  0.00  0.00    +0.030 A 
ATOM     23  C   UNL     1      -9.937  -5.559   8.253  0.00  0.00    +0.042 A 
ATOM     24  C   UNL     1     -10.224  -5.522   9.626  0.00  0.00    +0.022 A 
ATOM     25  C   UNL     1      -9.271  -5.346  10.566  0.00  0.00    +0.027 A 
ATOM     26  C   UNL     1      -7.909  -5.189  10.188  0.00  0.00    +0.043 A 
ATOM     27  N   UNL     1      -6.822  -5.007  10.897  0.00  0.00    -0.380 N 
ATOM     28  C   UNL     1      -5.678  -4.912   9.984  0.00  0.00    +0.144 C 
ATOM     29 CL   UNL     1     -11.235  -5.790   7.124  0.00  0.00    -0.084 Cl
ATOM     30  H   UNL     1      -6.781  -4.949  11.865  0.00  0.00    +0.160 HD
ENDBRANCH  19  20
ENDBRANCH  18  19
ENDBRANCH   3  18
TORSDOF 5
