REMARK  Name = ZINC64208374
REMARK  8 active torsions:
REMARK  status: ('A' for Active; 'I' for Inactive)
REMARK    1  A    between atoms: C_4  and  C_7
REMARK    2  A    between atoms: C_7  and  O_8
REMARK    3  A    between atoms: O_8  and  C_9
REMARK    4  A    between atoms: N_11  and  C_12
REMARK    5  A    between atoms: C_12  and  C_14
REMARK    6  A    between atoms: C_12  and  C_24
REMARK    7  A    between atoms: C_14  and  C_15
REMARK    8  A    between atoms: C_30  and  C_33
REMARK                            x       y       z     vdW  Elec       q    Type
REMARK                         _______ _______ _______ _____ _____    ______ ____
ROOT
ATOM      1  C   UNL     1       7.087  -2.682   3.110  0.00  0.00    +0.166 C 
ENDROOT
BRANCH   1   2
ATOM      2  C   UNL     1       7.257  -2.623   4.606  0.00  0.00    +0.236 C 
ATOM      3  O   UNL     1       6.481  -1.980   5.280  0.00  0.00    -0.274 OA
ATOM      4  N   UNL     1       8.271  -3.287   5.196  0.00  0.00    -0.295 N 
ATOM      5  C   UNL     1       9.291  -3.981   4.393  0.00  0.00    +0.136 C 
ATOM      6  C   UNL     1      10.675  -3.542   4.885  0.00  0.00    +0.179 C 
ATOM      7  O   UNL     1      10.750  -3.723   6.301  0.00  0.00    -0.369 OA
ATOM      8  C   UNL     1       9.820  -2.930   7.043  0.00  0.00    +0.166 C 
ATOM      9  C   UNL     1       8.396  -3.333   6.661  0.00  0.00    +0.144 C 
BRANCH   8  10
ATOM     10  C   UNL     1      10.032  -3.155   8.518  0.00  0.00    -0.017 A 
ATOM     11  C   UNL     1      10.408  -4.402   8.980  0.00  0.00    +0.006 A 
ATOM     12  C   UNL     1      10.602  -4.609  10.333  0.00  0.00    +0.000 A 
ATOM     13  C   UNL     1      10.421  -3.567  11.224  0.00  0.00    +0.000 A 
ATOM     14  C   UNL     1      10.046  -2.320  10.762  0.00  0.00    +0.000 A 
ATOM     15  C   UNL     1       9.856  -2.112   9.408  0.00  0.00    +0.006 A 
ENDBRANCH   8  10
ENDBRANCH   1   2
BRANCH   1  18
ATOM     16  C   UNL     1       6.296  -1.099   1.435  0.00  0.00    +0.401 C 
ATOM     17  O   UNL     1       7.138  -1.530   0.673  0.00  0.00    -0.226 OA
ATOM     18  N   UNL     1       6.189  -1.608   2.678  0.00  0.00    -0.270 N 
ATOM     19  H   UNL     1       5.516  -1.264   3.287  0.00  0.00    +0.153 HD
BRANCH  16  20
ATOM     20  O   UNL     1       5.470  -0.112   1.038  0.00  0.00    -0.446 OA
BRANCH  20  21
ATOM     21  C   UNL     1       5.641   0.381  -0.292  0.00  0.00    +0.269 C 
BRANCH  21  25
ATOM     22  C   UNL     1       2.795   3.477  -1.042  0.00  0.00    +0.000 A 
ATOM     23  C   UNL     1       4.035   3.790  -0.518  0.00  0.00    +0.000 A 
ATOM     24  C   UNL     1       4.956   2.788  -0.276  0.00  0.00    +0.007 A 
ATOM     25  C   UNL     1       4.636   1.473  -0.556  0.00  0.00    -0.010 A 
ATOM     26  C   UNL     1       3.396   1.159  -1.079  0.00  0.00    +0.007 A 
ATOM     27  C   UNL     1       2.475   2.162  -1.323  0.00  0.00    +0.000 A 
ENDBRANCH  21  25
ENDBRANCH  20  21
ENDBRANCH  16  20
ENDBRANCH   1  18
BRANCH   1  28
ATOM     28  C   UNL     1       6.490  -4.035   2.717  0.00  0.00    +0.065 C 
BRANCH  28  29
ATOM     29  C   UNL     1       5.127  -4.183   3.340  0.00  0.00    -0.039 C 
ATOM     30  C   UNL     1       3.937  -3.877   2.775  0.00  0.00    -0.001 A 
ATOM     31  C   UNL     1       3.570  -3.334   1.462  0.00  0.00    +0.010 A 
ATOM     32  C   UNL     1       2.264  -3.129   1.177  0.00  0.00    +0.001 A 
ATOM     33  C   UNL     1       1.254  -3.421   2.104  0.00  0.00    +0.002 A 
ATOM     34  C   UNL     1       1.512  -3.922   3.331  0.00  0.00    +0.026 A 
ATOM     35  C   UNL     1       2.851  -4.177   3.736  0.00  0.00    +0.043 A 
ATOM     36  N   UNL     1       3.350  -4.651   4.851  0.00  0.00    -0.380 N 
ATOM     37  C   UNL     1       4.811  -4.710   4.722  0.00  0.00    +0.144 C 
ATOM     38  H   UNL     1       2.840  -4.921   5.630  0.00  0.00    +0.160 HD
ENDBRANCH  28  29
ENDBRANCH   1  28
TORSDOF 8
