REMARK  Name = ZINC32124761
REMARK  10 active torsions:
REMARK  status: ('A' for Active; 'I' for Inactive)
REMARK    1  A    between atoms: C_1  and  C_2
REMARK    2  A    between atoms: C_4  and  C_23
REMARK    3  A    between atoms: C_5  and  C_21
REMARK    4  A    between atoms: C_6  and  O_8
REMARK    5  A    between atoms: O_8  and  C_9
REMARK    6  A    between atoms: C_9  and  C_10
REMARK    7  A    between atoms: N_12  and  N_13
REMARK    8  A    between atoms: N_17  and  C_20
REMARK    9  A    between atoms: C_23  and  O_24
REMARK   10  A    between atoms: O_24  and  C_25
REMARK                            x       y       z     vdW  Elec       q    Type
REMARK                         _______ _______ _______ _____ _____    ______ ____
ROOT
ATOM      1  O   UNL     1       0.129   5.974  -0.367  0.00  0.00    -0.466 OA
ENDROOT
BRANCH   1   7
ATOM      2  C   UNL     1       2.468   1.858   0.060  0.00  0.00    +0.067 C 
ATOM      3  C   UNL     1       1.179   2.601  -0.179  0.00  0.00    +0.056 A 
ATOM      4  C   UNL     1       0.013   1.888  -0.398  0.00  0.00    +0.046 A 
ATOM      5  C   UNL     1      -1.170   2.571  -0.623  0.00  0.00    +0.016 A 
ATOM      6  C   UNL     1      -1.143   3.970  -0.609  0.00  0.00    +0.120 A 
ATOM      7  C   UNL     1       0.079   4.620  -0.379  0.00  0.00    +0.234 A 
ATOM      8  N   UNL     1       1.181   3.921  -0.175  0.00  0.00    -0.216 NA
ATOM      9 BR   UNL     1       0.038  -0.003  -0.399  0.00  0.00    -0.048 Br
BRANCH   6  10
ATOM     10  C   UNL     1      -2.340   4.725  -0.832  0.00  0.00    +0.105 C 
ATOM     11  N   UNL     1      -3.289   5.323  -1.009  0.00  0.00    -0.191 NA
ENDBRANCH   6  10
BRANCH   5  12
ATOM     12  C   UNL     1      -2.456   1.826  -0.871  0.00  0.00    +0.197 C 
BRANCH  12  13
ATOM     13  O   UNL     1      -3.116   1.586   0.373  0.00  0.00    -0.378 OA
ATOM     14  C   UNL     1      -4.354   0.882   0.249  0.00  0.00    +0.194 C 
ENDBRANCH  12  13
ENDBRANCH   5  12
ENDBRANCH   1   7
BRANCH   1  15
ATOM     15  C   UNL     1       1.404   6.574  -0.127  0.00  0.00    +0.328 C 
BRANCH  15  16
ATOM     16  C   UNL     1       1.265   8.075  -0.149  0.00  0.00    +0.270 C 
ATOM     17  O   UNL     1       0.181   8.581  -0.351  0.00  0.00    -0.270 OA
ATOM     18  N   UNL     1       2.345   8.854   0.054  0.00  0.00    -0.204 N 
ATOM     19  H   UNL     1       3.328   8.396   0.237  0.00  0.00    +0.177 HD
BRANCH  18  20
ATOM     20  N   UNL     1       2.216  10.249   0.034  0.00  0.00    -0.189 NA
ATOM     21  C   UNL     1       3.257  10.990   0.124  0.00  0.00    +0.033 C 
ATOM     22  C   UNL     1       4.647  10.390   0.117  0.00  0.00    +0.034 C 
ATOM     23  C   UNL     1       5.495  11.166  -0.903  0.00  0.00    -0.073 C 
ATOM     24  N   UNL     1       5.436  12.600  -0.593  0.00  0.00    +0.378 N 
ATOM     25  C   UNL     1       4.082  13.136  -0.775  0.00  0.00    -0.073 C 
ATOM     26  C   UNL     1       3.138  12.494   0.248  0.00  0.00    +0.034 C 
ATOM     27  C   UNL     1       6.412  13.352  -1.393  0.00  0.00    -0.096 C 
ATOM     28  H   UNL     1       5.699  12.719   0.468  0.00  0.00    -0.082 HD
ENDBRANCH  18  20
ENDBRANCH  15  16
ENDBRANCH   1  15
TORSDOF 7
