REMARK  Name = ZINC08992605
REMARK  9 active torsions:
REMARK  status: ('A' for Active; 'I' for Inactive)
REMARK    1  A    between atoms: C_1  and  C_2
REMARK    2  A    between atoms: C_6  and  O_25
REMARK    3  A    between atoms: C_7  and  C_18
REMARK    4  A    between atoms: C_12  and  C_13
REMARK    5  A    between atoms: C_13  and  C_14
REMARK    6  A    between atoms: C_14  and  O_16
REMARK    7  A    between atoms: O_16  and  C_17
REMARK    8  A    between atoms: C_18  and  N_50
REMARK    9  A    between atoms: C_19  and  N_50
REMARK                            x       y       z     vdW  Elec       q    Type
REMARK                         _______ _______ _______ _____ _____    ______ ____
ROOT
ATOM      1  C   UNL     1       1.238  -2.170  -0.021  0.00  0.00    +0.045 C 
ATOM      2  C   UNL     1       1.190  -0.664  -0.013  0.00  0.00    -0.029 A 
ATOM      3  C   UNL     1       2.421   0.129  -0.021  0.00  0.00    +0.023 A 
ATOM      4  C   UNL     1       3.676  -0.491  -0.036  0.00  0.00    +0.035 A 
ATOM      5  C   UNL     1       4.809   0.272  -0.044  0.00  0.00    +0.083 A 
ATOM      6  C   UNL     1       4.723   1.664  -0.035  0.00  0.00    +0.140 A 
ATOM      7  C   UNL     1       3.489   2.292  -0.019  0.00  0.00    +0.021 A 
ATOM      8  C   UNL     1       2.328   1.533  -0.012  0.00  0.00    +0.144 A 
ATOM      9  O   UNL     1       1.115   2.126   0.003  0.00  0.00    -0.422 OA
ATOM     10  C   UNL     1      -0.017   1.406   0.010  0.00  0.00    +0.341 A 
ATOM     11  O   UNL     1      -1.089   1.985   0.018  0.00  0.00    -0.245 OA
ATOM     12  C   UNL     1       0.002  -0.004   0.002  0.00  0.00    +0.051 A 
ATOM     13 CL   UNL     1       6.366  -0.495  -0.063  0.00  0.00    -0.080 Cl
ENDROOT
BRANCH   6  14
ATOM     14  O   UNL     1       5.857   2.409  -0.042  0.00  0.00    -0.505 OA
ATOM     15  H   UNL     1       6.178   2.630  -0.927  0.00  0.00    +0.292 HD
ENDBRANCH   6  14
BRANCH  12  16
ATOM     16  C   UNL     1      -1.292  -0.777   0.011  0.00  0.00    +0.163 C 
BRANCH  16  17
ATOM     17  C   UNL     1      -1.737  -1.027  -1.407  0.00  0.00    +0.311 C 
ATOM     18  O   UNL     1      -1.072  -0.620  -2.330  0.00  0.00    -0.250 OA
BRANCH  17  19
ATOM     19  O   UNL     1      -2.872  -1.703  -1.645  0.00  0.00    -0.468 OA
ATOM     20  C   UNL     1      -3.239  -1.907  -3.034  0.00  0.00    +0.280 C 
ENDBRANCH  17  19
ENDBRANCH  16  17
ENDBRANCH  12  16
BRANCH   7  21
ATOM     21  C   UNL     1       3.407   3.797  -0.009  0.00  0.00    -0.039 C 
BRANCH  21  22
ATOM     22  N   UNL     1       3.366   4.288  -1.400  0.00  0.00    +0.384 N 
ATOM     23  H   UNL     1       2.543   3.897  -1.873  0.00  0.00    -0.085 HD
ATOM     24  H   UNL     1       4.217   3.988  -1.889  0.00  0.00    -0.085 HD
BRANCH  22  25
ATOM     25  C   UNL     1       3.286   5.761  -1.421  0.00  0.00    -0.071 C 
ATOM     26  C   UNL     1       1.824   6.194  -1.292  0.00  0.00    -0.016 C 
ATOM     27  C   UNL     1       1.741   7.721  -1.323  0.00  0.00    -0.002 C 
ATOM     28  C   UNL     1       2.310   8.236  -2.646  0.00  0.00    -0.000 C 
ATOM     29  C   UNL     1       3.772   7.803  -2.776  0.00  0.00    -0.002 C 
ATOM     30  C   UNL     1       3.855   6.276  -2.744  0.00  0.00    -0.016 C 
ENDBRANCH  22  25
ENDBRANCH  21  22
ENDBRANCH   7  21
TORSDOF 7
