REMARK  Name = ZINC39360125
REMARK  14 active torsions:
REMARK  status: ('A' for Active; 'I' for Inactive)
REMARK    1  A    between atoms: C_1  and  C_2
REMARK    2  A    between atoms: C_4  and  C_9
REMARK    3  A    between atoms: C_5  and  C_8
REMARK    4  A    between atoms: C_9  and  C_10
REMARK    5  A    between atoms: C_10  and  N_11
REMARK    6  A    between atoms: N_11  and  C_12
REMARK    7  A    between atoms: N_11  and  C_13
REMARK    8  A    between atoms: C_13  and  C_14
REMARK    9  A    between atoms: C_17  and  S_24
REMARK   10  A    between atoms: N_19  and  C_20
REMARK   11  A    between atoms: C_20  and  C_21
REMARK   12  A    between atoms: C_21  and  O_22
REMARK   13  A    between atoms: O_22  and  C_23
REMARK   14  A    between atoms: S_24  and  C_27
REMARK                            x       y       z     vdW  Elec       q    Type
REMARK                         _______ _______ _______ _____ _____    ______ ____
ROOT
ATOM      1  C   UNL     1      -1.766  -1.865  -7.412  0.00  0.00    +0.085 C 
ATOM      2  C   UNL     1      -2.944  -2.798  -7.587  0.00  0.00    +0.098 C 
ATOM      3  N   UNL     1      -4.030  -2.161  -7.376  0.00  0.00    -0.254 NA
ATOM      4  C   UNL     1      -3.757  -0.759  -7.038  0.00  0.00    +0.319 C 
ATOM      5  N   UNL     1      -2.360  -0.506  -7.465  0.00  0.00    -0.255 NA
ENDROOT
BRANCH   4   6
ATOM      6  S   UNL     1      -4.896   0.334  -7.933  0.00  0.00    +0.008 S 
ATOM      7  O   UNL     1      -4.532   0.333  -9.307  0.00  0.00    -0.171 OA
ATOM      8  O   UNL     1      -6.226  -0.009  -7.570  0.00  0.00    -0.171 OA
BRANCH   6   9
ATOM      9  C   UNL     1      -4.513   1.965  -7.239  0.00  0.00    +0.134 C 
ATOM     10  C   UNL     1      -4.769   1.934  -5.718  0.00  0.00    +0.026 C 
ATOM     11  C   UNL     1      -3.997   3.057  -5.081  0.00  0.00    +0.002 C 
ATOM     12  C   UNL     1      -4.845   4.332  -4.908  0.00  0.00    +0.000 C 
ATOM     13  C   UNL     1      -5.731   4.630  -6.133  0.00  0.00    +0.000 C 
ATOM     14  C   UNL     1      -5.012   4.399  -7.434  0.00  0.00    +0.002 C 
ATOM     15  C   UNL     1      -5.322   2.967  -7.918  0.00  0.00    +0.026 C 
ENDBRANCH   6   9
ENDBRANCH   4   6
BRANCH   1  16
ATOM     16  C   UNL     1      -1.094  -2.101  -6.058  0.00  0.00    -0.054 C 
BRANCH  16  17
ATOM     17  N   UNL     1      -0.471  -3.431  -6.046  0.00  0.00    +0.379 N 
ATOM     18  C   UNL     1       0.631  -3.465  -7.016  0.00  0.00    -0.096 C 
ATOM     19  H   UNL     1      -1.159  -4.127  -6.294  0.00  0.00    -0.082 HD
BRANCH  17  20
ATOM     20  C   UNL     1       0.051  -3.716  -4.703  0.00  0.00    -0.075 C 
BRANCH  20  21
ATOM     21  C   UNL     1       0.587  -5.148  -4.657  0.00  0.00    +0.016 C 
BRANCH  21  24
ATOM     22  C   UNL     1       3.580  -5.873  -3.522  0.00  0.00    +0.039 C 
ATOM     23  C   UNL     1       2.503  -5.133  -2.726  0.00  0.00    +0.153 C 
ATOM     24  C   UNL     1       1.122  -5.440  -3.278  0.00  0.00    -0.023 C 
ATOM     25  C   UNL     1       0.492  -6.028  -2.259  0.00  0.00    +0.061 C 
ATOM     26  N   UNL     1       1.301  -6.114  -1.180  0.00  0.00    -0.159 NA
ATOM     27  N   UNL     1       2.433  -5.643  -1.346  0.00  0.00    -0.180 NA
ATOM     28  C   UNL     1      -0.929  -6.528  -2.305  0.00  0.00    +0.067 C 
ENDBRANCH  21  24
ENDBRANCH  20  21
ENDBRANCH  17  20
ENDBRANCH  16  17
ENDBRANCH   1  16
BRANCH   5  29
ATOM     29  C   UNL     1      -1.681   0.403  -6.532  0.00  0.00    +0.116 C 
BRANCH  29  30
ATOM     30  C   UNL     1      -0.299   0.760  -7.083  0.00  0.00    +0.175 C 
BRANCH  30  31
ATOM     31  O   UNL     1      -0.447   1.511  -8.290  0.00  0.00    -0.382 OA
ATOM     32  C   UNL     1       0.787   1.801  -8.949  0.00  0.00    +0.194 C 
ENDBRANCH  30  31
ENDBRANCH  29  30
ENDBRANCH   5  29
TORSDOF 10
