REMARK  Name = ZINC41586436
REMARK  9 active torsions:
REMARK  status: ('A' for Active; 'I' for Inactive)
REMARK    1  A    between atoms: C_1  and  C_2
REMARK    2  A    between atoms: C_2  and  O_3
REMARK    3  A    between atoms: O_3  and  C_4
REMARK    4  A    between atoms: C_4  and  C_6
REMARK    5  A    between atoms: N_11  and  C_13
REMARK    6  A    between atoms: C_13  and  C_14
REMARK    7  A    between atoms: C_15  and  O_32
REMARK    8  A    between atoms: C_22  and  C_23
REMARK    9  A    between atoms: C_26  and  C_29
REMARK                            x       y       z     vdW  Elec       q    Type
REMARK                         _______ _______ _______ _____ _____    ______ ____
ROOT
ATOM      1  C   UNL     1       3.162  -6.026   4.840  0.00  0.00    +0.020 A 
ATOM      2  C   UNL     1       4.512  -6.270   4.643  0.00  0.00    +0.122 A 
ATOM      3  C   UNL     1       5.226  -7.061   5.539  0.00  0.00    +0.046 A 
ATOM      4  C   UNL     1       4.600  -7.606   6.624  0.00  0.00    +0.019 A 
ATOM      5  C   UNL     1       3.242  -7.369   6.835  0.00  0.00    +0.068 A 
ATOM      6  C   UNL     1       2.512  -6.568   5.941  0.00  0.00    +0.144 A 
ATOM      7  O   UNL     1       1.228  -6.478   6.354  0.00  0.00    -0.451 OA
ATOM      8  C   UNL     1       1.017  -7.171   7.497  0.00  0.00    +0.176 C 
ATOM      9  C   UNL     1      -0.159  -7.278   8.163  0.00  0.00    +0.058 C 
ATOM     10  C   UNL     1       2.293  -7.797   7.879  0.00  0.00    +0.231 C 
ATOM     11  O   UNL     1       2.518  -8.502   8.847  0.00  0.00    -0.283 OA
ENDROOT
BRANCH   9  12
ATOM     12  C   UNL     1      -1.388  -6.722   7.579  0.00  0.00    -0.021 A 
ATOM     13  C   UNL     1      -1.385  -6.234   6.267  0.00  0.00    +0.008 A 
ATOM     14  C   UNL     1      -2.542  -5.715   5.727  0.00  0.00    +0.004 A 
ATOM     15  C   UNL     1      -3.704  -5.674   6.478  0.00  0.00    -0.050 A 
ATOM     16  C   UNL     1      -3.715  -6.154   7.776  0.00  0.00    +0.004 A 
ATOM     17  C   UNL     1      -2.569  -6.683   8.329  0.00  0.00    +0.008 A 
ATOM     18  C   UNL     1      -4.964  -5.104   5.879  0.00  0.00    +0.044 C 
ENDBRANCH   9  12
BRANCH   2  19
ATOM     19  O   UNL     1       5.143  -5.734   3.568  0.00  0.00    -0.506 OA
ATOM     20  H   UNL     1       5.525  -4.860   3.732  0.00  0.00    +0.292 HD
ENDBRANCH   2  19
BRANCH   1  21
ATOM     21  C   UNL     1       2.401  -5.168   3.862  0.00  0.00    -0.036 C 
BRANCH  21  26
ATOM     22  C   UNL     1       1.983  -1.444   3.664  0.00  0.00    +0.081 C 
ATOM     23  C   UNL     1       1.298  -1.217   5.015  0.00  0.00    +0.011 C 
ATOM     24  C   UNL     1       1.913  -2.161   6.053  0.00  0.00    -0.018 C 
ATOM     25  C   UNL     1       1.774  -3.605   5.567  0.00  0.00    -0.078 C 
ATOM     26  N   UNL     1       2.471  -3.764   4.286  0.00  0.00    +0.383 N 
ATOM     27  C   UNL     1       1.842  -2.915   3.267  0.00  0.00    -0.064 C 
ATOM     28  H   UNL     1       3.438  -3.495   4.395  0.00  0.00    -0.081 HD
BRANCH  22  29
ATOM     29  C   UNL     1       1.333  -0.575   2.618  0.00  0.00    +0.308 C 
ATOM     30  O   UNL     1       0.812  -1.080   1.652  0.00  0.00    -0.251 OA
BRANCH  29  31
ATOM     31  O   UNL     1       1.333   0.759   2.760  0.00  0.00    -0.465 OA
BRANCH  31  33
ATOM     32  C   UNL     1       0.799   3.011   2.063  0.00  0.00    +0.048 C 
ATOM     33  C   UNL     1       0.700   1.521   1.730  0.00  0.00    +0.229 C 
ENDBRANCH  31  33
ENDBRANCH  29  31
ENDBRANCH  22  29
ENDBRANCH  21  26
ENDBRANCH   1  21
TORSDOF 7
