REMARK  Name = ZINC38555866
REMARK  9 active torsions:
REMARK  status: ('A' for Active; 'I' for Inactive)
REMARK    1  A    between atoms: C_1  and  C_2
REMARK    2  A    between atoms: C_19  and  C_21
REMARK    3  A    between atoms: C_21  and  N_22
REMARK    4  A    between atoms: N_22  and  C_23
REMARK    5  A    between atoms: C_23  and  C_25
REMARK    6  A    between atoms: C_23  and  C_32
REMARK    7  A    between atoms: C_25  and  C_26
REMARK    8  A    between atoms: C_37  and  C_39
REMARK    9  A    between atoms: C_37  and  C_40
REMARK                            x       y       z     vdW  Elec       q    Type
REMARK                         _______ _______ _______ _____ _____    ______ ____
ROOT
ATOM      1  N   UNL     1       6.442   1.123  -0.648  0.00  0.00    +0.382 N 
ATOM      2  H   UNL     1       6.181   1.909  -1.225  0.00  0.00    -0.085 HD
ATOM      3  H   UNL     1       6.615   1.440   0.293  0.00  0.00    -0.085 HD
ENDROOT
BRANCH   1   4
ATOM      4  C   UNL     1       5.351   0.139  -0.640  0.00  0.00    -0.067 C 
BRANCH   4  20
ATOM      5  C   UNL     1      -0.019   1.526   0.010  0.00  0.00    +0.012 C 
ATOM      6  C   UNL     1       0.002  -0.004   0.002  0.00  0.00    -0.022 C 
ATOM      7  C   UNL     1      -1.429  -0.537   0.016  0.00  0.00    +0.007 C 
ATOM      8  C   UNL     1      -2.179   0.028   1.224  0.00  0.00    +0.005 C 
ATOM      9  C   UNL     1      -1.516  -0.463   2.515  0.00  0.00    +0.030 C 
ATOM     10  C   UNL     1      -0.044  -0.113   2.469  0.00  0.00    -0.073 C 
ATOM     11  C   UNL     1       0.530   0.522   3.461  0.00  0.00    +0.008 C 
ATOM     12  C   UNL     1       0.744  -0.517   1.245  0.00  0.00    +0.021 C 
ATOM     13  C   UNL     1       2.120   0.142   1.282  0.00  0.00    +0.016 C 
ATOM     14  C   UNL     1       2.945  -0.268   0.060  0.00  0.00    +0.042 C 
ATOM     15  C   UNL     1       2.168  -0.009  -1.245  0.00  0.00    +0.181 C 
ATOM     16  C   UNL     1       0.755  -0.501  -1.232  0.00  0.00    +0.052 C 
ATOM     17  O   UNL     1       2.239   1.412  -1.407  0.00  0.00    -0.461 OA
ATOM     18  C   UNL     1       3.493   1.796  -1.078  0.00  0.00    +0.309 C 
ATOM     19  O   UNL     1       4.061   2.774  -1.502  0.00  0.00    -0.251 OA
ATOM     20  C   UNL     1       4.084   0.786  -0.078  0.00  0.00    +0.087 C 
ENDBRANCH   4  20
ENDBRANCH   1   4
BRANCH   1  21
ATOM     21  C   UNL     1       7.658   0.501  -1.188  0.00  0.00    -0.064 C 
BRANCH  21  22
ATOM     22  C   UNL     1       8.124  -0.611  -0.246  0.00  0.00    -0.020 C 
ATOM     23  C   UNL     1       8.427  -0.019   1.134  0.00  0.00    +0.030 C 
ATOM     24  C   UNL     1       8.967  -1.124   2.046  0.00  0.00    +0.161 C 
ATOM     25  O   UNL     1      10.132  -1.702   1.454  0.00  0.00    -0.374 OA
ATOM     26  C   UNL     1       9.898  -2.312   0.183  0.00  0.00    +0.064 C 
ATOM     27  C   UNL     1       9.395  -1.257  -0.805  0.00  0.00    +0.036 C 
ATOM     28  C   UNL     1       8.846  -3.413   0.331  0.00  0.00    +0.041 C 
ATOM     29  C   UNL     1      11.202  -2.919  -0.338  0.00  0.00    +0.041 C 
ENDBRANCH  21  22
BRANCH  21  30
ATOM     30  C   UNL     1       8.758   1.558  -1.313  0.00  0.00    +0.019 C 
BRANCH  30  31
ATOM     31  C   UNL     1       8.351   2.588  -2.334  0.00  0.00    -0.049 A 
ATOM     32  C   UNL     1       8.682   2.412  -3.665  0.00  0.00    +0.003 A 
ATOM     33  C   UNL     1       8.308   3.358  -4.601  0.00  0.00    +0.000 A 
ATOM     34  C   UNL     1       7.603   4.480  -4.207  0.00  0.00    +0.000 A 
ATOM     35  C   UNL     1       7.271   4.656  -2.877  0.00  0.00    +0.000 A 
ATOM     36  C   UNL     1       7.641   3.708  -1.941  0.00  0.00    +0.003 A 
ENDBRANCH  30  31
ENDBRANCH  21  30
ENDBRANCH   1  21
TORSDOF 6
