REMARK  Name = ZINC63663755
REMARK  6 active torsions:
REMARK  status: ('A' for Active; 'I' for Inactive)
REMARK    1  A    between atoms: C_3  and  N_26
REMARK    2  A    between atoms: C_6  and  N_7
REMARK    3  A    between atoms: N_7  and  C_8
REMARK    4  A    between atoms: C_8  and  N_10
REMARK    5  A    between atoms: N_10  and  C_11
REMARK    6  A    between atoms: C_11  and  C_12
REMARK                            x       y       z     vdW  Elec       q    Type
REMARK                         _______ _______ _______ _____ _____    ______ ____
ROOT
ATOM      1  N   UNL     1      -2.340  -2.748  -0.193  0.00  0.00    -0.322 N 
ATOM      2  H   UNL     1      -3.186  -2.272  -0.182  0.00  0.00    +0.148 HD
ENDROOT
BRANCH   1   3
ATOM      3  C   UNL     1      -1.182  -2.065  -0.099  0.00  0.00    +0.135 C 
ATOM      4  S   UNL     1       0.310  -2.903  -0.119  0.00  0.00    -0.019 S 
BRANCH   3   5
ATOM      5  N   UNL     1      -1.199  -0.721   0.010  0.00  0.00    -0.297 N 
ATOM      6  H   UNL     1      -2.043  -0.253   0.102  0.00  0.00    +0.154 HD
BRANCH   5  12
ATOM      7  C   UNL     1       1.004  -0.347  -0.907  0.00  0.00    +0.025 A 
ATOM      8  C   UNL     1       2.187   0.364  -0.924  0.00  0.00    +0.034 A 
ATOM      9  C   UNL     1       2.375   1.418  -0.048  0.00  0.00    +0.126 A 
ATOM     10  C   UNL     1       1.379   1.763   0.847  0.00  0.00    +0.034 A 
ATOM     11  C   UNL     1       0.193   1.055   0.869  0.00  0.00    +0.025 A 
ATOM     12  C   UNL     1       0.001  -0.003  -0.009  0.00  0.00    +0.033 A 
BRANCH   9  13
ATOM     13  N   UNL     1       3.646   2.178  -0.068  0.00  0.00    +0.056 N 
ATOM     14  O   UNL     1       4.517   1.877  -0.850  0.00  0.00    -0.126 OA
ATOM     15  O   UNL     1       3.811   3.099   0.697  0.00  0.00    -0.126 OA
ENDBRANCH   9  13
ENDBRANCH   5  12
ENDBRANCH   3   5
ENDBRANCH   1   3
BRANCH   1  16
ATOM     16  C   UNL     1      -2.322  -4.208  -0.311  0.00  0.00    +0.138 C 
BRANCH  16  17
ATOM     17  C   UNL     1      -3.736  -4.722  -0.400  0.00  0.00    -0.030 A 
ATOM     18  C   UNL     1      -4.418  -5.049   0.780  0.00  0.00    +0.007 A 
ATOM     19  C   UNL     1      -5.684  -5.518   0.783  0.00  0.00    +0.026 A 
ATOM     20  C   UNL     1      -6.387  -5.702  -0.438  0.00  0.00    +0.043 A 
ATOM     21  N   UNL     1      -7.609  -6.116  -0.688  0.00  0.00    -0.378 N 
ATOM     22  C   UNL     1      -7.784  -6.191  -2.136  0.00  0.00    +0.106 C 
ATOM     23  C   UNL     1      -8.969  -5.352  -2.621  0.00  0.00    +0.029 C 
ATOM     24  C   UNL     1      -8.905  -5.257  -4.149  0.00  0.00    +0.003 C 
ATOM     25  C   UNL     1      -7.668  -4.484  -4.601  0.00  0.00    +0.004 C 
ATOM     26  C   UNL     1      -6.395  -5.246  -4.194  0.00  0.00    +0.033 C 
ATOM     27  C   UNL     1      -6.522  -5.587  -2.727  0.00  0.00    -0.038 C 
ATOM     28  C   UNL     1      -5.691  -5.356  -1.702  0.00  0.00    -0.001 A 
ATOM     29  C   UNL     1      -4.315  -4.851  -1.615  0.00  0.00    +0.015 A 
ATOM     30  H   UNL     1      -8.281  -6.334  -0.024  0.00  0.00    +0.160 HD
ENDBRANCH  16  17
ENDBRANCH   1  16
TORSDOF 6
