REMARK  Name = ZINC03978918
REMARK  8 active torsions:
REMARK  status: ('A' for Active; 'I' for Inactive)
REMARK    1  A    between atoms: C_1  and  C_2
REMARK    2  A    between atoms: C_2  and  C_39
REMARK    3  A    between atoms: C_6  and  O_38
REMARK    4  A    between atoms: C_8  and  C_37
REMARK    5  A    between atoms: C_11  and  C_18
REMARK    6  A    between atoms: C_15  and  O_17
REMARK    7  A    between atoms: C_21  and  C_36
REMARK    8  A    between atoms: C_29  and  C_31
REMARK                            x       y       z     vdW  Elec       q    Type
REMARK                         _______ _______ _______ _____ _____    ______ ____
ROOT
ATOM      1  C   UNL     1       0.124   1.584  -0.013  0.00  0.00    +0.014 C 
ATOM      2  C   UNL     1       0.004   0.063  -0.028  0.00  0.00    -0.005 C 
ATOM      3  C   UNL     1       0.617  -0.584  -1.245  0.00  0.00    +0.013 C 
ATOM      4  C   UNL     1       0.019  -0.158  -2.571  0.00  0.00    +0.037 C 
ATOM      5  C   UNL     1       0.623   1.080  -3.204  0.00  0.00    +0.124 C 
ATOM      6  C   UNL     1       2.141   1.133  -3.181  0.00  0.00    +0.030 C 
ATOM      7  C   UNL     1       2.725   0.659  -1.865  0.00  0.00    +0.014 C 
ATOM      8  C   UNL     1       2.134  -0.626  -1.309  0.00  0.00    +0.033 C 
ATOM      9  C   UNL     1       2.731  -0.865   0.067  0.00  0.00    +0.142 C 
ATOM     10  O   UNL     1       3.692  -1.595   0.188  0.00  0.00    -0.297 OA
ATOM     11  C   UNL     1       2.126  -0.197   1.275  0.00  0.00    +0.106 C 
ATOM     12  C   UNL     1       0.624  -0.480   1.268  0.00  0.00    +0.128 C 
ATOM     13  C   UNL     1       2.530  -1.855  -2.158  0.00  0.00    +0.020 C 
ATOM     14  C   UNL     1       4.243   0.574  -1.918  0.00  0.00    +0.006 C 
ATOM     15  C   UNL     1       4.889   1.643  -2.773  0.00  0.00    +0.014 C 
ATOM     16  C   UNL     1       4.051   2.897  -2.968  0.00  0.00    +0.042 C 
ATOM     17  C   UNL     1       2.629   2.579  -3.409  0.00  0.00    +0.124 C 
ATOM     18  C   UNL     1       2.014   3.338  -4.585  0.00  0.00    +0.260 C 
ATOM     19  O   UNL     1       1.672   3.631  -3.227  0.00  0.00    -0.352 OA
ATOM     20  C   UNL     1       2.904   4.363  -5.264  0.00  0.00    +0.340 C 
ATOM     21  O   UNL     1       2.704   4.754  -6.389  0.00  0.00    -0.248 OA
ATOM     22  O   UNL     1       3.936   4.809  -4.512  0.00  0.00    -0.454 OA
ATOM     23  C   UNL     1       4.775   3.797  -3.970  0.00  0.00    +0.218 C 
ATOM     24  C   UNL     1       3.987   3.664  -1.639  0.00  0.00    +0.018 C 
ATOM     25  C   UNL     1       2.665   0.300  -4.369  0.00  0.00    +0.017 C 
ATOM     26  C   UNL     1      -1.499  -0.290   0.029  0.00  0.00    +0.014 C 
ENDROOT
BRANCH  23  27
ATOM     27  C   UNL     1       5.934   4.462  -3.273  0.00  0.00    +0.031 A 
ATOM     28  C   UNL     1       7.293   4.077  -3.343  0.00  0.00    +0.048 A 
ATOM     29  C   UNL     1       7.982   4.939  -2.574  0.00  0.00    +0.195 A 
ATOM     30  O   UNL     1       7.118   5.820  -2.046  0.00  0.00    -0.471 OA
ATOM     31  C   UNL     1       5.876   5.539  -2.470  0.00  0.00    +0.202 A 
ENDBRANCH  23  27
BRANCH  12  32
ATOM     32  O   UNL     1       0.010   0.165   2.386  0.00  0.00    -0.391 OA
ATOM     33  H   UNL     1       0.350  -0.126   3.244  0.00  0.00    +0.210 HD
ENDBRANCH  12  32
BRANCH   5  34
ATOM     34  O   UNL     1       0.002   2.249  -2.683  0.00  0.00    -0.391 OA
ATOM     35  H   UNL     1      -0.952   2.291  -2.841  0.00  0.00    +0.210 HD
ENDBRANCH   5  34
TORSDOF 3
