REMARK  Name = ZINC32095295
REMARK  7 active torsions:
REMARK  status: ('A' for Active; 'I' for Inactive)
REMARK    1  A    between atoms: C_1  and  O_2
REMARK    2  A    between atoms: O_2  and  C_3
REMARK    3  A    between atoms: C_8  and  O_9
REMARK    4  A    between atoms: O_9  and  C_10
REMARK    5  A    between atoms: C_13  and  S_16
REMARK    6  A    between atoms: S_16  and  C_17
REMARK    7  A    between atoms: C_21  and  N_23
REMARK                            x       y       z     vdW  Elec       q    Type
REMARK                         _______ _______ _______ _____ _____    ______ ____
ROOT
ATOM      1  C   UNL     1       3.861   5.406  -2.738  0.00  0.00    +0.162 A 
ATOM      2  C   UNL     1       3.208   5.258  -1.522  0.00  0.00    +0.053 A 
ATOM      3  C   UNL     1       2.741   4.020  -1.127  0.00  0.00    -0.032 A 
ATOM      4  C   UNL     1       2.925   2.908  -1.952  0.00  0.00    +0.025 A 
ATOM      5  C   UNL     1       3.586   3.062  -3.183  0.00  0.00    +0.061 A 
ATOM      6  C   UNL     1       4.049   4.302  -3.569  0.00  0.00    +0.162 A 
ATOM      7  C   UNL     1       2.352   1.704  -1.334  0.00  0.00    +0.177 C 
ATOM      8  O   UNL     1       2.357   0.589  -1.810  0.00  0.00    -0.291 OA
ATOM      9  C   UNL     1       1.756   2.096  -0.004  0.00  0.00    +0.129 C 
ATOM     10  C   UNL     1       2.011   3.604   0.128  0.00  0.00    +0.058 C 
ENDROOT
BRANCH   1  12
ATOM     11  C   UNL     1       4.089   7.713  -2.219  0.00  0.00    +0.277 C 
ATOM     12  O   UNL     1       4.317   6.627  -3.118  0.00  0.00    -0.491 OA
ENDBRANCH   1  12
BRANCH   6  13
ATOM     13  O   UNL     1       4.688   4.448  -4.760  0.00  0.00    -0.491 OA
ATOM     14  C   UNL     1       4.846   3.275  -5.560  0.00  0.00    +0.277 C 
ENDBRANCH   6  13
BRANCH   9  15
ATOM     15  S   UNL     1      -0.022   1.758   0.012  0.00  0.00    -0.074 S 
BRANCH  15  16
ATOM     16  C   UNL     1       0.002  -0.004   0.002  0.00  0.00    +0.192 A 
ATOM     17  N   UNL     1       1.168  -0.633  -0.018  0.00  0.00    -0.207 NA
ATOM     18  C   UNL     1       1.224  -1.963  -0.020  0.00  0.00    +0.122 A 
ATOM     19  C   UNL     1       0.038  -2.692  -0.013  0.00  0.00    +0.086 A 
ATOM     20  C   UNL     1      -1.167  -1.996   0.003  0.00  0.00    +0.122 A 
ATOM     21  N   UNL     1      -1.146  -0.665   0.009  0.00  0.00    -0.207 NA
ATOM     22  N   UNL     1       2.448  -2.614  -0.036  0.00  0.00    -0.343 N 
ATOM     23  H   UNL     1       2.487  -3.713  -0.038  0.00  0.00    +0.144 HD
ATOM     24  H   UNL     1       3.381  -2.031  -0.046  0.00  0.00    +0.144 HD
BRANCH  20  25
ATOM     25  N   UNL     1      -2.373  -2.680   0.010  0.00  0.00    -0.343 N 
ATOM     26  H   UNL     1      -3.321  -2.122   0.022  0.00  0.00    +0.144 HD
ATOM     27  H   UNL     1      -2.381  -3.780   0.004  0.00  0.00    +0.144 HD
ENDBRANCH  20  25
ENDBRANCH  15  16
ENDBRANCH   9  15
TORSDOF 5
