REMARK  Name = ZINC15134174
REMARK  7 active torsions:
REMARK  status: ('A' for Active; 'I' for Inactive)
REMARK    1  A    between atoms: C_3  and  N_23
REMARK    2  A    between atoms: C_4  and  C_8
REMARK    3  A    between atoms: C_6  and  O_7
REMARK    4  A    between atoms: N_9  and  N_10
REMARK    5  A    between atoms: C_11  and  C_13
REMARK    6  A    between atoms: C_13  and  O_14
REMARK    7  A    between atoms: O_14  and  C_15
REMARK                            x       y       z     vdW  Elec       q    Type
REMARK                         _______ _______ _______ _____ _____    ______ ____
ROOT
ATOM      1  N   UNL     1       5.857  -1.193   0.150  0.00  0.00    -0.204 N 
ATOM      2  C   UNL     1       7.074  -0.627   0.262  0.00  0.00    +0.270 C 
ATOM      3  O   UNL     1       7.177   0.579   0.349  0.00  0.00    -0.270 OA
ATOM      4  H   UNL     1       5.774  -2.157   0.081  0.00  0.00    +0.177 HD
ENDROOT
BRANCH   1   6
ATOM      5  C   UNL     1       3.537  -0.935   0.027  0.00  0.00    +0.140 C 
ATOM      6  N   UNL     1       4.709  -0.390   0.135  0.00  0.00    -0.188 NA
BRANCH   5  10
ATOM      7  C   UNL     1       0.053   1.496  -0.019  0.00  0.00    +0.047 A 
ATOM      8  C   UNL     1      -0.067   0.119   0.004  0.00  0.00    +0.037 A 
ATOM      9  C   UNL     1       1.061  -0.676   0.019  0.00  0.00    +0.135 A 
ATOM     10  C   UNL     1       2.329  -0.089   0.011  0.00  0.00    +0.028 A 
ATOM     11  C   UNL     1       2.447   1.302  -0.013  0.00  0.00    +0.057 A 
ATOM     12  C   UNL     1       1.309   2.089  -0.027  0.00  0.00    +0.118 A 
BRANCH   9  13
ATOM     13  N   UNL     1       0.928  -2.150   0.044  0.00  0.00    +0.057 N 
ATOM     14  O   UNL     1      -0.163  -2.656   0.166  0.00  0.00    -0.126 OA
ATOM     15  O   UNL     1       1.910  -2.848  -0.058  0.00  0.00    -0.126 OA
ENDBRANCH   9  13
BRANCH  12  16
ATOM     16  O   UNL     1       1.420   3.444  -0.050  0.00  0.00    -0.507 OA
ATOM     17  H   UNL     1       1.451   3.851   0.827  0.00  0.00    +0.292 HD
ENDBRANCH  12  16
ENDBRANCH   5  10
ENDBRANCH   1   6
BRANCH   2  18
ATOM     18  C   UNL     1       8.309  -1.491   0.279  0.00  0.00    +0.326 C 
BRANCH  18  19
ATOM     19  O   UNL     1       9.467  -0.665   0.405  0.00  0.00    -0.482 OA
BRANCH  19  20
ATOM     20  C   UNL     1      10.673  -1.292   0.436  0.00  0.00    +0.135 A 
ATOM     21  C   UNL     1      10.739  -2.675   0.341  0.00  0.00    +0.048 A 
ATOM     22  C   UNL     1      11.965  -3.311   0.372  0.00  0.00    +0.023 A 
ATOM     23  C   UNL     1      13.127  -2.570   0.498  0.00  0.00    +0.042 A 
ATOM     24  C   UNL     1      13.064  -1.192   0.593  0.00  0.00    +0.039 A 
ATOM     25  C   UNL     1      11.840  -0.551   0.556  0.00  0.00    +0.061 A 
ATOM     26 BR   UNL     1      11.754   1.335   0.678  0.00  0.00    -0.046 Br
ATOM     27 CL   UNL     1      14.666  -3.373   0.538  0.00  0.00    -0.084 Cl
ENDBRANCH  19  20
ENDBRANCH  18  19
ENDBRANCH   2  18
TORSDOF 7
