REMARK  Name = ZINC38649421
REMARK  11 active torsions:
REMARK  status: ('A' for Active; 'I' for Inactive)
REMARK    1  A    between atoms: C_1  and  C_2
REMARK    2  A    between atoms: C_2  and  C_3
REMARK    3  A    between atoms: C_2  and  C_4
REMARK    4  A    between atoms: C_7  and  C_10
REMARK    5  A    between atoms: C_15  and  O_24
REMARK    6  A    between atoms: C_19  and  N_23
REMARK    7  A    between atoms: C_20  and  C_21
REMARK    8  A    between atoms: O_24  and  C_25
REMARK    9  A    between atoms: C_25  and  C_27
REMARK   10  A    between atoms: C_27  and  O_28
REMARK   11  A    between atoms: O_28  and  C_29
REMARK                            x       y       z     vdW  Elec       q    Type
REMARK                         _______ _______ _______ _____ _____    ______ ____
ROOT
ATOM      1  C   UNL     1      -5.458  -2.006  -0.008  0.00  0.00    +0.098 C 
ATOM      2  C   UNL     1      -5.424  -3.512   0.011  0.00  0.00    +0.008 A 
ATOM      3  C   UNL     1      -5.028  -4.169   1.163  0.00  0.00    +0.012 A 
ATOM      4  C   UNL     1      -4.990  -5.548   1.198  0.00  0.00    +0.047 A 
ATOM      5  C   UNL     1      -5.351  -6.282   0.077  0.00  0.00    +0.135 A 
ATOM      6  C   UNL     1      -5.749  -5.627  -1.077  0.00  0.00    +0.093 A 
ATOM      7  C   UNL     1      -5.785  -4.239  -1.112  0.00  0.00    +0.138 A 
ATOM      8  O   UNL     1      -6.178  -3.613  -2.249  0.00  0.00    -0.441 OA
ATOM      9  C   UNL     1      -6.591  -2.336  -2.203  0.00  0.00    +0.199 C 
ATOM     10  C   UNL     1      -6.282  -1.523  -1.169  0.00  0.00    +0.098 C 
ENDROOT
BRANCH   1  14
ATOM     11  C   UNL     1      -1.476  -0.507  -0.374  0.00  0.00    -0.045 A 
ATOM     12  C   UNL     1      -2.239  -0.178   0.730  0.00  0.00    +0.004 A 
ATOM     13  C   UNL     1      -3.528  -0.663   0.849  0.00  0.00    +0.005 A 
ATOM     14  C   UNL     1      -4.054  -1.477  -0.138  0.00  0.00    -0.035 A 
ATOM     15  C   UNL     1      -3.291  -1.804  -1.243  0.00  0.00    +0.005 A 
ATOM     16  C   UNL     1      -2.003  -1.316  -1.363  0.00  0.00    +0.004 A 
BRANCH  11  18
ATOM     17  C   UNL     1      -0.100   1.552  -0.510  0.00  0.00    +0.012 C 
ATOM     18  C   UNL     1      -0.070   0.022  -0.504  0.00  0.00    +0.013 C 
ATOM     19  C   UNL     1       0.769  -0.467   0.678  0.00  0.00    +0.012 C 
ENDBRANCH  11  18
ENDBRANCH   1  14
BRANCH   9  20
ATOM     20  N   UNL     1      -7.346  -1.842  -3.237  0.00  0.00    -0.328 N 
ATOM     21  H   UNL     1      -7.575  -2.414  -3.987  0.00  0.00    +0.145 HD
ATOM     22  H   UNL     1      -7.652  -0.922  -3.218  0.00  0.00    +0.145 HD
ENDBRANCH   9  20
BRANCH  10  23
ATOM     23  C   UNL     1      -6.753  -0.171  -1.180  0.00  0.00    +0.101 C 
ATOM     24  N   UNL     1      -7.126   0.902  -1.190  0.00  0.00    -0.191 NA
ENDBRANCH  10  23
BRANCH   5  25
ATOM     25  O   UNL     1      -5.314  -7.640   0.110  0.00  0.00    -0.423 OA
BRANCH  25  26
ATOM     26  C   UNL     1      -4.379  -8.264  -0.624  0.00  0.00    +0.350 C 
ATOM     27  O   UNL     1      -3.538  -7.619  -1.205  0.00  0.00    -0.247 OA
BRANCH  26  28
ATOM     28  C   UNL     1      -4.378  -9.767  -0.723  0.00  0.00    +0.349 C 
BRANCH  28  29
ATOM     29  O   UNL     1      -3.295 -10.189  -1.554  0.00  0.00    -0.479 OA
BRANCH  29  30
ATOM     30  C   UNL     1      -3.151 -11.527  -1.749  0.00  0.00    +0.140 A 
ATOM     31  C   UNL     1      -4.037 -12.414  -1.157  0.00  0.00    +0.048 A 
ATOM     32  C   UNL     1      -3.889 -13.773  -1.355  0.00  0.00    +0.023 A 
ATOM     33  C   UNL     1      -2.857 -14.250  -2.145  0.00  0.00    +0.043 A 
ATOM     34  C   UNL     1      -1.972 -13.367  -2.736  0.00  0.00    +0.043 A 
ATOM     35  C   UNL     1      -2.119 -12.006  -2.545  0.00  0.00    +0.084 A 
ATOM     36 CL   UNL     1      -1.012 -10.898  -3.293  0.00  0.00    -0.080 Cl
ATOM     37 CL   UNL     1      -2.674 -15.959  -2.392  0.00  0.00    -0.083 Cl
ENDBRANCH  29  30
ENDBRANCH  28  29
ENDBRANCH  26  28
ENDBRANCH  25  26
ENDBRANCH   5  25
TORSDOF 9
