REMARK  Name = ZINC33598408
REMARK  11 active torsions:
REMARK  status: ('A' for Active; 'I' for Inactive)
REMARK    1  A    between atoms: C_1  and  C_2
REMARK    2  A    between atoms: C_2  and  C_3
REMARK    3  A    between atoms: C_7  and  C_40
REMARK    4  A    between atoms: C_8  and  N_9
REMARK    5  A    between atoms: C_14  and  C_32
REMARK    6  A    between atoms: C_17  and  C_22
REMARK    7  A    between atoms: C_17  and  C_29
REMARK    8  A    between atoms: C_22  and  C_23
REMARK    9  A    between atoms: C_37  and  O_38
REMARK   10  A    between atoms: O_38  and  C_39
REMARK   11  A    between atoms: C_40  and  C_41
REMARK                            x       y       z     vdW  Elec       q    Type
REMARK                         _______ _______ _______ _____ _____    ______ ____
ROOT
ATOM      1  N   UNL     1      -0.573   0.352   2.087  0.00  0.00    -0.209 N 
ATOM      2  C   UNL     1       0.729   0.653   2.402  0.00  0.00    +0.229 C 
ATOM      3  O   UNL     1       1.676   0.705   1.647  0.00  0.00    -0.275 OA
ATOM      4  C   UNL     1       0.730   0.897   3.818  0.00  0.00    +0.077 C 
ATOM      5  C   UNL     1       1.527   1.507   4.890  0.00  0.00    -0.023 C 
ATOM      6  N   UNL     1       0.606   1.420   6.075  0.00  0.00    +0.396 N 
ATOM      7  C   UNL     1      -0.791   1.304   5.561  0.00  0.00    +0.048 C 
ATOM      8  C   UNL     1      -0.699   1.509   4.060  0.00  0.00    +0.086 C 
ATOM      9  C   UNL     1      -1.441   0.629   3.105  0.00  0.00    +0.229 C 
ATOM     10  O   UNL     1      -2.585   0.241   3.212  0.00  0.00    -0.275 OA
ATOM     11  H   UNL     1       0.866   0.537   6.677  0.00  0.00    -0.083 HD
ATOM     12  H   UNL     1       0.712   2.326   6.690  0.00  0.00    -0.083 HD
ENDROOT
BRANCH   1  18
ATOM     13  C   UNL     1      -1.321   0.653  -0.192  0.00  0.00    -0.026 A 
ATOM     14  C   UNL     1      -1.715   0.118  -1.403  0.00  0.00    +0.005 A 
ATOM     15  C   UNL     1      -1.749  -1.254  -1.576  0.00  0.00    +0.001 A 
ATOM     16  C   UNL     1      -1.398  -2.094  -0.535  0.00  0.00    +0.005 A 
ATOM     17  C   UNL     1      -1.008  -1.565   0.679  0.00  0.00    -0.026 A 
ATOM     18  C   UNL     1      -0.968  -0.188   0.855  0.00  0.00    +0.050 A 
BRANCH  13  20
ATOM     19  C   UNL     1       0.140   2.655  -0.270  0.00  0.00    +0.009 C 
ATOM     20  C   UNL     1      -1.279   2.148  -0.006  0.00  0.00    +0.033 C 
ENDBRANCH  13  20
BRANCH  17  21
ATOM     21  C   UNL     1      -0.626  -2.481   1.814  0.00  0.00    +0.033 C 
ATOM     22  C   UNL     1      -1.841  -2.708   2.716  0.00  0.00    +0.009 C 
ENDBRANCH  17  21
ENDBRANCH   1  18
BRANCH   5  23
ATOM     23  C   UNL     1       2.788   0.719   5.134  0.00  0.00    -0.019 A 
ATOM     24  C   UNL     1       2.767  -0.377   5.976  0.00  0.00    +0.005 A 
ATOM     25  C   UNL     1       3.923  -1.101   6.199  0.00  0.00    +0.000 A 
ATOM     26  C   UNL     1       5.103  -0.732   5.581  0.00  0.00    +0.004 A 
ATOM     27  C   UNL     1       5.130   0.363   4.739  0.00  0.00    +0.046 A 
ATOM     28  C   UNL     1       3.970   1.088   4.508  0.00  0.00    +0.122 A 
BRANCH  28  29
ATOM     29  O   UNL     1       3.992   2.162   3.675  0.00  0.00    -0.495 OA
ATOM     30  C   UNL     1       5.244   2.484   3.066  0.00  0.00    +0.277 C 
ENDBRANCH  28  29
ENDBRANCH   5  23
BRANCH   7  31
ATOM     31  C   UNL     1      -1.662   2.367   6.179  0.00  0.00    +0.346 C 
ATOM     32  O   UNL     1      -2.506   2.918   5.513  0.00  0.00    -0.248 OA
ATOM     33  O   UNL     1      -1.500   2.702   7.468  0.00  0.00    -0.248 OA
ENDBRANCH   7  31
BRANCH   7  34
ATOM     34  C   UNL     1      -1.355  -0.085   5.871  0.00  0.00    +0.003 C 
BRANCH  34  35
ATOM     35  C   UNL     1      -1.670  -0.186   7.365  0.00  0.00    -0.012 C 
ATOM     36  C   UNL     1      -0.383   0.001   8.171  0.00  0.00    +0.003 C 
ATOM     37  C   UNL     1      -0.698  -0.101   9.665  0.00  0.00    +0.000 C 
ATOM     38  C   UNL     1      -1.295  -1.476   9.968  0.00  0.00    +0.000 C 
ATOM     39  C   UNL     1      -2.582  -1.663   9.162  0.00  0.00    +0.000 C 
ATOM     40  C   UNL     1      -2.267  -1.561   7.668  0.00  0.00    +0.003 C 
ENDBRANCH  34  35
ENDBRANCH   7  34
TORSDOF 8
