REMARK  Name = ZINC02434773
REMARK  6 active torsions:
REMARK  status: ('A' for Active; 'I' for Inactive)
REMARK    1  A    between atoms: C_1  and  C_2
REMARK    2  A    between atoms: C_6  and  S_8
REMARK    3  A    between atoms: S_8  and  C_11
REMARK    4  A    between atoms: N_22  and  N_25
REMARK    5  A    between atoms: C_23  and  N_24
REMARK    6  A    between atoms: C_26  and  C_27
REMARK                            x       y       z     vdW  Elec       q    Type
REMARK                         _______ _______ _______ _____ _____    ______ ____
ROOT
ATOM      1  C   UNL     1       1.222  -2.954  -1.707  0.00  0.00    +0.162 A 
ATOM      2  C   UNL     1       0.072  -3.217  -2.490  0.00  0.00    +0.137 A 
ATOM      3  C   UNL     1       0.566  -3.606  -3.817  0.00  0.00    +0.184 A 
ATOM      4  N   UNL     1      -0.289  -3.909  -4.767  0.00  0.00    -0.224 NA
ATOM      5  C   UNL     1      -1.604  -3.871  -4.517  0.00  0.00    +0.092 A 
ATOM      6  C   UNL     1      -2.527  -4.198  -5.528  0.00  0.00    +0.030 A 
ATOM      7  C   UNL     1      -3.862  -4.149  -5.268  0.00  0.00    +0.002 A 
ATOM      8  C   UNL     1      -4.334  -3.776  -4.011  0.00  0.00    +0.002 A 
ATOM      9  C   UNL     1      -3.474  -3.452  -3.009  0.00  0.00    +0.030 A 
ATOM     10  C   UNL     1      -2.085  -3.492  -3.239  0.00  0.00    +0.090 A 
ATOM     11  N   UNL     1      -1.230  -3.175  -2.259  0.00  0.00    -0.240 NA
ATOM     12  N   UNL     1       1.944  -3.561  -3.744  0.00  0.00    -0.197 N 
ATOM     13  C   UNL     1       2.314  -3.171  -2.478  0.00  0.00    +0.148 A 
ENDROOT
BRANCH   1  14
ATOM     14  S   UNL     1       1.232  -2.441  -0.022  0.00  0.00    +0.030 S 
ATOM     15  O   UNL     1       2.488  -2.832   0.515  0.00  0.00    -0.164 OA
ATOM     16  O   UNL     1      -0.002  -2.866   0.539  0.00  0.00    -0.164 OA
BRANCH  14  22
ATOM     17  C   UNL     1       3.672   2.182  -0.024  0.00  0.00    +0.044 C 
ATOM     18  C   UNL     1       2.377   1.411  -0.015  0.00  0.00    -0.049 A 
ATOM     19  C   UNL     1       1.171   2.086   0.002  0.00  0.00    +0.003 A 
ATOM     20  C   UNL     1      -0.017   1.378   0.010  0.00  0.00    +0.002 A 
ATOM     21  C   UNL     1       0.002  -0.004   0.002  0.00  0.00    +0.027 A 
ATOM     22  C   UNL     1       1.208  -0.679  -0.013  0.00  0.00    +0.094 A 
ATOM     23  C   UNL     1       2.396   0.029  -0.021  0.00  0.00    +0.030 A 
ENDBRANCH  14  22
ENDBRANCH   1  14
BRANCH  13  24
ATOM     24  N   UNL     1       3.622  -3.020  -2.052  0.00  0.00    -0.341 N 
ATOM     25  H   UNL     1       3.805  -2.740  -1.141  0.00  0.00    +0.144 HD
ATOM     26  H   UNL     1       4.354  -3.194  -2.663  0.00  0.00    +0.144 HD
ENDBRANCH  13  24
BRANCH  12  27
ATOM     27  N   UNL     1       2.825  -3.866  -4.790  0.00  0.00    -0.171 NA
ATOM     28  C   UNL     1       3.249  -5.082  -4.947  0.00  0.00    +0.141 C 
BRANCH  28  29
ATOM     29  C   UNL     1       4.176  -5.402  -6.049  0.00  0.00    -0.005 A 
ATOM     30  C   UNL     1       4.593  -4.400  -6.928  0.00  0.00    +0.012 A 
ATOM     31  C   UNL     1       5.463  -4.705  -7.954  0.00  0.00    +0.039 A 
ATOM     32  C   UNL     1       5.915  -6.005  -8.119  0.00  0.00    +0.123 A 
ATOM     33  C   UNL     1       5.500  -7.005  -7.253  0.00  0.00    +0.039 A 
ATOM     34  C   UNL     1       4.635  -6.711  -6.221  0.00  0.00    +0.012 A 
ATOM     35  F   UNL     1       6.763  -6.299  -9.129  0.00  0.00    -0.205 F 
ENDBRANCH  28  29
ENDBRANCH  12  27
TORSDOF 5
