REMARK  Name = ZINC15946236
REMARK  11 active torsions:
REMARK  status: ('A' for Active; 'I' for Inactive)
REMARK    1  A    between atoms: C_1  and  C_2
REMARK    2  A    between atoms: C_2  and  C_3
REMARK    3  A    between atoms: C_3  and  C_4
REMARK    4  A    between atoms: C_3  and  C_5
REMARK    5  A    between atoms: C_3  and  C_6
REMARK    6  A    between atoms: C_15  and  O_32
REMARK    7  A    between atoms: C_17  and  C_20
REMARK    8  A    between atoms: C_22  and  N_29
REMARK    9  A    between atoms: C_23  and  O_28
REMARK   10  A    between atoms: C_24  and  O_26
REMARK   11  A    between atoms: O_26  and  C_27
REMARK                            x       y       z     vdW  Elec       q    Type
REMARK                         _______ _______ _______ _____ _____    ______ ____
ROOT
ATOM      1  C   UNL     1      -1.413  -2.063   0.004  0.00  0.00    -0.000 C 
ATOM      2  C   UNL     1      -2.848  -2.596   0.009  0.00  0.00    +0.009 C 
ATOM      3  C   UNL     1      -2.842  -4.107   0.249  0.00  0.00    +0.037 C 
ATOM      4  C   UNL     1      -1.895  -4.757  -0.750  0.00  0.00    -0.023 A 
ATOM      5  C   UNL     1      -0.958  -4.030  -1.400  0.00  0.00    -0.004 A 
ATOM      6  S   UNL     1      -0.116  -5.197  -2.434  0.00  0.00    -0.078 S 
ATOM      7  C   UNL     1      -0.950  -6.572  -2.029  0.00  0.00    +0.080 A 
ATOM      8  C   UNL     1      -1.906  -6.168  -1.090  0.00  0.00    +0.068 A 
ATOM      9  C   UNL     1      -2.822  -7.208  -0.553  0.00  0.00    +0.220 C 
ATOM     10  N   UNL     1      -2.526  -8.457  -0.791  0.00  0.00    -0.223 NA
ATOM     11  C   UNL     1      -1.327  -8.903  -1.490  0.00  0.00    +0.224 C 
ATOM     12  N   UNL     1      -0.837  -7.883  -2.435  0.00  0.00    -0.313 N 
ATOM     13  C   UNL     1      -0.700  -2.561  -1.261  0.00  0.00    +0.046 C 
ATOM     14  H   UNL     1      -0.457  -8.122  -3.295  0.00  0.00    +0.149 HD
ENDROOT
BRANCH  11  15
ATOM     15  C   UNL     1      -0.248  -9.195  -0.479  0.00  0.00    +0.000 A 
ATOM     16  C   UNL     1       1.080  -9.023  -0.820  0.00  0.00    +0.044 A 
ATOM     17  C   UNL     1       2.074  -9.289   0.103  0.00  0.00    +0.171 A 
ATOM     18  C   UNL     1       1.739  -9.728   1.374  0.00  0.00    +0.189 A 
ATOM     19  C   UNL     1       0.402  -9.901   1.717  0.00  0.00    +0.164 A 
ATOM     20  C   UNL     1      -0.590  -9.628   0.788  0.00  0.00    +0.057 A 
BRANCH  17  21
ATOM     21  N   UNL     1       3.496  -9.104  -0.265  0.00  0.00    +0.060 N 
ATOM     22  O   UNL     1       3.788  -8.721  -1.374  0.00  0.00    -0.126 OA
ATOM     23  O   UNL     1       4.365  -9.337   0.542  0.00  0.00    -0.126 OA
ENDBRANCH  17  21
BRANCH  19  24
ATOM     24  O   UNL     1       0.068 -10.333   2.963  0.00  0.00    -0.491 OA
ATOM     25  C   UNL     1      -1.324 -10.487   3.244  0.00  0.00    +0.277 C 
ENDBRANCH  19  24
BRANCH  18  26
ATOM     26  O   UNL     1       2.716  -9.991   2.284  0.00  0.00    -0.502 OA
ATOM     27  H   UNL     1       2.962  -9.230   2.827  0.00  0.00    +0.292 HD
ENDBRANCH  18  26
ENDBRANCH  11  15
BRANCH   1  28
ATOM     28  C   UNL     1      -1.433  -0.534   0.013  0.00  0.00    -0.032 C 
ATOM     29  C   UNL     1      -2.149  -0.040   1.272  0.00  0.00    +0.011 C 
ATOM     30  C   UNL     1      -2.173  -0.027  -1.227  0.00  0.00    +0.011 C 
BRANCH  28  32
ATOM     31  C   UNL     1      -0.019   1.526   0.010  0.00  0.00    +0.004 C 
ATOM     32  C   UNL     1       0.002  -0.004   0.002  0.00  0.00    +0.003 C 
ENDBRANCH  28  32
ENDBRANCH   1  28
BRANCH   9  33
ATOM     33  O   UNL     1      -3.923  -6.872   0.157  0.00  0.00    -0.492 OA
ATOM     34  H   UNL     1      -4.445  -7.629   0.456  0.00  0.00    +0.294 HD
ENDBRANCH   9  33
TORSDOF 7
