REMARK  Name = ZINC02731509
REMARK  6 active torsions:
REMARK  status: ('A' for Active; 'I' for Inactive)
REMARK    1  A    between atoms: C_1  and  C_2
REMARK    2  A    between atoms: N_5  and  C_7
REMARK    3  A    between atoms: C_7  and  C_9
REMARK    4  A    between atoms: C_7  and  C_10
REMARK    5  A    between atoms: N_19  and  C_21
REMARK    6  A    between atoms: C_21  and  C_22
REMARK                            x       y       z     vdW  Elec       q    Type
REMARK                         _______ _______ _______ _____ _____    ______ ____
ROOT
ATOM      1  C   UNL     1      -4.171   1.430   3.911  0.00  0.00    +0.128 A 
ATOM      2  N   UNL     1      -3.723   0.727   4.931  0.00  0.00    -0.142 NA
ATOM      3  N   UNL     1      -4.364  -0.249   5.408  0.00  0.00    -0.126 NA
ATOM      4  C   UNL     1      -5.528  -0.636   4.902  0.00  0.00    +0.187 A 
ATOM      5  S   UNL     1      -5.706   0.567   3.588  0.00  0.00    -0.033 S 
ATOM      6  N   UNL     1      -6.365  -1.675   5.281  0.00  0.00    -0.276 N 
ATOM      7  C   UNL     1      -6.015  -2.500   6.357  0.00  0.00    +0.146 A 
ATOM      8  C   UNL     1      -4.851  -2.390   7.136  0.00  0.00    +0.065 A 
ATOM      9  C   UNL     1      -4.883  -3.368   8.069  0.00  0.00    +0.110 A 
ATOM     10  N   UNL     1      -6.021  -4.073   7.892  0.00  0.00    -0.265 N 
ATOM     11  N   UNL     1      -6.718  -3.508   6.817  0.00  0.00    -0.156 NA
ATOM     12  H   UNL     1      -7.194  -1.829   4.802  0.00  0.00    +0.156 HD
ENDROOT
BRANCH   1  13
ATOM     13  C   UNL     1      -3.561   2.617   3.211  0.00  0.00    +0.161 C 
ATOM     14  C   UNL     1      -3.389   3.764   4.209  0.00  0.00    +0.040 C 
BRANCH  13  19
ATOM     15  C   UNL     1      -0.013   1.086   0.008  0.00  0.00    +0.067 C 
ATOM     16  C   UNL     1      -0.718   1.572   1.248  0.00  0.00    +0.060 A 
ATOM     17  C   UNL     1      -0.116   1.847   2.480  0.00  0.00    +0.044 A 
ATOM     18  C   UNL     1      -1.082   2.258   3.333  0.00  0.00    +0.109 A 
ATOM     19  N   UNL     1      -2.254   2.244   2.665  0.00  0.00    -0.262 N 
ATOM     20  N   UNL     1      -1.999   1.815   1.356  0.00  0.00    -0.176 NA
ENDBRANCH  13  19
ENDBRANCH   1  13
BRANCH  10  21
ATOM     21  C   UNL     1      -6.453  -5.223   8.690  0.00  0.00    +0.181 C 
BRANCH  21  22
ATOM     22  C   UNL     1      -7.832  -4.963   9.240  0.00  0.00    +0.010 A 
ATOM     23  C   UNL     1      -7.981  -4.353  10.472  0.00  0.00    +0.047 A 
ATOM     24  C   UNL     1      -9.248  -4.110  10.975  0.00  0.00    +0.020 A 
ATOM     25  C   UNL     1     -10.363  -4.486  10.249  0.00  0.00    +0.003 A 
ATOM     26  C   UNL     1     -10.214  -5.100   9.021  0.00  0.00    +0.020 A 
ATOM     27  C   UNL     1      -8.948  -5.339   8.515  0.00  0.00    +0.047 A 
ATOM     28 CL   UNL     1      -8.762  -6.111   6.971  0.00  0.00    -0.083 Cl
ATOM     29 CL   UNL     1      -6.581  -3.887  11.386  0.00  0.00    -0.083 Cl
ENDBRANCH  21  22
ENDBRANCH  10  21
TORSDOF 4
