REMARK  Name = ZINC01633519
REMARK  5 active torsions:
REMARK  status: ('A' for Active; 'I' for Inactive)
REMARK    1  A    between atoms: C_4  and  O_25
REMARK    2  A    between atoms: C_5  and  C_7
REMARK    3  A    between atoms: N_9  and  N_10
REMARK    4  A    between atoms: C_11  and  C_18
REMARK    5  A    between atoms: C_21  and  O_24
REMARK                            x       y       z     vdW  Elec       q    Type
REMARK                         _______ _______ _______ _____ _____    ______ ____
ROOT
ATOM      1  N   UNL     1       5.817   3.209   1.255  0.00  0.00    -0.210 N 
ATOM      2  C   UNL     1       5.103   3.323  -0.029  0.00  0.00    +0.154 C 
ATOM      3  C   UNL     1       5.085   4.840   0.224  0.00  0.00    +0.194 C 
ATOM      4  C   UNL     1       5.822   4.542   1.514  0.00  0.00    +0.252 C 
ATOM      5  O   UNL     1       6.248   5.225   2.421  0.00  0.00    -0.272 OA
ATOM      6 CL   UNL     1       3.432   5.514   0.473  0.00  0.00    -0.109 Cl
ENDROOT
BRANCH   2   7
ATOM      7  C   UNL     1       3.735   2.692  -0.019  0.00  0.00    -0.023 A 
ATOM      8  C   UNL     1       3.096   2.409  -1.213  0.00  0.00    +0.009 A 
ATOM      9  C   UNL     1       1.842   1.830  -1.207  0.00  0.00    +0.046 A 
ATOM     10  C   UNL     1       1.223   1.532  -0.001  0.00  0.00    +0.117 A 
ATOM     11  C   UNL     1       1.863   1.822   1.195  0.00  0.00    +0.046 A 
ATOM     12  C   UNL     1       3.119   2.397   1.183  0.00  0.00    +0.009 A 
BRANCH  10  13
ATOM     13  O   UNL     1      -0.011   0.963   0.007  0.00  0.00    -0.507 OA
ATOM     14  H   UNL     1       0.002  -0.004   0.002  0.00  0.00    +0.292 HD
ENDBRANCH  10  13
ENDBRANCH   2   7
BRANCH   1  17
ATOM     15  C   UNL     1       7.642   1.863   1.981  0.00  0.00    +0.264 C 
ATOM     16  O   UNL     1       8.404   2.598   1.383  0.00  0.00    -0.269 OA
ATOM     17  N   UNL     1       6.317   2.107   1.963  0.00  0.00    -0.227 N 
ATOM     18  H   UNL     1       5.709   1.521   2.440  0.00  0.00    +0.173 HD
BRANCH  15  23
ATOM     19  C   UNL     1       7.794  -1.225   4.108  0.00  0.00    +0.001 A 
ATOM     20  C   UNL     1       9.156  -1.477   4.127  0.00  0.00    +0.004 A 
ATOM     21  C   UNL     1      10.029  -0.648   3.451  0.00  0.00    +0.046 A 
ATOM     22  C   UNL     1       9.546   0.445   2.747  0.00  0.00    +0.129 A 
ATOM     23  C   UNL     1       8.168   0.703   2.726  0.00  0.00    +0.079 A 
ATOM     24  C   UNL     1       7.297  -0.141   3.419  0.00  0.00    +0.017 A 
BRANCH  22  25
ATOM     25  O   UNL     1      10.402   1.261   2.082  0.00  0.00    -0.506 OA
ATOM     26  H   UNL     1      10.733   1.999   2.612  0.00  0.00    +0.292 HD
ENDBRANCH  22  25
ENDBRANCH  15  23
ENDBRANCH   1  17
TORSDOF 5
