REMARK  Name = ZINC19774676
REMARK  12 active torsions:
REMARK  status: ('A' for Active; 'I' for Inactive)
REMARK    1  A    between atoms: C_1  and  C_2
REMARK    2  A    between atoms: C_3  and  C_25
REMARK    3  A    between atoms: C_4  and  C_14
REMARK    4  A    between atoms: C_16  and  O_23
REMARK    5  A    between atoms: C_17  and  O_22
REMARK    6  A    between atoms: C_18  and  O_20
REMARK    7  A    between atoms: O_20  and  C_21
REMARK    8  A    between atoms: O_23  and  C_24
REMARK    9  A    between atoms: C_25  and  O_27
REMARK   10  A    between atoms: O_27  and  C_28
REMARK   11  A    between atoms: C_28  and  C_29
REMARK   12  A    between atoms: C_28  and  C_30
REMARK                            x       y       z     vdW  Elec       q    Type
REMARK                         _______ _______ _______ _____ _____    ______ ____
ROOT
ATOM      1  C   UNL     1      -0.157   4.121  -0.197  0.00  0.00    +0.061 C 
ATOM      2  C   UNL     1       1.167   3.410  -0.093  0.00  0.00    +0.016 C 
ATOM      3  C   UNL     1       1.198   2.070   0.013  0.00  0.00    +0.065 C 
ATOM      4  C   UNL     1       2.498   1.327   0.117  0.00  0.00    +0.092 C 
ATOM      5  C   UNL     1       3.623   2.253   0.503  0.00  0.00    +0.024 C 
ATOM      6  C   UNL     1       3.492   3.590   0.372  0.00  0.00    +0.015 C 
ATOM      7  N   UNL     1       2.328   4.131  -0.106  0.00  0.00    -0.321 N 
ATOM      8  C   UNL     1       4.619   4.521   0.744  0.00  0.00    +0.051 C 
ATOM      9  C   UNL     1       5.434   3.909   1.886  0.00  0.00    +0.014 C 
ATOM     10  C   UNL     1       5.965   2.546   1.430  0.00  0.00    +0.080 C 
ATOM     11  C   UNL     1       4.806   1.685   1.008  0.00  0.00    +0.162 C 
ATOM     12  O   UNL     1       4.893   0.477   1.106  0.00  0.00    -0.292 OA
ATOM     13  H   UNL     1       2.334   5.156  -0.504  0.00  0.00    +0.152 HD
ENDROOT
BRANCH   4  14
ATOM     14  C   UNL     1       2.816   0.697  -1.214  0.00  0.00    -0.028 A 
ATOM     15  C   UNL     1       2.963   1.492  -2.335  0.00  0.00    +0.054 A 
ATOM     16  C   UNL     1       3.260   0.917  -3.562  0.00  0.00    +0.165 A 
ATOM     17  C   UNL     1       3.401  -0.462  -3.664  0.00  0.00    +0.201 A 
ATOM     18  C   UNL     1       3.247  -1.258  -2.536  0.00  0.00    +0.165 A 
ATOM     19  C   UNL     1       2.955  -0.674  -1.312  0.00  0.00    +0.054 A 
BRANCH  18  20
ATOM     20  O   UNL     1       3.384  -2.608  -2.631  0.00  0.00    -0.491 OA
ATOM     21  C   UNL     1       3.213  -3.364  -1.430  0.00  0.00    +0.277 C 
ENDBRANCH  18  20
BRANCH  17  22
ATOM     22  O   UNL     1       3.688  -1.030  -4.867  0.00  0.00    -0.501 OA
ATOM     23  H   UNL     1       3.799  -2.122  -4.947  0.00  0.00    +0.292 HD
ENDBRANCH  17  22
BRANCH  16  24
ATOM     24  O   UNL     1       3.410   1.701  -4.663  0.00  0.00    -0.491 OA
ATOM     25  C   UNL     1       3.251   3.110  -4.483  0.00  0.00    +0.277 C 
ENDBRANCH  16  24
ENDBRANCH   4  14
BRANCH   3  26
ATOM     26  C   UNL     1      -0.017   1.347   0.033  0.00  0.00    +0.338 C 
ATOM     27  O   UNL     1      -1.078   1.942   0.060  0.00  0.00    -0.245 OA
BRANCH  26  28
ATOM     28  O   UNL     1      -0.000  -0.002   0.016  0.00  0.00    -0.459 OA
BRANCH  28  29
ATOM     29  C   UNL     1      -1.265  -0.667   0.037  0.00  0.00    +0.171 C 
ATOM     30  C   UNL     1      -1.750  -0.887  -1.397  0.00  0.00    +0.052 C 
ATOM     31  C   UNL     1      -1.118  -2.019   0.739  0.00  0.00    +0.052 C 
ENDBRANCH  28  29
ENDBRANCH  26  28
ENDBRANCH   3  26
TORSDOF 7
