REMARK  Name = ZINC39927463
REMARK  5 active torsions:
REMARK  status: ('A' for Active; 'I' for Inactive)
REMARK    1  A    between atoms: C_4  and  C_7
REMARK    2  A    between atoms: C_7  and  C_8
REMARK    3  A    between atoms: C_7  and  N_14
REMARK    4  A    between atoms: N_17  and  C_20
REMARK    5  A    between atoms: N_23  and  C_28
REMARK                            x       y       z     vdW  Elec       q    Type
REMARK                         _______ _______ _______ _____ _____    ______ ____
ROOT
ATOM      1  N   UNL     1       3.483  -2.022  -0.978  0.00  0.00    -0.289 NA
ATOM      2  C   UNL     1       2.442  -2.708  -0.202  0.00  0.00    +0.104 C 
ATOM      3  C   UNL     1       1.878  -3.870  -1.027  0.00  0.00    +0.120 C 
ATOM      4  N   UNL     1       2.997  -4.723  -1.458  0.00  0.00    -0.325 N 
ATOM      5  C   UNL     1       4.143  -4.084  -2.122  0.00  0.00    +0.120 C 
ATOM      6  C   UNL     1       4.617  -2.913  -1.254  0.00  0.00    +0.104 C 
ENDROOT
BRANCH   4   7
ATOM      7  C   UNL     1       2.971  -6.091  -1.244  0.00  0.00    +0.074 A 
ATOM      8  C   UNL     1       3.921  -6.697  -0.395  0.00  0.00    +0.157 A 
ATOM      9  N   UNL     1       3.899  -7.984  -0.193  0.00  0.00    -0.171 NA
ATOM     10  N   UNL     1       2.939  -8.795  -0.807  0.00  0.00    -0.186 N 
ATOM     11  C   UNL     1       2.012  -8.258  -1.625  0.00  0.00    +0.291 A 
ATOM     12  O   UNL     1       1.176  -8.972  -2.159  0.00  0.00    -0.264 OA
ATOM     13  C   UNL     1       2.010  -6.875  -1.856  0.00  0.00    +0.129 A 
ATOM     14 CL   UNL     1       0.823  -6.158  -2.900  0.00  0.00    -0.076 Cl
BRANCH  10  15
ATOM     15  C   UNL     1       2.941 -10.239  -0.559  0.00  0.00    +0.305 C 
ATOM     16  N   UNL     1       2.830 -10.503   0.881  0.00  0.00    -0.345 N 
ATOM     17  C   UNL     1       3.898 -11.154   1.242  0.00  0.00    +0.062 A 
ATOM     18  C   UNL     1       4.354 -11.687   2.533  0.00  0.00    +0.027 A 
ATOM     19  C   UNL     1       5.535 -12.333   2.605  0.00  0.00    +0.002 A 
ATOM     20  C   UNL     1       6.366 -12.523   1.486  0.00  0.00    +0.002 A 
ATOM     21  C   UNL     1       6.043 -12.074   0.257  0.00  0.00    +0.027 A 
ATOM     22  C   UNL     1       4.777 -11.355   0.057  0.00  0.00    +0.062 A 
ATOM     23  N   UNL     1       4.218 -10.822  -0.991  0.00  0.00    -0.345 N 
ATOM     24  H   UNL     1       2.095 -10.241   1.457  0.00  0.00    +0.163 HD
ATOM     25  H   UNL     1       4.578 -10.812  -1.891  0.00  0.00    +0.163 HD
ENDBRANCH  10  15
ENDBRANCH   4   7
BRANCH   1  26
ATOM     26  C   UNL     1       3.929  -0.800  -0.294  0.00  0.00    +0.117 C 
BRANCH  26  30
ATOM     27  C   UNL     1       6.889   1.159  -2.671  0.00  0.00    +0.000 A 
ATOM     28  C   UNL     1       7.084   1.007  -1.311  0.00  0.00    +0.000 A 
ATOM     29  C   UNL     1       6.126   0.374  -0.542  0.00  0.00    +0.005 A 
ATOM     30  C   UNL     1       4.973  -0.108  -1.133  0.00  0.00    -0.026 A 
ATOM     31  C   UNL     1       4.777   0.045  -2.493  0.00  0.00    +0.005 A 
ATOM     32  C   UNL     1       5.736   0.678  -3.262  0.00  0.00    +0.000 A 
ENDBRANCH  26  30
BRANCH  26  33
ATOM     33  C   UNL     1       2.753   0.122  -0.095  0.00  0.00    -0.026 A 
ATOM     34  C   UNL     1       1.861   0.336  -1.129  0.00  0.00    +0.005 A 
ATOM     35  C   UNL     1       0.782   1.181  -0.946  0.00  0.00    +0.000 A 
ATOM     36  C   UNL     1       0.596   1.811   0.270  0.00  0.00    +0.000 A 
ATOM     37  C   UNL     1       1.488   1.596   1.304  0.00  0.00    +0.000 A 
ATOM     38  C   UNL     1       2.564   0.748   1.123  0.00  0.00    +0.005 A 
ENDBRANCH  26  33
ENDBRANCH   1  26
TORSDOF 5
