REMARK  Name = ZINC58310240
REMARK  12 active torsions:
REMARK  status: ('A' for Active; 'I' for Inactive)
REMARK    1  A    between atoms: C_1  and  C_2
REMARK    2  A    between atoms: C_2  and  O_3
REMARK    3  A    between atoms: O_3  and  C_4
REMARK    4  A    between atoms: C_7  and  S_10
REMARK    5  A    between atoms: S_10  and  N_13
REMARK    6  A    between atoms: N_13  and  C_14
REMARK    7  A    between atoms: C_14  and  C_15
REMARK    8  A    between atoms: C_15  and  C_16
REMARK    9  A    between atoms: N_18  and  C_19
REMARK   10  A    between atoms: C_24  and  C_25
REMARK   11  A    between atoms: C_25  and  N_26
REMARK   12  A    between atoms: C_30  and  C_32
REMARK                            x       y       z     vdW  Elec       q    Type
REMARK                         _______ _______ _______ _____ _____    ______ ____
ROOT
ATOM      1  C   UNL     1      -1.685  -6.754  -6.188  0.00  0.00    +0.218 C 
ATOM      2  O   UNL     1      -1.047  -5.817  -6.623  0.00  0.00    -0.275 OA
ATOM      3  N   UNL     1      -2.590  -7.374  -6.971  0.00  0.00    -0.285 N 
ATOM      4  H   UNL     1      -3.053  -8.162  -6.646  0.00  0.00    +0.155 HD
ENDROOT
BRANCH   3   5
ATOM      5  C   UNL     1      -2.861  -6.881  -8.252  0.00  0.00    +0.035 A 
ATOM      6  C   UNL     1      -1.847  -6.306  -9.006  0.00  0.00    +0.023 A 
ATOM      7  C   UNL     1      -2.118  -5.820 -10.270  0.00  0.00    +0.002 A 
ATOM      8  C   UNL     1      -3.399  -5.906 -10.785  0.00  0.00    +0.000 A 
ATOM      9  C   UNL     1      -4.411  -6.478 -10.037  0.00  0.00    +0.003 A 
ATOM     10  C   UNL     1      -4.145  -6.971  -8.774  0.00  0.00    -0.043 A 
BRANCH  10  11
ATOM     11  C   UNL     1      -5.247  -7.601  -7.962  0.00  0.00    -0.040 C 
BRANCH  11  12
ATOM     12  N   UNL     1      -5.753  -6.628  -6.985  0.00  0.00    +0.390 N 
ATOM     13  C   UNL     1      -6.471  -5.530  -7.681  0.00  0.00    -0.077 C 
ATOM     14  C   UNL     1      -7.385  -4.946  -6.575  0.00  0.00    -0.020 C 
ATOM     15  C   UNL     1      -7.823  -6.204  -5.789  0.00  0.00    -0.008 C 
ATOM     16  C   UNL     1      -6.752  -7.265  -6.100  0.00  0.00    +0.019 C 
ATOM     17  H   UNL     1      -4.992  -6.255  -6.439  0.00  0.00    -0.080 HD
BRANCH  16  18
ATOM     18  C   UNL     1      -6.092  -7.718  -4.823  0.00  0.00    +0.197 C 
ATOM     19  O   UNL     1      -4.905  -7.533  -4.656  0.00  0.00    -0.278 OA
ATOM     20  N   UNL     1      -6.820  -8.329  -3.868  0.00  0.00    -0.331 N 
ATOM     21  H   UNL     1      -7.769  -8.477  -4.002  0.00  0.00    +0.145 HD
ATOM     22  H   UNL     1      -6.395  -8.620  -3.046  0.00  0.00    +0.145 HD
ENDBRANCH  16  18
ENDBRANCH  11  12
ENDBRANCH  10  11
ENDBRANCH   3   5
BRANCH   1  23
ATOM     23  C   UNL     1      -1.464  -7.223  -4.773  0.00  0.00    +0.113 C 
BRANCH  23  24
ATOM     24  C   UNL     1      -0.393  -6.356  -4.109  0.00  0.00    +0.115 C 
BRANCH  24  25
ATOM     25  N   UNL     1      -0.178  -6.813  -2.734  0.00  0.00    -0.189 NA
ATOM     26  H   UNL     1      -0.822  -7.404  -2.313  0.00  0.00    +0.148 HD
BRANCH  25  27
ATOM     27  S   UNL     1       1.163  -6.319  -1.897  0.00  0.00    +0.058 S 
ATOM     28  O   UNL     1       2.277  -6.535  -2.752  0.00  0.00    -0.153 OA
ATOM     29  O   UNL     1       1.072  -6.901  -0.604  0.00  0.00    -0.153 OA
BRANCH  27  33
ATOM     30  C   UNL     1       0.814  -1.840  -1.329  0.00  0.00    +0.121 A 
ATOM     31  C   UNL     1       0.286  -2.704  -0.380  0.00  0.00    +0.047 A 
ATOM     32  C   UNL     1       0.394  -4.070  -0.556  0.00  0.00    +0.032 A 
ATOM     33  C   UNL     1       1.027  -4.577  -1.676  0.00  0.00    +0.105 A 
ATOM     34  C   UNL     1       1.554  -3.718  -2.623  0.00  0.00    +0.032 A 
ATOM     35  C   UNL     1       1.444  -2.351  -2.454  0.00  0.00    +0.047 A 
BRANCH  30  36
ATOM     36  O   UNL     1       0.709  -0.496  -1.158  0.00  0.00    -0.492 OA
BRANCH  36  38
ATOM     37  C   UNL     1       0.027   1.488   0.041  0.00  0.00    +0.048 C 
ATOM     38  C   UNL     1       0.048  -0.042   0.025  0.00  0.00    +0.225 C 
ENDBRANCH  36  38
ENDBRANCH  30  36
ENDBRANCH  27  33
ENDBRANCH  25  27
ENDBRANCH  24  25
ENDBRANCH  23  24
ENDBRANCH   1  23
TORSDOF 11
