REMARK  Name = ZINC36557215
REMARK  5 active torsions:
REMARK  status: ('A' for Active; 'I' for Inactive)
REMARK    1  A    between atoms: C_1  and  N_2
REMARK    2  A    between atoms: N_2  and  C_3
REMARK    3  A    between atoms: N_2  and  S_9
REMARK    4  A    between atoms: S_9  and  C_12
REMARK    5  A    between atoms: C_25  and  C_28
REMARK                            x       y       z     vdW  Elec       q    Type
REMARK                         _______ _______ _______ _____ _____    ______ ____
ROOT
ATOM      1  C   UNL     1      -0.344  -1.689  -2.143  0.00  0.00    +0.109 A 
ATOM      2  C   UNL     1       0.538  -1.401  -3.169  0.00  0.00    +0.030 A 
ATOM      3  C   UNL     1       1.085  -2.422  -3.918  0.00  0.00    +0.025 A 
ATOM      4  C   UNL     1       0.759  -3.745  -3.647  0.00  0.00    +0.031 A 
ATOM      5  C   UNL     1      -0.125  -4.029  -2.600  0.00  0.00    -0.018 A 
ATOM      6  C   UNL     1      -0.669  -3.002  -1.859  0.00  0.00    +0.034 A 
ATOM      7  C   UNL     1      -0.416  -5.452  -2.319  0.00  0.00    +0.049 C 
ATOM      8  C   UNL     1      -1.694  -5.884  -1.697  0.00  0.00    -0.023 C 
ATOM      9  C   UNL     1      -1.998  -7.094  -2.150  0.00  0.00    -0.030 C 
ATOM     10  C   UNL     1      -0.942  -7.557  -3.155  0.00  0.00    +0.033 C 
ATOM     11  C   UNL     1      -0.429  -6.213  -3.679  0.00  0.00    +0.029 C 
ATOM     12  C   UNL     1       1.006  -6.186  -4.172  0.00  0.00    +0.106 C 
ATOM     13  N   UNL     1       1.310  -4.763  -4.435  0.00  0.00    -0.336 N 
ATOM     14  H   UNL     1       1.903  -4.530  -5.167  0.00  0.00    +0.147 HD
ENDROOT
BRANCH  12  15
ATOM     15  C   UNL     1       1.931  -6.732  -3.114  0.00  0.00    -0.009 A 
ATOM     16  C   UNL     1       2.566  -5.870  -2.239  0.00  0.00    +0.007 A 
ATOM     17  C   UNL     1       3.413  -6.370  -1.269  0.00  0.00    +0.000 A 
ATOM     18  C   UNL     1       3.627  -7.732  -1.173  0.00  0.00    +0.001 A 
ATOM     19  C   UNL     1       2.994  -8.595  -2.047  0.00  0.00    +0.020 A 
ATOM     20  C   UNL     1       2.140  -8.095  -3.015  0.00  0.00    +0.046 A 
ATOM     21 CL   UNL     1       1.339  -9.179  -4.109  0.00  0.00    -0.083 Cl
ENDBRANCH  12  15
BRANCH   1  22
ATOM     22  S   UNL     1      -1.049  -0.382  -1.194  0.00  0.00    +0.074 S 
ATOM     23  O   UNL     1      -2.171  -0.931  -0.517  0.00  0.00    -0.150 OA
ATOM     24  O   UNL     1      -1.156   0.738  -2.062  0.00  0.00    -0.150 OA
BRANCH  22  26
ATOM     25  C   UNL     1       1.141   0.957  -0.343  0.00  0.00    +0.157 C 
ATOM     26  N   UNL     1       0.054   0.026  -0.029  0.00  0.00    -0.206 N 
BRANCH  26  27
ATOM     27  C   UNL     1      -0.052  -0.516   1.254  0.00  0.00    +0.051 A 
ATOM     28  C   UNL     1       0.188  -1.869   1.460  0.00  0.00    +0.025 A 
ATOM     29  C   UNL     1       0.083  -2.402   2.729  0.00  0.00    +0.002 A 
ATOM     30  C   UNL     1      -0.261  -1.591   3.795  0.00  0.00    +0.000 A 
ATOM     31  C   UNL     1      -0.501  -0.244   3.594  0.00  0.00    +0.002 A 
ATOM     32  C   UNL     1      -0.392   0.297   2.328  0.00  0.00    +0.025 A 
ENDBRANCH  26  27
ENDBRANCH  22  26
ENDBRANCH   1  22
TORSDOF 4
