REMARK  Name = ZINC20867443
REMARK  5 active torsions:
REMARK  status: ('A' for Active; 'I' for Inactive)
REMARK    1  A    between atoms: C_1  and  C_2
REMARK    2  A    between atoms: C_2  and  C_3
REMARK    3  A    between atoms: C_6  and  N_9
REMARK    4  A    between atoms: N_9  and  C_10
REMARK    5  A    between atoms: C_10  and  C_11
REMARK                            x       y       z     vdW  Elec       q    Type
REMARK                         _______ _______ _______ _____ _____    ______ ____
ROOT
ATOM      1  N   UNL     1       1.222  -2.666  -1.405  0.00  0.00    -0.277 N 
ATOM      2  C   UNL     1       2.405  -3.106  -1.958  0.00  0.00    +0.136 C 
ATOM      3  N   UNL     1       3.640  -2.870  -1.520  0.00  0.00    -0.362 N 
ATOM      4  C   UNL     1       4.701  -3.541  -2.194  0.00  0.00    +0.117 C 
ATOM      5  C   UNL     1       6.175  -3.209  -2.067  0.00  0.00    +0.191 C 
ATOM      6  S   UNL     1       6.861  -4.236  -3.449  0.00  0.00    -0.028 S 
ATOM      7  O   UNL     1       7.537  -5.359  -2.900  0.00  0.00    -0.174 OA
ATOM      8  O   UNL     1       7.540  -3.388  -4.364  0.00  0.00    -0.174 OA
ATOM      9  C   UNL     1       5.268  -4.802  -4.214  0.00  0.00    +0.182 C 
ATOM     10  C   UNL     1       4.361  -3.667  -3.724  0.00  0.00    +0.099 C 
ATOM     11  S   UNL     1       2.615  -4.118  -3.431  0.00  0.00    -0.085 S 
ATOM     12  H   UNL     1       3.802  -2.185  -0.676  0.00  0.00    +0.162 HD
ENDROOT
BRANCH   1  16
ATOM     13  C   UNL     1      -2.388  -3.415  -3.344  0.00  0.00    -0.048 A 
ATOM     14  C   UNL     1      -2.115  -4.026  -2.134  0.00  0.00    +0.005 A 
ATOM     15  C   UNL     1      -0.919  -3.780  -1.488  0.00  0.00    +0.024 A 
ATOM     16  C   UNL     1       0.010  -2.917  -2.056  0.00  0.00    +0.036 A 
ATOM     17  C   UNL     1      -0.270  -2.301  -3.269  0.00  0.00    +0.024 A 
ATOM     18  C   UNL     1      -1.465  -2.556  -3.912  0.00  0.00    +0.005 A 
BRANCH  13  20
ATOM     19  C   UNL     1      -4.740  -2.669  -3.588  0.00  0.00    +0.009 C 
ATOM     20  C   UNL     1      -3.693  -3.687  -4.046  0.00  0.00    +0.032 C 
ENDBRANCH  13  20
ENDBRANCH   1  16
BRANCH   1  21
ATOM     21  C   UNL     1       1.234  -1.935  -0.136  0.00  0.00    +0.148 C 
BRANCH  21  22
ATOM     22  C   UNL     1       1.364  -0.458  -0.408  0.00  0.00    -0.028 A 
ATOM     23  C   UNL     1       2.616   0.122  -0.488  0.00  0.00    +0.005 A 
ATOM     24  C   UNL     1       2.736   1.476  -0.738  0.00  0.00    +0.002 A 
ATOM     25  C   UNL     1       1.604   2.251  -0.907  0.00  0.00    +0.020 A 
ATOM     26  C   UNL     1       0.351   1.671  -0.827  0.00  0.00    +0.041 A 
ATOM     27  C   UNL     1       0.232   0.315  -0.577  0.00  0.00    +0.025 A 
ATOM     28 CL   UNL     1      -1.071   2.642  -1.047  0.00  0.00    -0.084 Cl
ENDBRANCH  21  22
ENDBRANCH   1  21
TORSDOF 4
