REMARK  Name = ZINC61594669
REMARK  7 active torsions:
REMARK  status: ('A' for Active; 'I' for Inactive)
REMARK    1  A    between atoms: C_1  and  C_2
REMARK    2  A    between atoms: C_2  and  C_4
REMARK    3  A    between atoms: C_2  and  N_23
REMARK    4  A    between atoms: C_4  and  C_6
REMARK    5  A    between atoms: C_4  and  S_12
REMARK    6  A    between atoms: S_12  and  C_13
REMARK    7  A    between atoms: N_19  and  C_20
REMARK                            x       y       z     vdW  Elec       q    Type
REMARK                         _______ _______ _______ _____ _____    ______ ____
ROOT
ATOM      1  C   UNL     1       0.742  -0.511   1.242  0.00  0.00    +0.076 C 
ENDROOT
BRANCH   1   2
ATOM      2  C   UNL     1       2.188  -0.092   1.170  0.00  0.00    +0.003 A 
ATOM      3  C   UNL     1       2.897   0.678   2.030  0.00  0.00    +0.014 A 
ATOM      4  C   UNL     1       4.228   0.935   1.760  0.00  0.00    +0.028 A 
ATOM      5  C   UNL     1       4.785   0.408   0.640  0.00  0.00    +0.078 A 
ATOM      6  S   UNL     1       3.413  -0.488  -0.068  0.00  0.00    -0.081 S 
ATOM      7 CL   UNL     1       6.411   0.560   0.052  0.00  0.00    -0.076 Cl
ENDBRANCH   1   2
BRANCH   1   9
ATOM      8  C   UNL     1      -0.019   1.526   0.010  0.00  0.00    -0.013 C 
ATOM      9  C   UNL     1       0.002  -0.004   0.002  0.00  0.00    -0.060 C 
BRANCH   9  10
ATOM     10  N   UNL     1       0.690  -0.478  -1.207  0.00  0.00    +0.381 N 
ATOM     11  H   UNL     1       1.636  -0.129  -1.214  0.00  0.00    -0.090 HD
ATOM     12  H   UNL     1       0.703  -1.487  -1.212  0.00  0.00    -0.090 HD
ATOM     13  H   UNL     1       0.202  -0.144  -2.024  0.00  0.00    -0.090 HD
ENDBRANCH   9  10
ENDBRANCH   1   9
BRANCH   1  14
ATOM     14  S   UNL     1       0.639  -2.321   1.309  0.00  0.00    -0.079 S 
BRANCH  14  15
ATOM     15  C   UNL     1      -1.078  -2.642   1.538  0.00  0.00    +0.193 A 
ATOM     16  N   UNL     1      -2.014  -1.741   1.624  0.00  0.00    -0.145 NA
ATOM     17  N   UNL     1      -3.237  -2.402   1.802  0.00  0.00    -0.226 N 
ATOM     18  H   UNL     1      -4.107  -1.984   1.897  0.00  0.00    +0.194 HD
ATOM     19  C   UNL     1      -2.982  -3.727   1.817  0.00  0.00    +0.345 A 
ATOM     20  O   UNL     1      -3.803  -4.617   1.952  0.00  0.00    -0.245 OA
ATOM     21  N   UNL     1      -1.654  -3.887   1.649  0.00  0.00    -0.268 N 
BRANCH  21  22
ATOM     22  C   UNL     1      -0.945  -5.168   1.597  0.00  0.00    +0.094 C 
ATOM     23  C   UNL     1      -1.790  -6.442   1.538  0.00  0.00    +0.027 C 
ATOM     24  C   UNL     1      -1.042  -6.079   2.822  0.00  0.00    +0.027 C 
ENDBRANCH  21  22
ENDBRANCH  14  15
ENDBRANCH   1  14
TORSDOF 6
