REMARK  Name = ZINC01579902
REMARK  7 active torsions:
REMARK  status: ('A' for Active; 'I' for Inactive)
REMARK    1  A    between atoms: C_5  and  C_7
REMARK    2  A    between atoms: N_8  and  N_9
REMARK    3  A    between atoms: C_10  and  C_12
REMARK    4  A    between atoms: C_12  and  C_14
REMARK    5  A    between atoms: C_12  and  N_38
REMARK    6  A    between atoms: C_14  and  C_15
REMARK    7  A    between atoms: C_18  and  O_21
REMARK                            x       y       z     vdW  Elec       q    Type
REMARK                         _______ _______ _______ _____ _____    ______ ____
ROOT
ATOM      1  C   UNL     1       4.864   8.078   0.000  0.00  0.00    +0.019 C 
ENDROOT
BRANCH   1   3
ATOM      2  N   UNL     1       3.596   5.955   0.001  0.00  0.00    -0.208 N 
ATOM      3  C   UNL     1       3.572   7.302   0.008  0.00  0.00    +0.218 C 
ATOM      4  O   UNL     1       2.511   7.891   0.021  0.00  0.00    -0.276 OA
ATOM      5  H   UNL     1       4.444   5.484  -0.010  0.00  0.00    +0.177 HD
BRANCH   2   7
ATOM      6  C   UNL     1       2.417   3.936   0.001  0.00  0.00    +0.139 C 
ATOM      7  N   UNL     1       2.395   5.233   0.008  0.00  0.00    -0.188 NA
BRANCH   6  12
ATOM      8  C   UNL     1      -0.013   1.076   0.008  0.00  0.00    +0.001 A 
ATOM      9  C   UNL     1      -1.222   1.750   0.017  0.00  0.00    +0.001 A 
ATOM     10  C   UNL     1      -1.250   3.132   0.031  0.00  0.00    +0.020 A 
ATOM     11  C   UNL     1      -0.071   3.851   0.023  0.00  0.00    +0.050 A 
ATOM     12  C   UNL     1       1.153   3.176   0.008  0.00  0.00    +0.013 A 
ATOM     13  C   UNL     1       1.173   1.780   0.000  0.00  0.00    +0.011 A 
ATOM     14 CL   UNL     1      -0.109   5.586   0.033  0.00  0.00    -0.083 Cl
ENDBRANCH   6  12
ENDBRANCH   2   7
ENDBRANCH   1   3
BRANCH   1  17
ATOM     15  H   UNL     1       4.287   9.453  -1.420  0.00  0.00    -0.089 HD
ATOM     16  H   UNL     1       3.953   9.919   0.141  0.00  0.00    -0.089 HD
ATOM     17  N   UNL     1       4.633   9.458  -0.462  0.00  0.00    +0.386 N 
ATOM     18  H   UNL     1       5.517   9.979  -0.428  0.00  0.00    -0.089 HD
ENDBRANCH   1  17
BRANCH   1  19
ATOM     19  C   UNL     1       5.443   8.119   1.416  0.00  0.00    +0.028 C 
BRANCH  19  20
ATOM     20  C   UNL     1       6.793   8.787   1.387  0.00  0.00    -0.048 A 
ATOM     21  C   UNL     1       7.934   8.030   1.197  0.00  0.00    +0.007 A 
ATOM     22  C   UNL     1       9.173   8.642   1.164  0.00  0.00    +0.045 A 
ATOM     23  C   UNL     1       9.272  10.015   1.335  0.00  0.00    +0.117 A 
ATOM     24  C   UNL     1       8.126  10.771   1.532  0.00  0.00    +0.045 A 
ATOM     25  C   UNL     1       6.889  10.156   1.558  0.00  0.00    +0.007 A 
BRANCH  23  26
ATOM     26  O   UNL     1      10.489  10.618   1.309  0.00  0.00    -0.507 OA
ATOM     27  H   UNL     1      10.917  10.679   2.174  0.00  0.00    +0.292 HD
ENDBRANCH  23  26
ENDBRANCH  19  20
ENDBRANCH   1  19
TORSDOF 7
