REMARK  Name = ZINC39021367
REMARK  9 active torsions:
REMARK  status: ('A' for Active; 'I' for Inactive)
REMARK    1  A    between atoms: C_1  and  C_2
REMARK    2  A    between atoms: C_8  and  C_14
REMARK    3  A    between atoms: C_14  and  N_15
REMARK    4  A    between atoms: N_15  and  C_16
REMARK    5  A    between atoms: N_15  and  S_20
REMARK    6  A    between atoms: C_16  and  C_17
REMARK    7  A    between atoms: C_17  and  O_18
REMARK    8  A    between atoms: O_18  and  C_19
REMARK    9  A    between atoms: S_20  and  C_23
REMARK                            x       y       z     vdW  Elec       q    Type
REMARK                         _______ _______ _______ _____ _____    ______ ____
ROOT
ATOM      1  N   UNL     1       1.271  -1.833   5.711  0.00  0.00    -0.173 NA
ENDROOT
BRANCH   1   2
ATOM      2  S   UNL     1       2.009  -0.353   5.796  0.00  0.00    +0.061 S 
ATOM      3  O   UNL     1       2.445  -0.194   7.139  0.00  0.00    -0.153 OA
ATOM      4  O   UNL     1       2.900  -0.279   4.692  0.00  0.00    -0.153 OA
BRANCH   2   5
ATOM      5  C   UNL     1       0.765   0.865   5.523  0.00  0.00    +0.106 A 
ATOM      6  C   UNL     1       0.577   1.389   4.258  0.00  0.00    +0.030 A 
ATOM      7  C   UNL     1      -0.398   2.344   4.043  0.00  0.00    +0.022 A 
ATOM      8  C   UNL     1      -1.186   2.777   5.095  0.00  0.00    +0.041 A 
ATOM      9  C   UNL     1      -0.997   2.253   6.361  0.00  0.00    +0.022 A 
ATOM     10  C   UNL     1      -0.025   1.293   6.574  0.00  0.00    +0.030 A 
ATOM     11 CL   UNL     1      -2.410   3.978   4.826  0.00  0.00    -0.084 Cl
ENDBRANCH   2   5
ENDBRANCH   1   2
BRANCH   1  12
ATOM     12  C   UNL     1       1.293  -2.592   4.458  0.00  0.00    +0.126 C 
BRANCH  12  20
ATOM     13  C   UNL     1      -2.509   0.247   0.565  0.00  0.00    +0.045 C 
ATOM     14  C   UNL     1      -1.843  -1.103   0.502  0.00  0.00    -0.029 A 
ATOM     15  C   UNL     1      -1.791  -1.774  -0.678  0.00  0.00    +0.005 A 
ATOM     16  C   UNL     1      -1.190  -3.027  -0.805  0.00  0.00    +0.001 A 
ATOM     17  C   UNL     1      -0.616  -3.647   0.258  0.00  0.00    +0.009 A 
ATOM     18  C   UNL     1      -0.636  -2.979   1.560  0.00  0.00    -0.007 A 
ATOM     19  C   UNL     1      -0.072  -3.564   2.655  0.00  0.00    -0.003 C 
ATOM     20  C   UNL     1      -0.139  -2.800   3.962  0.00  0.00    +0.114 C 
ATOM     21  C   UNL     1      -0.825  -1.453   3.946  0.00  0.00    +0.225 C 
ATOM     22  O   UNL     1      -0.906  -0.797   4.967  0.00  0.00    -0.275 OA
ATOM     23  N   UNL     1      -1.334  -0.990   2.817  0.00  0.00    -0.284 N 
ATOM     24  C   UNL     1      -1.273  -1.655   1.664  0.00  0.00    +0.043 A 
ATOM     25  H   UNL     1      -1.770  -0.123   2.828  0.00  0.00    +0.155 HD
ENDBRANCH  12  20
ENDBRANCH   1  12
BRANCH   1  26
ATOM     26  C   UNL     1       0.596  -2.385   6.889  0.00  0.00    +0.137 C 
BRANCH  26  27
ATOM     27  C   UNL     1       1.554  -3.312   7.638  0.00  0.00    +0.176 C 
BRANCH  27  28
ATOM     28  O   UNL     1       2.650  -2.552   8.151  0.00  0.00    -0.382 OA
ATOM     29  C   UNL     1       3.609  -3.328   8.873  0.00  0.00    +0.194 C 
ENDBRANCH  27  28
ENDBRANCH  26  27
ENDBRANCH   1  26
TORSDOF 7
