REMARK  Name = ZINC36800130
REMARK  13 active torsions:
REMARK  status: ('A' for Active; 'I' for Inactive)
REMARK    1  A    between atoms: C_1  and  C_2
REMARK    2  A    between atoms: C_2  and  O_3
REMARK    3  A    between atoms: O_3  and  C_4
REMARK    4  A    between atoms: C_4  and  C_6
REMARK    5  A    between atoms: C_10  and  N_11
REMARK    6  A    between atoms: C_12  and  C_14
REMARK    7  A    between atoms: C_14  and  C_16
REMARK    8  A    between atoms: C_14  and  S_17
REMARK    9  A    between atoms: S_17  and  C_18
REMARK   10  A    between atoms: C_21  and  C_24
REMARK   11  A    between atoms: N_22  and  N_23
REMARK   12  A    between atoms: C_28  and  C_29
REMARK   13  A    between atoms: C_31  and  C_35
REMARK                            x       y       z     vdW  Elec       q    Type
REMARK                         _______ _______ _______ _____ _____    ______ ____
ROOT
ATOM      1  N   UNL     1      -0.604  -2.455  -3.925  0.00  0.00    -0.278 N 
ATOM      2  C   UNL     1      -1.119  -2.783  -5.126  0.00  0.00    +0.231 C 
ATOM      3  O   UNL     1      -0.397  -3.225  -5.995  0.00  0.00    -0.274 OA
ATOM      4  H   UNL     1      -1.181  -2.102  -3.230  0.00  0.00    +0.155 HD
ENDROOT
BRANCH   1   9
ATOM      5  C   UNL     1       1.449  -2.344  -2.516  0.00  0.00    +0.091 A 
ATOM      6  C   UNL     1       2.876  -2.619  -2.515  0.00  0.00    -0.021 A 
ATOM      7  C   UNL     1       3.343  -3.117  -3.680  0.00  0.00    -0.004 A 
ATOM      8  S   UNL     1       1.922  -3.212  -4.730  0.00  0.00    -0.077 S 
ATOM      9  C   UNL     1       0.750  -2.624  -3.681  0.00  0.00    +0.086 A 
ATOM     10  C   UNL     1       4.757  -3.498  -3.993  0.00  0.00    +0.046 C 
ATOM     11  C   UNL     1       5.669  -2.887  -2.920  0.00  0.00    -0.009 C 
ATOM     12  C   UNL     1       5.082  -3.191  -1.538  0.00  0.00    +0.008 C 
ATOM     13  C   UNL     1       3.799  -2.383  -1.329  0.00  0.00    +0.037 C 
ATOM     14  C   UNL     1       7.069  -3.497  -3.029  0.00  0.00    +0.008 C 
BRANCH   5  15
ATOM     15  C   UNL     1       0.776  -1.800  -1.335  0.00  0.00    +0.342 C 
ATOM     16  O   UNL     1       0.312  -2.552  -0.499  0.00  0.00    -0.245 OA
BRANCH  15  17
ATOM     17  O   UNL     1       0.671  -0.465  -1.174  0.00  0.00    -0.461 OA
BRANCH  17  19
ATOM     18  C   UNL     1      -0.019   1.526   0.010  0.00  0.00    +0.048 C 
ATOM     19  C   UNL     1       0.002  -0.004   0.002  0.00  0.00    +0.229 C 
ENDBRANCH  17  19
ENDBRANCH  15  17
ENDBRANCH   5  15
ENDBRANCH   1   9
BRANCH   2  20
ATOM     20  C   UNL     1      -2.591  -2.599  -5.391  0.00  0.00    +0.137 C 
ATOM     21  C   UNL     1      -3.368  -3.769  -4.782  0.00  0.00    +0.029 C 
BRANCH  20  22
ATOM     22  S   UNL     1      -2.882  -2.546  -7.181  0.00  0.00    -0.072 S 
BRANCH  22  23
ATOM     23  C   UNL     1      -4.600  -2.184  -7.322  0.00  0.00    +0.209 A 
ATOM     24  N   UNL     1      -5.441  -1.996  -6.332  0.00  0.00    -0.121 NA
ATOM     25  N   UNL     1      -6.616  -1.751  -6.790  0.00  0.00    -0.127 NA
ATOM     26  C   UNL     1      -6.598  -1.767  -8.103  0.00  0.00    +0.185 A 
ATOM     27  N   UNL     1      -5.305  -2.040  -8.485  0.00  0.00    -0.224 N 
BRANCH  26  28
ATOM     28  C   UNL     1      -7.749  -1.532  -9.001  0.00  0.00    +0.061 A 
ATOM     29  C   UNL     1      -7.747  -1.554 -10.469  0.00  0.00    +0.053 A 
ATOM     30  C   UNL     1      -9.009  -1.288 -10.846  0.00  0.00    +0.196 A 
ATOM     31  O   UNL     1      -9.764  -1.109  -9.751  0.00  0.00    -0.467 OA
ATOM     32  C   UNL     1      -9.031  -1.256  -8.638  0.00  0.00    +0.112 A 
ATOM     33  C   UNL     1      -9.540  -1.134  -7.225  0.00  0.00    +0.087 C 
ENDBRANCH  26  28
BRANCH  27  34
ATOM     34  N   UNL     1      -4.827  -2.147  -9.760  0.00  0.00    -0.295 N 
ATOM     35  H   UNL     1      -4.895  -3.097 -10.093  0.00  0.00    +0.163 HD
ATOM     36  H   UNL     1      -5.305  -1.511 -10.380  0.00  0.00    +0.163 HD
ENDBRANCH  27  34
ENDBRANCH  22  23
ENDBRANCH  20  22
ENDBRANCH   2  20
TORSDOF 9
