REMARK  Name = ZINC35170967
REMARK  9 active torsions:
REMARK  status: ('A' for Active; 'I' for Inactive)
REMARK    1  A    between atoms: C_1  and  C_2
REMARK    2  A    between atoms: C_2  and  C_3
REMARK    3  A    between atoms: C_7  and  N_9
REMARK    4  A    between atoms: C_12  and  C_14
REMARK    5  A    between atoms: C_15  and  C_21
REMARK    6  A    between atoms: C_21  and  C_23
REMARK    7  A    between atoms: C_26  and  C_29
REMARK    8  A    between atoms: C_29  and  C_30
REMARK    9  A    between atoms: C_29  and  C_31
REMARK                            x       y       z     vdW  Elec       q    Type
REMARK                         _______ _______ _______ _____ _____    ______ ____
ROOT
ATOM      1  N   UNL     1       4.104  -1.376  -2.339  0.00  0.00    -0.218 N 
ATOM      2  C   UNL     1       4.766  -2.341  -3.010  0.00  0.00    +0.133 A 
ATOM      3  C   UNL     1       6.099  -2.201  -2.728  0.00  0.00    +0.026 A 
ATOM      4  C   UNL     1       6.243  -1.132  -1.855  0.00  0.00    +0.066 A 
ATOM      5  N   UNL     1       5.053  -0.629  -1.621  0.00  0.00    -0.170 NA
ATOM      6  C   UNL     1       7.542  -0.630  -1.280  0.00  0.00    +0.068 C 
ATOM      7  C   UNL     1       7.149  -3.103  -3.326  0.00  0.00    +0.104 C 
ATOM      8  C   UNL     1       6.507  -4.465  -3.611  0.00  0.00    +0.112 C 
ATOM      9  C   UNL     1       5.153  -4.307  -4.244  0.00  0.00    +0.219 C 
ATOM     10  O   UNL     1       4.821  -5.078  -5.119  0.00  0.00    -0.275 OA
ATOM     11  N   UNL     1       4.296  -3.334  -3.869  0.00  0.00    -0.270 N 
ATOM     12  H   UNL     1       3.380  -3.325  -4.188  0.00  0.00    +0.156 HD
ENDROOT
BRANCH   1  17
ATOM     13  C   UNL     1       0.707  -0.490  -1.238  0.00  0.00    -0.046 A 
ATOM     14  C   UNL     1      -0.011  -0.718  -2.397  0.00  0.00    +0.004 A 
ATOM     15  C   UNL     1       0.632  -1.165  -3.536  0.00  0.00    +0.002 A 
ATOM     16  C   UNL     1       1.996  -1.383  -3.520  0.00  0.00    +0.028 A 
ATOM     17  C   UNL     1       2.720  -1.155  -2.358  0.00  0.00    +0.068 A 
ATOM     18  C   UNL     1       2.072  -0.702  -1.217  0.00  0.00    +0.031 A 
BRANCH  13  20
ATOM     19  C   UNL     1      -0.019   1.526   0.010  0.00  0.00    +0.009 C 
ATOM     20  C   UNL     1       0.002  -0.004   0.002  0.00  0.00    +0.032 C 
ENDBRANCH  13  20
ENDBRANCH   1  17
BRANCH   7  21
ATOM     21  C   UNL     1       7.661  -2.504  -4.611  0.00  0.00    +0.171 C 
ATOM     22  O   UNL     1       6.965  -1.739  -5.243  0.00  0.00    -0.291 OA
BRANCH  21  23
ATOM     23  C   UNL     1       9.007  -2.848  -5.097  0.00  0.00    +0.018 A 
ATOM     24  C   UNL     1       9.810  -3.735  -4.374  0.00  0.00    +0.011 A 
ATOM     25  C   UNL     1      11.070  -4.052  -4.837  0.00  0.00    +0.004 A 
ATOM     26  C   UNL     1      11.539  -3.496  -6.014  0.00  0.00    -0.045 A 
ATOM     27  C   UNL     1      10.750  -2.617  -6.736  0.00  0.00    +0.004 A 
ATOM     28  C   UNL     1       9.486  -2.294  -6.289  0.00  0.00    +0.011 A 
BRANCH  26  29
ATOM     29  C   UNL     1      12.917  -3.848  -6.513  0.00  0.00    +0.013 C 
ATOM     30  C   UNL     1      12.809  -4.495  -7.896  0.00  0.00    +0.012 C 
ATOM     31  C   UNL     1      13.765  -2.579  -6.609  0.00  0.00    +0.012 C 
ENDBRANCH  26  29
ENDBRANCH  21  23
ENDBRANCH   7  21
TORSDOF 5
