REMARK  Name = ZINC13064798
REMARK  14 active torsions:
REMARK  status: ('A' for Active; 'I' for Inactive)
REMARK    1  A    between atoms: C_1  and  C_2
REMARK    2  A    between atoms: C_2  and  C_3
REMARK    3  A    between atoms: C_3  and  C_5
REMARK    4  A    between atoms: C_3  and  N_74
REMARK    5  A    between atoms: N_9  and  C_10
REMARK    6  A    between atoms: C_10  and  C_11
REMARK    7  A    between atoms: C_10  and  C_12
REMARK    8  A    between atoms: C_10  and  C_13
REMARK    9  A    between atoms: C_13  and  C_14
REMARK   10  A    between atoms: C_15  and  C_16
REMARK   11  A    between atoms: C_15  and  N_74
REMARK   12  A    between atoms: C_19  and  C_29
REMARK   13  A    between atoms: C_21  and  C_28
REMARK   14  A    between atoms: C_30  and  N_74
REMARK                            x       y       z     vdW  Elec       q    Type
REMARK                         _______ _______ _______ _____ _____    ______ ____
ROOT
ATOM      1  N   UNL     1      -1.189   4.183   0.084  0.00  0.00    +0.391 N 
ATOM      2  H   UNL     1      -2.161   4.035  -0.214  0.00  0.00    -0.080 HD
ENDROOT
BRANCH   1   3
ATOM      3  C   UNL     1      -0.957   5.632   0.260  0.00  0.00    -0.067 C 
ATOM      4  C   UNL     1      -1.905   6.394  -0.668  0.00  0.00    -0.015 C 
ATOM      5  C   UNL     1      -1.690   7.898  -0.493  0.00  0.00    -0.002 C 
ATOM      6  C   UNL     1      -0.243   8.252  -0.841  0.00  0.00    -0.000 C 
ATOM      7  C   UNL     1       0.705   7.490   0.088  0.00  0.00    -0.002 C 
ATOM      8  C   UNL     1       0.491   5.985  -0.087  0.00  0.00    -0.015 C 
ENDBRANCH   1   3
BRANCH   1   9
ATOM      9  C   UNL     1      -0.966   3.476   1.363  0.00  0.00    +0.003 C 
BRANCH   9  10
ATOM     10  C   UNL     1       0.222   4.056   2.085  0.00  0.00    +0.139 A 
ATOM     11  N   UNL     1       0.377   5.302   2.463  0.00  0.00    -0.115 NA
ATOM     12  N   UNL     1       1.521   5.401   3.047  0.00  0.00    -0.023 NA
ATOM     13  N   UNL     1       2.100   4.252   3.051  0.00  0.00    -0.043 NA
ATOM     14  N   UNL     1       1.329   3.395   2.472  0.00  0.00    -0.225 N 
BRANCH  14  15
ATOM     15  C   UNL     1       1.607   1.971   2.270  0.00  0.00    +0.061 C 
ATOM     16  C   UNL     1       0.519   1.138   2.951  0.00  0.00    +0.036 C 
ATOM     17  C   UNL     1       1.622   1.662   0.772  0.00  0.00    +0.036 C 
BRANCH  15  18
ATOM     18  C   UNL     1       2.968   1.626   2.876  0.00  0.00    +0.026 C 
ATOM     19  C   UNL     1       3.258   0.138   2.665  0.00  0.00    +0.006 C 
ENDBRANCH  15  18
ENDBRANCH  14  15
ENDBRANCH   9  10
BRANCH   9  21
ATOM     20  C   UNL     1      -3.433   3.096   1.474  0.00  0.00    +0.002 C 
ATOM     21  C   UNL     1      -2.216   3.631   2.232  0.00  0.00    -0.011 C 
ENDBRANCH   9  21
ENDBRANCH   1   9
BRANCH   1  22
ATOM     22  C   UNL     1      -0.282   3.649  -0.954  0.00  0.00    -0.036 C 
BRANCH  22  23
ATOM     23  C   UNL     1      -0.850   3.983  -2.309  0.00  0.00    +0.001 A 
ATOM     24  C   UNL     1      -0.363   5.042  -3.003  0.00  0.00    +0.017 A 
ATOM     25  C   UNL     1      -0.933   5.337  -4.319  0.00  0.00    +0.002 A 
ATOM     26  C   UNL     1      -0.469   6.412  -5.083  0.00  0.00    -0.041 A 
ATOM     27  C   UNL     1      -1.025   6.664  -6.305  0.00  0.00    +0.007 A 
ATOM     28  C   UNL     1      -2.047   5.863  -6.795  0.00  0.00    -0.048 A 
ATOM     29  C   UNL     1      -2.520   4.798  -6.059  0.00  0.00    +0.029 A 
ATOM     30  C   UNL     1      -1.969   4.522  -4.812  0.00  0.00    +0.050 A 
ATOM     31  N   UNL     1      -2.423   3.464  -4.054  0.00  0.00    -0.322 N 
ATOM     32  H   UNL     1      -3.137   2.903  -4.396  0.00  0.00    +0.169 HD
ATOM     33  C   UNL     1      -1.890   3.197  -2.849  0.00  0.00    +0.251 A 
ATOM     34  O   UNL     1      -2.316   2.253  -2.207  0.00  0.00    -0.268 OA
ATOM     35  C   UNL     1      -2.645   6.160  -8.146  0.00  0.00    +0.044 C 
ATOM     36  C   UNL     1       0.640   7.289  -4.561  0.00  0.00    +0.044 C 
ENDBRANCH  22  23
ENDBRANCH   1  22
TORSDOF 8
