REMARK  Name = ZINC36709997
REMARK  13 active torsions:
REMARK  status: ('A' for Active; 'I' for Inactive)
REMARK    1  A    between atoms: C_1  and  C_2
REMARK    2  A    between atoms: C_2  and  C_3
REMARK    3  A    between atoms: C_2  and  C_4
REMARK    4  A    between atoms: C_2  and  C_5
REMARK    5  A    between atoms: N_13  and  C_17
REMARK    6  A    between atoms: C_17  and  C_18
REMARK    7  A    between atoms: N_20  and  C_21
REMARK    8  A    between atoms: C_23  and  O_31
REMARK    9  A    between atoms: C_24  and  O_29
REMARK   10  A    between atoms: C_25  and  O_27
REMARK   11  A    between atoms: O_27  and  C_28
REMARK   12  A    between atoms: O_29  and  C_30
REMARK   13  A    between atoms: O_31  and  C_32
REMARK                            x       y       z     vdW  Elec       q    Type
REMARK                         _______ _______ _______ _____ _____    ______ ____
ROOT
ATOM      1  C   UNL     1       0.734  -0.480  -1.245  0.00  0.00    -0.005 C 
ATOM      2  C   UNL     1       0.749  -2.010  -1.249  0.00  0.00    +0.006 C 
ATOM      3  C   UNL     1       1.445  -2.510  -2.517  0.00  0.00    +0.035 C 
ATOM      4  C   UNL     1       2.871  -1.972  -2.563  0.00  0.00    +0.113 C 
ATOM      5  C   UNL     1       2.874  -0.447  -2.534  0.00  0.00    +0.035 C 
ATOM      6  C   UNL     1       2.172   0.044  -1.266  0.00  0.00    +0.006 C 
ATOM      7  C   UNL     1       3.681  -2.523  -1.412  0.00  0.00    +0.247 C 
ATOM      8  O   UNL     1       3.473  -2.369  -0.228  0.00  0.00    -0.273 OA
ATOM      9  N   UNL     1       4.684  -3.223  -1.980  0.00  0.00    -0.215 N 
ATOM     10  C   UNL     1       4.616  -3.187  -3.317  0.00  0.00    +0.310 C 
ATOM     11  O   UNL     1       5.410  -3.743  -4.050  0.00  0.00    -0.252 OA
ATOM     12  N   UNL     1       3.568  -2.465  -3.758  0.00  0.00    -0.285 N 
ATOM     13  H   UNL     1       3.322  -2.303  -4.682  0.00  0.00    +0.151 HD
ENDROOT
BRANCH   1  15
ATOM     14  C   UNL     1       0.013   1.550   0.019  0.00  0.00    +0.011 C 
ATOM     15  C   UNL     1       0.028   0.020   0.016  0.00  0.00    -0.035 C 
ATOM     16  C   UNL     1       0.773  -0.485   1.253  0.00  0.00    +0.011 C 
ATOM     17  C   UNL     1      -1.410  -0.504   0.037  0.00  0.00    +0.011 C 
ENDBRANCH   1  15
BRANCH   9  18
ATOM     18  C   UNL     1       5.721  -3.934  -1.228  0.00  0.00    +0.214 C 
BRANCH  18  19
ATOM     19  C   UNL     1       5.268  -5.346  -0.960  0.00  0.00    +0.235 C 
ATOM     20  O   UNL     1       4.185  -5.721  -1.357  0.00  0.00    -0.274 OA
ATOM     21  N   UNL     1       6.065  -6.192  -0.277  0.00  0.00    -0.284 N 
ATOM     22  H   UNL     1       6.957  -5.913  -0.017  0.00  0.00    +0.155 HD
BRANCH  21  23
ATOM     23  C   UNL     1       5.606  -7.472   0.057  0.00  0.00    +0.041 A 
ATOM     24  C   UNL     1       5.982  -8.052   1.260  0.00  0.00    +0.073 A 
ATOM     25  C   UNL     1       5.528  -9.319   1.591  0.00  0.00    +0.167 A 
ATOM     26  C   UNL     1       4.696 -10.009   0.718  0.00  0.00    +0.204 A 
ATOM     27  C   UNL     1       4.319  -9.427  -0.487  0.00  0.00    +0.167 A 
ATOM     28  C   UNL     1       4.770  -8.158  -0.814  0.00  0.00    +0.073 A 
BRANCH  27  29
ATOM     29  O   UNL     1       3.505 -10.101  -1.343  0.00  0.00    -0.491 OA
ATOM     30  C   UNL     1       3.159  -9.443  -2.563  0.00  0.00    +0.277 C 
ENDBRANCH  27  29
BRANCH  26  31
ATOM     31  O   UNL     1       4.249 -11.254   1.042  0.00  0.00    -0.488 OA
ATOM     32  C   UNL     1       3.018 -11.334   1.762  0.00  0.00    +0.277 C 
ENDBRANCH  26  31
BRANCH  25  33
ATOM     33  O   UNL     1       5.897  -9.887   2.770  0.00  0.00    -0.491 OA
ATOM     34  C   UNL     1       6.755  -9.122   3.619  0.00  0.00    +0.277 C 
ENDBRANCH  25  33
ENDBRANCH  21  23
ENDBRANCH  18  19
ENDBRANCH   9  18
TORSDOF 7
