REMARK  Name = ZINC01157918
REMARK  9 active torsions:
REMARK  status: ('A' for Active; 'I' for Inactive)
REMARK    1  A    between atoms: C_1  and  C_2
REMARK    2  A    between atoms: C_3  and  C_25
REMARK    3  A    between atoms: C_4  and  C_10
REMARK    4  A    between atoms: C_13  and  O_20
REMARK    5  A    between atoms: O_20  and  C_21
REMARK    6  A    between atoms: C_21  and  C_22
REMARK    7  A    between atoms: C_22  and  C_23
REMARK    8  A    between atoms: C_22  and  C_24
REMARK    9  A    between atoms: N_27  and  C_28
REMARK                            x       y       z     vdW  Elec       q    Type
REMARK                         _______ _______ _______ _____ _____    ______ ____
ROOT
ATOM      1  C   UNL     1       3.395  -0.086  -7.447  0.00  0.00    +0.061 C 
ATOM      2  C   UNL     1       2.787  -1.171  -6.596  0.00  0.00    +0.017 C 
ATOM      3  C   UNL     1       3.344  -1.472  -5.404  0.00  0.00    +0.055 C 
ATOM      4  C   UNL     1       2.701  -2.569  -4.582  0.00  0.00    +0.140 C 
ATOM      5  N   UNL     1       1.512  -3.222  -5.155  0.00  0.00    -0.315 N 
ATOM      6  C   UNL     1       1.072  -2.811  -6.360  0.00  0.00    +0.135 C 
ATOM      7  S   UNL     1      -0.309  -3.562  -7.038  0.00  0.00    -0.019 S 
ATOM      8  N   UNL     1       1.680  -1.835  -7.045  0.00  0.00    -0.300 N 
ATOM      9  H   UNL     1       1.056  -3.932  -4.676  0.00  0.00    +0.149 HD
ATOM     10  H   UNL     1       1.315  -1.584  -7.908  0.00  0.00    +0.154 HD
ENDROOT
BRANCH   4  11
ATOM     11  C   UNL     1       2.312  -1.983  -3.249  0.00  0.00    -0.015 A 
ATOM     12  C   UNL     1       2.171  -0.636  -3.109  0.00  0.00    +0.010 A 
ATOM     13  C   UNL     1       1.812  -0.074  -1.888  0.00  0.00    +0.046 A 
ATOM     14  C   UNL     1       1.591  -0.860  -0.791  0.00  0.00    +0.128 A 
ATOM     15  C   UNL     1       1.734  -2.258  -0.898  0.00  0.00    +0.024 A 
ATOM     16  C   UNL     1       2.093  -2.825  -2.145  0.00  0.00    -0.009 A 
ATOM     17  C   UNL     1       2.230  -4.220  -2.253  0.00  0.00    +0.009 A 
ATOM     18  C   UNL     1       2.011  -5.005  -1.163  0.00  0.00    +0.001 A 
ATOM     19  C   UNL     1       1.652  -4.446   0.062  0.00  0.00    +0.001 A 
ATOM     20  C   UNL     1       1.511  -3.100   0.204  0.00  0.00    +0.012 A 
BRANCH  14  21
ATOM     21  O   UNL     1       1.241  -0.296   0.394  0.00  0.00    -0.491 OA
BRANCH  21  22
ATOM     22  C   UNL     1       1.122   1.127   0.425  0.00  0.00    +0.232 C 
BRANCH  22  23
ATOM     23  C   UNL     1       0.724   1.575   1.833  0.00  0.00    +0.020 C 
ATOM     24  C   UNL     1       1.851   1.242   2.812  0.00  0.00    +0.010 C 
ATOM     25  C   UNL     1       0.474   3.084   1.838  0.00  0.00    +0.010 C 
ENDBRANCH  22  23
ENDBRANCH  21  22
ENDBRANCH  14  21
ENDBRANCH   4  11
BRANCH   3  26
ATOM     26  C   UNL     1       4.491  -0.783  -4.938  0.00  0.00    +0.243 C 
ATOM     27  O   UNL     1       4.952   0.140  -5.585  0.00  0.00    -0.270 OA
ATOM     28  N   UNL     1       5.072  -1.150  -3.779  0.00  0.00    -0.315 N 
ATOM     29  C   UNL     1       6.319  -0.511  -3.350  0.00  0.00    +0.128 C 
ATOM     30  H   UNL     1       4.665  -1.838  -3.229  0.00  0.00    +0.149 HD
ENDBRANCH   3  26
TORSDOF 5
