REMARK  Name = ZINC39840343
REMARK  4 active torsions:
REMARK  status: ('A' for Active; 'I' for Inactive)
REMARK    1  A    between atoms: C_3  and  C_8
REMARK    2  A    between atoms: C_5  and  O_7
REMARK    3  A    between atoms: N_23  and  C_24
REMARK    4  A    between atoms: C_24  and  C_25
REMARK                            x       y       z     vdW  Elec       q    Type
REMARK                         _______ _______ _______ _____ _____    ______ ____
ROOT
ATOM      1  C   UNL     1       3.671   2.190  -0.021  0.00  0.00    +0.145 C 
ATOM      2  C   UNL     1       3.970   2.707   1.348  0.00  0.00    +0.072 A 
ATOM      3  C   UNL     1       4.191   2.008   2.618  0.00  0.00    +0.199 A 
ATOM      4  O   UNL     1       4.329   0.801   2.700  0.00  0.00    -0.287 OA
ATOM      5  C   UNL     1       4.230   2.913   3.795  0.00  0.00    +0.067 A 
ATOM      6  C   UNL     1       4.231   2.388   5.087  0.00  0.00    +0.053 A 
ATOM      7  C   UNL     1       4.263   3.243   6.169  0.00  0.00    +0.124 A 
ATOM      8  C   UNL     1       4.292   4.618   5.968  0.00  0.00    +0.042 A 
ATOM      9  C   UNL     1       4.291   5.145   4.697  0.00  0.00    +0.050 A 
ATOM     10  C   UNL     1       4.263   4.301   3.587  0.00  0.00    +0.140 A 
ATOM     11  O   UNL     1       4.274   4.846   2.348  0.00  0.00    -0.450 OA
ATOM     12  C   UNL     1       4.016   4.071   1.277  0.00  0.00    +0.199 A 
ATOM     13  C   UNL     1       3.747   4.471  -0.115  0.00  0.00    +0.283 C 
ATOM     14  O   UNL     1       3.711   5.617  -0.516  0.00  0.00    -0.267 OA
ATOM     15  N   UNL     1       3.545   3.377  -0.882  0.00  0.00    -0.281 N 
ATOM     16  F   UNL     1       4.265   2.744   7.424  0.00  0.00    -0.205 F 
ENDROOT
BRANCH   1  19
ATOM     17  C   UNL     1      -0.017   1.377   0.010  0.00  0.00    +0.004 A 
ATOM     18  C   UNL     1       1.171   2.086   0.002  0.00  0.00    +0.006 A 
ATOM     19  C   UNL     1       2.379   1.415  -0.013  0.00  0.00    -0.019 A 
ATOM     20  C   UNL     1       2.403   0.033  -0.021  0.00  0.00    +0.051 A 
ATOM     21  C   UNL     1       1.214  -0.680  -0.013  0.00  0.00    +0.117 A 
ATOM     22  C   UNL     1       0.002  -0.004   0.002  0.00  0.00    +0.045 A 
BRANCH  21  23
ATOM     23  O   UNL     1       1.235  -2.039  -0.021  0.00  0.00    -0.507 OA
ATOM     24  H   UNL     1       1.249  -2.437   0.860  0.00  0.00    +0.292 HD
ENDBRANCH  21  23
ENDBRANCH   1  19
BRANCH  15  25
ATOM     25  C   UNL     1       3.253   3.373  -2.318  0.00  0.00    +0.140 C 
BRANCH  25  26
ATOM     26  C   UNL     1       1.739   3.429  -2.531  0.00  0.00    +0.136 C 
ATOM     27  C   UNL     1       1.417   3.303  -4.035  0.00  0.00    +0.035 C 
ATOM     28  C   UNL     1       0.246   4.309  -4.207  0.00  0.00    +0.031 C 
ATOM     29  C   UNL     1       0.647   5.404  -3.186  0.00  0.00    +0.160 C 
ATOM     30  O   UNL     1       1.232   4.692  -2.082  0.00  0.00    -0.375 OA
ENDBRANCH  25  26
ENDBRANCH  15  25
TORSDOF 4
