REMARK  Name = ZINC03077754
REMARK  13 active torsions:
REMARK  status: ('A' for Active; 'I' for Inactive)
REMARK    1  A    between atoms: C_1  and  C_2
REMARK    2  A    between atoms: C_2  and  C_3
REMARK    3  A    between atoms: C_2  and  C_4
REMARK    4  A    between atoms: C_2  and  N_5
REMARK    5  A    between atoms: N_5  and  S_6
REMARK    6  A    between atoms: S_6  and  C_9
REMARK    7  A    between atoms: N_16  and  O_17
REMARK    8  A    between atoms: C_22  and  S_24
REMARK    9  A    between atoms: S_24  and  N_27
REMARK   10  A    between atoms: N_27  and  C_28
REMARK   11  A    between atoms: C_28  and  C_29
REMARK   12  A    between atoms: C_28  and  C_30
REMARK   13  A    between atoms: C_28  and  C_31
REMARK                            x       y       z     vdW  Elec       q    Type
REMARK                         _______ _______ _______ _____ _____    ______ ____
ROOT
ATOM      1  C   UNL     1       0.241   3.550   0.639  0.00  0.00    +0.106 A 
ATOM      2  C   UNL     1      -1.094   3.383   0.316  0.00  0.00    +0.029 A 
ATOM      3  C   UNL     1      -2.083   3.838   1.166  0.00  0.00    +0.011 A 
ATOM      4  C   UNL     1      -1.739   4.470   2.359  0.00  0.00    -0.008 A 
ATOM      5  C   UNL     1      -0.384   4.638   2.685  0.00  0.00    +0.014 A 
ATOM      6  C   UNL     1       0.600   4.170   1.821  0.00  0.00    +0.039 A 
ATOM      7  C   UNL     1      -0.316   5.332   3.993  0.00  0.00    +0.118 C 
ATOM      8  N   UNL     1       0.765   5.669   4.635  0.00  0.00    -0.086 NA
ATOM      9  C   UNL     1      -1.712   5.569   4.431  0.00  0.00    +0.014 A 
ATOM     10  C   UNL     1      -2.565   5.048   3.444  0.00  0.00    -0.008 A 
ATOM     11  C   UNL     1      -3.944   5.142   3.614  0.00  0.00    +0.011 A 
ATOM     12  C   UNL     1      -4.462   5.743   4.744  0.00  0.00    +0.029 A 
ATOM     13  C   UNL     1      -3.619   6.255   5.715  0.00  0.00    +0.106 A 
ATOM     14  C   UNL     1      -2.249   6.171   5.564  0.00  0.00    +0.039 A 
ENDROOT
BRANCH   1  15
ATOM     15  S   UNL     1       1.489   2.964  -0.458  0.00  0.00    +0.059 S 
ATOM     16  O   UNL     1       1.076   1.676  -0.891  0.00  0.00    -0.153 OA
ATOM     17  O   UNL     1       2.735   3.188   0.188  0.00  0.00    -0.153 OA
BRANCH  15  18
ATOM     18  N   UNL     1       1.466   3.943  -1.794  0.00  0.00    -0.185 NA
ATOM     19  H   UNL     1       1.183   3.587  -2.651  0.00  0.00    +0.149 HD
BRANCH  18  21
ATOM     20  C   UNL     1       3.366   5.420  -1.359  0.00  0.00    +0.029 C 
ATOM     21  C   UNL     1       1.872   5.346  -1.681  0.00  0.00    +0.032 C 
ATOM     22  C   UNL     1       1.599   6.063  -3.005  0.00  0.00    +0.029 C 
ATOM     23  C   UNL     1       1.075   6.019  -0.562  0.00  0.00    +0.029 C 
ENDBRANCH  18  21
ENDBRANCH  15  18
ENDBRANCH   1  15
BRANCH  13  24
ATOM     24  S   UNL     1      -4.298   7.019   7.151  0.00  0.00    +0.059 S 
ATOM     25  O   UNL     1      -5.497   6.319   7.454  0.00  0.00    -0.153 OA
ATOM     26  O   UNL     1      -3.234   7.147   8.084  0.00  0.00    -0.153 OA
BRANCH  24  27
ATOM     27  N   UNL     1      -4.742   8.556   6.725  0.00  0.00    -0.185 NA
ATOM     28  H   UNL     1      -5.679   8.803   6.708  0.00  0.00    +0.149 HD
BRANCH  27  29
ATOM     29  C   UNL     1      -3.718   9.543   6.373  0.00  0.00    +0.032 C 
ATOM     30  C   UNL     1      -2.870   9.009   5.217  0.00  0.00    +0.029 C 
ATOM     31  C   UNL     1      -4.393  10.849   5.949  0.00  0.00    +0.029 C 
ATOM     32  C   UNL     1      -2.821   9.803   7.586  0.00  0.00    +0.029 C 
ENDBRANCH  27  29
ENDBRANCH  24  27
ENDBRANCH  13  24
BRANCH   8  33
ATOM     33  O   UNL     1       0.669   6.331   5.883  0.00  0.00    -0.409 OA
ATOM     34  H   UNL     1       1.524   6.541   6.284  0.00  0.00    +0.328 HD
ENDBRANCH   8  33
TORSDOF 7
