REMARK  Name = ZINC12497526
REMARK  9 active torsions:
REMARK  status: ('A' for Active; 'I' for Inactive)
REMARK    1  A    between atoms: C_1  and  O_2
REMARK    2  A    between atoms: O_2  and  C_3
REMARK    3  A    between atoms: C_5  and  C_10
REMARK    4  A    between atoms: C_8  and  O_9
REMARK    5  A    between atoms: N_18  and  C_21
REMARK    6  A    between atoms: C_28  and  C_29
REMARK    7  A    between atoms: C_28  and  C_35
REMARK    8  A    between atoms: C_35  and  O_37
REMARK    9  A    between atoms: O_37  and  C_38
REMARK                            x       y       z     vdW  Elec       q    Type
REMARK                         _______ _______ _______ _____ _____    ______ ____
ROOT
ATOM      1  C   UNL     1       0.475   5.060   1.814  0.00  0.00    -0.026 C 
ATOM      2  C   UNL     1       1.758   5.500   1.232  0.00  0.00    +0.078 C 
ATOM      3  C   UNL     1       2.368   4.131   0.740  0.00  0.00    +0.090 C 
ATOM      4  C   UNL     1       3.536   4.711   0.009  0.00  0.00    +0.230 C 
ATOM      5  O   UNL     1       4.045   4.290  -1.008  0.00  0.00    -0.275 OA
ATOM      6  N   UNL     1       3.911   5.815   0.724  0.00  0.00    -0.207 N 
ATOM      7  C   UNL     1       2.949   6.221   1.615  0.00  0.00    +0.229 C 
ATOM      8  O   UNL     1       3.072   7.013   2.524  0.00  0.00    -0.275 OA
ATOM      9  C   UNL     1       1.151   3.592   0.010  0.00  0.00    +0.070 C 
ATOM     10  N   UNL     1      -0.018   4.093   0.782  0.00  0.00    +0.398 N 
ATOM     11  H   UNL     1      -0.674   4.566   0.150  0.00  0.00    -0.083 HD
ATOM     12  H   UNL     1      -0.492   3.307   1.242  0.00  0.00    -0.083 HD
ENDROOT
BRANCH   6  13
ATOM     13  C   UNL     1       5.145   6.463   0.564  0.00  0.00    +0.079 A 
ATOM     14  C   UNL     1       5.276   7.492  -0.357  0.00  0.00    +0.027 A 
ATOM     15  C   UNL     1       6.493   8.129  -0.513  0.00  0.00    +0.002 A 
ATOM     16  C   UNL     1       7.580   7.741   0.248  0.00  0.00    +0.003 A 
ATOM     17  C   UNL     1       7.455   6.716   1.167  0.00  0.00    +0.040 A 
ATOM     18  C   UNL     1       6.239   6.078   1.331  0.00  0.00    +0.145 A 
ATOM     19  F   UNL     1       6.114   5.080   2.234  0.00  0.00    -0.204 F 
ENDBRANCH   6  13
BRANCH   1  22
ATOM     20  C   UNL     1      -1.492   7.898   3.348  0.00  0.00    +0.161 A 
ATOM     21  C   UNL     1      -0.623   6.828   3.203  0.00  0.00    +0.051 A 
ATOM     22  C   UNL     1      -0.470   6.224   1.969  0.00  0.00    -0.057 A 
ATOM     23  C   UNL     1      -1.177   6.688   0.876  0.00  0.00    +0.006 A 
ATOM     24  C   UNL     1      -2.050   7.751   1.014  0.00  0.00    +0.049 A 
ATOM     25  C   UNL     1      -2.208   8.361   2.248  0.00  0.00    +0.158 A 
BRANCH  20  27
ATOM     26  C   UNL     1      -0.877   7.964   5.644  0.00  0.00    +0.277 C 
ATOM     27  O   UNL     1      -1.644   8.493   4.561  0.00  0.00    -0.491 OA
ENDBRANCH  20  27
BRANCH  25  28
ATOM     28  O   UNL     1      -3.063   9.411   2.385  0.00  0.00    -0.503 OA
ATOM     29  H   UNL     1      -2.653  10.273   2.233  0.00  0.00    +0.292 HD
ENDBRANCH  25  28
ENDBRANCH   1  22
BRANCH   9  30
ATOM     30  C   UNL     1       1.171   2.086   0.002  0.00  0.00    -0.047 A 
ATOM     31  C   UNL     1      -0.017   1.378   0.010  0.00  0.00    +0.003 A 
ATOM     32  C   UNL     1       0.002  -0.004   0.002  0.00  0.00    +0.000 A 
ATOM     33  C   UNL     1       1.208  -0.679  -0.013  0.00  0.00    +0.000 A 
ATOM     34  C   UNL     1       2.396   0.029  -0.021  0.00  0.00    +0.000 A 
ATOM     35  C   UNL     1       2.377   1.411  -0.015  0.00  0.00    +0.003 A 
ENDBRANCH   9  30
BRANCH   9  36
ATOM     36  C   UNL     1       1.113   4.120  -1.401  0.00  0.00    +0.301 C 
ATOM     37  O   UNL     1       2.138   4.443  -1.953  0.00  0.00    -0.252 OA
BRANCH  36  38
ATOM     38  O   UNL     1      -0.060   4.231  -2.045  0.00  0.00    -0.469 OA
ATOM     39  C   UNL     1      -0.020   4.747  -3.402  0.00  0.00    +0.280 C 
ENDBRANCH  36  38
ENDBRANCH   9  36
TORSDOF 7
