REMARK  Name = ZINC58100899
REMARK  9 active torsions:
REMARK  status: ('A' for Active; 'I' for Inactive)
REMARK    1  A    between atoms: C_1  and  C_2
REMARK    2  A    between atoms: C_3  and  C_20
REMARK    3  A    between atoms: C_7  and  C_8
REMARK    4  A    between atoms: C_8  and  C_10
REMARK    5  A    between atoms: C_8  and  O_13
REMARK    6  A    between atoms: C_10  and  C_11
REMARK    7  A    between atoms: C_10  and  C_12
REMARK    8  A    between atoms: C_14  and  C_18
REMARK    9  A    between atoms: C_14  and  C_19
REMARK                            x       y       z     vdW  Elec       q    Type
REMARK                         _______ _______ _______ _____ _____    ______ ____
ROOT
ATOM      1  C   UNL     1      -0.018   1.503   0.010  0.00  0.00    +0.044 C 
ATOM      2  C   UNL     1       0.002  -0.004   0.002  0.00  0.00    -0.040 A 
ATOM      3  C   UNL     1       0.006  -0.683  -1.199  0.00  0.00    -0.026 A 
ATOM      4  C   UNL     1       0.025  -2.076  -1.214  0.00  0.00    +0.041 A 
ATOM      5  C   UNL     1       0.040  -2.762  -0.006  0.00  0.00    -0.011 A 
ATOM      6  C   UNL     1       0.036  -2.082   1.190  0.00  0.00    +0.013 A 
ATOM      7  C   UNL     1       0.023  -0.698   1.198  0.00  0.00    -0.015 A 
ATOM      8  C   UNL     1       0.058  -4.233  -0.352  0.00  0.00    +0.068 C 
ATOM      9  C   UNL     1       0.051  -4.255  -1.866  0.00  0.00    +0.227 C 
ATOM     10  O   UNL     1       0.061  -5.241  -2.572  0.00  0.00    -0.275 OA
ATOM     11  N   UNL     1       0.032  -2.977  -2.280  0.00  0.00    -0.284 N 
ATOM     12  C   UNL     1       1.327  -4.895   0.188  0.00  0.00    +0.025 C 
ATOM     13  C   UNL     1      -1.188  -4.929   0.200  0.00  0.00    +0.025 C 
ATOM     14  C   UNL     1      -0.011   0.083  -2.497  0.00  0.00    +0.046 C 
ATOM     15  H   UNL     1       0.023  -2.711  -3.213  0.00  0.00    +0.155 HD
ENDROOT
BRANCH   7  16
ATOM     16  C   UNL     1       0.025   0.051   2.506  0.00  0.00    +0.147 C 
BRANCH  16  17
ATOM     17  C   UNL     1       1.461   0.433   2.872  0.00  0.00    +0.016 C 
ATOM     18  C   UNL     1       2.048   1.322   1.774  0.00  0.00    +0.010 C 
ATOM     19  C   UNL     1       1.463   1.193   4.200  0.00  0.00    +0.010 C 
ENDBRANCH  16  17
BRANCH  16  20
ATOM     20  O   UNL     1      -0.523  -0.780   3.531  0.00  0.00    -0.387 OA
ATOM     21  H   UNL     1      -0.036  -1.603   3.673  0.00  0.00    +0.210 HD
ENDBRANCH  16  20
ENDBRANCH   7  16
TORSDOF 3
