REMARK  Name = ZINC10087185
REMARK  8 active torsions:
REMARK  status: ('A' for Active; 'I' for Inactive)
REMARK    1  A    between atoms: C_1  and  C_2
REMARK    2  A    between atoms: C_4  and  N_31
REMARK    3  A    between atoms: C_7  and  N_8
REMARK    4  A    between atoms: C_9  and  C_11
REMARK    5  A    between atoms: N_13  and  C_14
REMARK    6  A    between atoms: C_14  and  C_15
REMARK    7  A    between atoms: C_15  and  C_17
REMARK    8  A    between atoms: C_15  and  N_59
REMARK                            x       y       z     vdW  Elec       q    Type
REMARK                         _______ _______ _______ _____ _____    ______ ____
ROOT
ATOM      1  C   UNL     1       4.999   3.557  -3.408  0.00  0.00    +0.299 C 
ATOM      2  O   UNL     1       5.122   2.427  -3.833  0.00  0.00    -0.265 OA
ATOM      3  N   UNL     1       4.470   3.763  -2.186  0.00  0.00    -0.309 N 
ATOM      4  H   UNL     1       4.371   4.666  -1.846  0.00  0.00    +0.149 HD
ENDROOT
BRANCH   1   6
ATOM      5  N   UNL     1       5.965   4.512  -5.461  0.00  0.00    -0.278 N 
ATOM      6  C   UNL     1       5.435   4.719  -4.239  0.00  0.00    +0.303 C 
ATOM      7  O   UNL     1       5.312   5.849  -3.814  0.00  0.00    -0.265 OA
ATOM      8  H   UNL     1       6.136   3.609  -5.769  0.00  0.00    +0.155 HD
BRANCH   5  15
ATOM      9  C   UNL     1       7.833   4.121  -7.571  0.00  0.00    +0.046 C 
ATOM     10  C   UNL     1       7.173   5.454  -7.327  0.00  0.00    -0.027 A 
ATOM     11  C   UNL     1       7.466   6.530  -8.141  0.00  0.00    +0.038 A 
ATOM     12  C   UNL     1       6.865   7.755  -7.914  0.00  0.00    +0.127 A 
ATOM     13  C   UNL     1       5.965   7.905  -6.875  0.00  0.00    +0.034 A 
ATOM     14  C   UNL     1       5.664   6.832  -6.059  0.00  0.00    +0.026 A 
ATOM     15  C   UNL     1       6.266   5.600  -6.285  0.00  0.00    +0.037 A 
BRANCH  12  16
ATOM     16  N   UNL     1       7.185   8.907  -8.786  0.00  0.00    +0.056 N 
ATOM     17  O   UNL     1       6.657   9.987  -8.587  0.00  0.00    -0.126 OA
ATOM     18  O   UNL     1       7.977   8.777  -9.702  0.00  0.00    -0.126 OA
ENDBRANCH  12  16
ENDBRANCH   5  15
ENDBRANCH   1   6
BRANCH   3  19
ATOM     19  C   UNL     1       4.042   2.623  -1.371  0.00  0.00    +0.094 C 
BRANCH  19  20
ATOM     20  C   UNL     1       3.363   3.132  -0.098  0.00  0.00    -0.020 C 
BRANCH  20  21
ATOM     21  C   UNL     1       2.079   3.833  -0.460  0.00  0.00    -0.052 A 
ATOM     22  C   UNL     1       2.059   5.184  -0.622  0.00  0.00    +0.003 A 
ATOM     23  C   UNL     1       0.881   5.850  -0.957  0.00  0.00    +0.001 A 
ATOM     24  C   UNL     1      -0.284   5.167  -1.132  0.00  0.00    +0.008 A 
ATOM     25  C   UNL     1      -0.302   3.771  -0.974  0.00  0.00    -0.018 A 
ATOM     26  C   UNL     1       0.896   3.095  -0.633  0.00  0.00    -0.016 A 
ATOM     27  C   UNL     1       0.877   1.698  -0.475  0.00  0.00    +0.009 A 
ATOM     28  C   UNL     1      -0.287   1.016  -0.651  0.00  0.00    +0.001 A 
ATOM     29  C   UNL     1      -1.464   1.681  -0.991  0.00  0.00    +0.001 A 
ATOM     30  C   UNL     1      -1.485   3.033  -1.147  0.00  0.00    +0.008 A 
ENDBRANCH  20  21
BRANCH  20  35
ATOM     31  C   UNL     1       3.650   4.551   1.859  0.00  0.00    -0.078 C 
ATOM     32  C   UNL     1       4.870   5.063   2.665  0.00  0.00    -0.020 C 
ATOM     33  C   UNL     1       5.974   4.041   2.307  0.00  0.00    -0.020 C 
ATOM     34  C   UNL     1       5.525   3.415   0.973  0.00  0.00    -0.078 C 
ATOM     35  N   UNL     1       4.273   4.081   0.612  0.00  0.00    +0.385 N 
ATOM     36  H   UNL     1       4.469   4.881  -0.001  0.00  0.00    -0.081 HD
ENDBRANCH  20  35
ENDBRANCH  19  20
ENDBRANCH   3  19
TORSDOF 7
