REMARK  Name = ZINC63234643
REMARK  8 active torsions:
REMARK  status: ('A' for Active; 'I' for Inactive)
REMARK    1  A    between atoms: C_1  and  O_2
REMARK    2  A    between atoms: O_2  and  C_3
REMARK    3  A    between atoms: C_5  and  C_13
REMARK    4  A    between atoms: C_7  and  O_11
REMARK    5  A    between atoms: C_8  and  O_9
REMARK    6  A    between atoms: O_9  and  C_10
REMARK    7  A    between atoms: O_11  and  C_12
REMARK    8  A    between atoms: N_31  and  C_34
REMARK                            x       y       z     vdW  Elec       q    Type
REMARK                         _______ _______ _______ _____ _____    ______ ____
ROOT
ATOM      1  C   UNL     1       2.402   0.386  -4.230  0.00  0.00    +0.133 C 
ATOM      2  C   UNL     1       1.459   0.440  -5.440  0.00  0.00    +0.131 C 
ATOM      3  C   UNL     1       2.280   0.920  -6.629  0.00  0.00    -0.034 C 
ATOM      4  C   UNL     1       1.676   2.011  -7.087  0.00  0.00    -0.001 A 
ATOM      5  C   UNL     1       1.963   2.877  -8.242  0.00  0.00    +0.010 A 
ATOM      6  C   UNL     1       1.133   3.939  -8.415  0.00  0.00    +0.001 A 
ATOM      7  C   UNL     1       0.059   4.223  -7.566  0.00  0.00    +0.002 A 
ATOM      8  C   UNL     1      -0.282   3.477  -6.485  0.00  0.00    +0.026 A 
ATOM      9  C   UNL     1       0.515   2.330  -6.201  0.00  0.00    +0.043 A 
ATOM     10  N   UNL     1       0.405   1.439  -5.247  0.00  0.00    -0.375 N 
ATOM     11  C   UNL     1       3.560   0.250  -7.073  0.00  0.00    +0.065 C 
ATOM     12  C   UNL     1       3.884  -0.819  -6.015  0.00  0.00    +0.166 C 
ATOM     13  N   UNL     1       3.659  -0.224  -4.680  0.00  0.00    -0.291 N 
ATOM     14  C   UNL     1       4.811  -0.336  -4.005  0.00  0.00    +0.143 C 
ATOM     15  S   UNL     1       4.994   0.073  -2.353  0.00  0.00    -0.018 S 
ATOM     16  N   UNL     1       5.803  -0.806  -4.773  0.00  0.00    -0.249 N 
ATOM     17  C   UNL     1       5.365  -1.129  -6.035  0.00  0.00    +0.242 C 
ATOM     18  O   UNL     1       6.011  -1.559  -6.966  0.00  0.00    -0.273 OA
ATOM     19  H   UNL     1      -0.254   1.438  -4.535  0.00  0.00    +0.160 HD
ENDROOT
BRANCH   1  22
ATOM     20  C   UNL     1       0.606  -0.608  -1.056  0.00  0.00    +0.165 A 
ATOM     21  C   UNL     1       1.173   0.160  -2.063  0.00  0.00    +0.055 A 
ATOM     22  C   UNL     1       1.787  -0.452  -3.139  0.00  0.00    -0.018 A 
ATOM     23  C   UNL     1       1.839  -1.831  -3.217  0.00  0.00    +0.055 A 
ATOM     24  C   UNL     1       1.275  -2.606  -2.215  0.00  0.00    +0.165 A 
ATOM     25  C   UNL     1       0.661  -1.994  -1.128  0.00  0.00    +0.204 A 
BRANCH  20  27
ATOM     26  C   UNL     1      -0.017   1.425   0.010  0.00  0.00    +0.277 C 
ATOM     27  O   UNL     1       0.002  -0.004   0.002  0.00  0.00    -0.491 OA
ENDBRANCH  20  27
BRANCH  25  28
ATOM     28  O   UNL     1       0.111  -2.751  -0.140  0.00  0.00    -0.488 OA
ATOM     29  C   UNL     1      -1.260  -3.124  -0.295  0.00  0.00    +0.277 C 
ENDBRANCH  25  28
BRANCH  24  30
ATOM     30  O   UNL     1       1.326  -3.963  -2.293  0.00  0.00    -0.491 OA
ATOM     31  C   UNL     1       1.977  -4.523  -3.435  0.00  0.00    +0.277 C 
ENDBRANCH  24  30
ENDBRANCH   1  22
BRANCH  16  32
ATOM     32  C   UNL     1       7.187  -0.971  -4.320  0.00  0.00    +0.083 C 
ATOM     33  C   UNL     1       7.224  -1.941  -3.137  0.00  0.00    +0.023 C 
ATOM     34  C   UNL     1       8.669  -2.113  -2.664  0.00  0.00    +0.002 C 
ATOM     35  C   UNL     1       9.228  -0.757  -2.230  0.00  0.00    +0.000 C 
ATOM     36  C   UNL     1       9.191   0.213  -3.412  0.00  0.00    +0.002 C 
ATOM     37  C   UNL     1       7.746   0.385  -3.885  0.00  0.00    +0.023 C 
ENDBRANCH  16  32
TORSDOF 5
