REMARK  Name = ZINC39934637
REMARK  7 active torsions:
REMARK  status: ('A' for Active; 'I' for Inactive)
REMARK    1  A    between atoms: C_6  and  C_10
REMARK    2  A    between atoms: C_10  and  C_30
REMARK    3  A    between atoms: C_11  and  C_12
REMARK    4  A    between atoms: C_17  and  O_18
REMARK    5  A    between atoms: O_18  and  C_19
REMARK    6  A    between atoms: C_19  and  C_20
REMARK    7  A    between atoms: C_23  and  N_26
REMARK                            x       y       z     vdW  Elec       q    Type
REMARK                         _______ _______ _______ _____ _____    ______ ____
ROOT
ATOM      1  C   UNL     1       4.646  -4.595  -2.418  0.00  0.00    +0.019 A 
ATOM      2  C   UNL     1       4.270  -4.072  -3.660  0.00  0.00    +0.026 A 
ATOM      3  C   UNL     1       4.597  -4.746  -4.817  0.00  0.00    +0.019 A 
ATOM      4  C   UNL     1       5.297  -5.941  -4.755  0.00  0.00    +0.019 A 
ATOM      5  C   UNL     1       5.674  -6.469  -3.535  0.00  0.00    +0.047 A 
ATOM      6  C   UNL     1       5.360  -5.802  -2.362  0.00  0.00    +0.128 A 
ATOM      7 BR   UNL     1       4.089  -4.039  -6.495  0.00  0.00    -0.050 Br
ENDROOT
BRANCH   1   9
ATOM      8  C   UNL     1       4.260  -2.532  -1.168  0.00  0.00    +0.072 C 
ATOM      9  C   UNL     1       4.302  -3.881  -1.180  0.00  0.00    +0.030 C 
BRANCH   8  15
ATOM     10  C   UNL     1       2.920   2.711   0.230  0.00  0.00    +0.002 A 
ATOM     11  C   UNL     1       4.221   2.714   0.763  0.00  0.00    +0.002 A 
ATOM     12  C   UNL     1       4.941   1.586   0.927  0.00  0.00    +0.027 A 
ATOM     13  C   UNL     1       4.361   0.292   0.541  0.00  0.00    +0.060 A 
ATOM     14  N   UNL     1       4.811  -0.928   0.584  0.00  0.00    -0.359 N 
ATOM     15  C   UNL     1       3.760  -1.805   0.053  0.00  0.00    +0.216 C 
ATOM     16  N   UNL     1       2.635  -0.932  -0.306  0.00  0.00    -0.359 N 
ATOM     17  C   UNL     1       2.983   0.290  -0.023  0.00  0.00    +0.060 A 
ATOM     18  C   UNL     1       2.294   1.581  -0.156  0.00  0.00    +0.027 A 
ATOM     19  H   UNL     1       5.682  -1.207   0.908  0.00  0.00    +0.162 HD
ATOM     20  H   UNL     1       1.788  -1.214  -0.685  0.00  0.00    +0.162 HD
ENDBRANCH   8  15
BRANCH   8  21
ATOM     21  C   UNL     1       4.692  -1.792  -2.315  0.00  0.00    +0.099 C 
ATOM     22  N   UNL     1       5.035  -1.205  -3.225  0.00  0.00    -0.191 NA
ENDBRANCH   8  21
ENDBRANCH   1   9
BRANCH   6  23
ATOM     23  O   UNL     1       5.735  -6.317  -1.164  0.00  0.00    -0.487 OA
BRANCH  23  24
ATOM     24  C   UNL     1       6.458  -7.549  -1.185  0.00  0.00    +0.264 C 
BRANCH  24  25
ATOM     25  C   UNL     1       6.787  -7.963   0.227  0.00  0.00    -0.010 A 
ATOM     26  C   UNL     1       7.965  -7.543   0.814  0.00  0.00    +0.009 A 
ATOM     27  C   UNL     1       8.267  -7.922   2.108  0.00  0.00    +0.033 A 
ATOM     28  C   UNL     1       7.389  -8.723   2.816  0.00  0.00    +0.126 A 
ATOM     29  C   UNL     1       6.210  -9.143   2.229  0.00  0.00    +0.033 A 
ATOM     30  C   UNL     1       5.907  -8.759   0.936  0.00  0.00    +0.009 A 
BRANCH  28  31
ATOM     31  N   UNL     1       7.712  -9.130   4.202  0.00  0.00    +0.056 N 
ATOM     32  O   UNL     1       8.744  -8.763   4.715  0.00  0.00    -0.126 OA
ATOM     33  O   UNL     1       6.945  -9.830   4.820  0.00  0.00    -0.126 OA
ENDBRANCH  28  31
ENDBRANCH  24  25
ENDBRANCH  23  24
ENDBRANCH   6  23
TORSDOF 7
