REMARK  Name = ZINC45555378
REMARK  11 active torsions:
REMARK  status: ('A' for Active; 'I' for Inactive)
REMARK    1  A    between atoms: C_1  and  C_2
REMARK    2  A    between atoms: C_11  and  N_33
REMARK    3  A    between atoms: C_13  and  S_15
REMARK    4  A    between atoms: S_15  and  C_16
REMARK    5  A    between atoms: C_16  and  C_17
REMARK    6  A    between atoms: N_19  and  C_20
REMARK    7  A    between atoms: N_19  and  C_25
REMARK    8  A    between atoms: C_20  and  C_21
REMARK    9  A    between atoms: C_21  and  C_22
REMARK   10  A    between atoms: C_30  and  O_31
REMARK   11  A    between atoms: O_31  and  C_32
REMARK                            x       y       z     vdW  Elec       q    Type
REMARK                         _______ _______ _______ _____ _____    ______ ____
ROOT
ATOM      1  C   UNL     1      -1.936  -9.056   1.763  0.00  0.00    +0.173 C 
ENDROOT
BRANCH   1   2
ATOM      2  C   UNL     1      -2.102 -10.479   2.229  0.00  0.00    +0.230 C 
ATOM      3  O   UNL     1      -1.329 -10.947   3.039  0.00  0.00    -0.274 OA
ATOM      4  N   UNL     1      -3.109 -11.234   1.745  0.00  0.00    -0.267 N 
BRANCH   4   5
ATOM      5  C   UNL     1      -3.264 -12.557   2.178  0.00  0.00    +0.078 A 
ATOM      6  C   UNL     1      -4.054 -12.840   3.283  0.00  0.00    +0.027 A 
ATOM      7  C   UNL     1      -4.205 -14.146   3.708  0.00  0.00    +0.002 A 
ATOM      8  C   UNL     1      -3.570 -15.174   3.035  0.00  0.00    +0.004 A 
ATOM      9  C   UNL     1      -2.780 -14.900   1.934  0.00  0.00    +0.047 A 
ATOM     10  C   UNL     1      -2.628 -13.593   1.498  0.00  0.00    +0.141 A 
BRANCH  10  11
ATOM     11  O   UNL     1      -1.857 -13.323   0.411  0.00  0.00    -0.493 OA
ATOM     12  C   UNL     1      -1.236 -14.435  -0.237  0.00  0.00    +0.277 C 
ENDBRANCH  10  11
ENDBRANCH   4   5
BRANCH   4  13
ATOM     13  C   UNL     1      -4.042 -10.669   0.767  0.00  0.00    +0.123 C 
BRANCH  13  14
ATOM     14  C   UNL     1      -3.515 -10.924  -0.646  0.00  0.00    +0.115 C 
BRANCH  14  15
ATOM     15  C   UNL     1      -4.475 -10.343  -1.653  0.00  0.00    +0.212 C 
ATOM     16  O   UNL     1      -5.482  -9.782  -1.276  0.00  0.00    -0.276 OA
ATOM     17  N   UNL     1      -4.215 -10.448  -2.971  0.00  0.00    -0.329 N 
ATOM     18  H   UNL     1      -3.409 -10.897  -3.272  0.00  0.00    +0.145 HD
ATOM     19  H   UNL     1      -4.832 -10.075  -3.619  0.00  0.00    +0.145 HD
ENDBRANCH  14  15
ENDBRANCH  13  14
ENDBRANCH   4  13
ENDBRANCH   1   2
BRANCH   1  20
ATOM     20  S   UNL     1      -0.503  -8.313   2.590  0.00  0.00    -0.077 S 
BRANCH  20  32
ATOM     21  C   UNL     1       0.559   1.283  -0.694  0.00  0.00    +0.008 C 
ATOM     22  C   UNL     1       0.440  -0.235  -0.549  0.00  0.00    -0.009 C 
ATOM     23  C   UNL     1      -1.037  -0.626  -0.433  0.00  0.00    +0.008 C 
ATOM     24  C   UNL     1      -1.180  -2.144  -0.537  0.00  0.00    +0.037 C 
ATOM     25  C   UNL     1      -0.249  -2.800   0.478  0.00  0.00    -0.025 A 
ATOM     26  C   UNL     1       0.784  -2.109   1.010  0.00  0.00    -0.004 A 
ATOM     27  S   UNL     1       1.583  -3.241   2.119  0.00  0.00    -0.073 S 
ATOM     28  C   UNL     1       0.535  -4.638   1.872  0.00  0.00    +0.115 A 
ATOM     29  C   UNL     1      -0.412  -4.175   0.924  0.00  0.00    +0.051 A 
ATOM     30  C   UNL     1      -1.418  -5.097   0.513  0.00  0.00    +0.129 A 
ATOM     31  N   UNL     1      -1.361  -6.306   1.065  0.00  0.00    -0.207 NA
ATOM     32  C   UNL     1      -0.444  -6.673   1.948  0.00  0.00    +0.191 A 
ATOM     33  N   UNL     1       0.523  -5.857   2.374  0.00  0.00    -0.214 NA
ATOM     34  C   UNL     1       1.173  -0.691   0.721  0.00  0.00    +0.046 C 
BRANCH  30  35
ATOM     35  N   UNL     1      -2.394  -4.756  -0.406  0.00  0.00    -0.343 N 
ATOM     36  H   UNL     1      -2.277  -3.975  -0.970  0.00  0.00    +0.144 HD
ATOM     37  H   UNL     1      -3.195  -5.297  -0.486  0.00  0.00    +0.144 HD
ENDBRANCH  30  35
ENDBRANCH  20  32
ENDBRANCH   1  20
TORSDOF 9
