REMARK  Name = ZINC10246413
REMARK  8 active torsions:
REMARK  status: ('A' for Active; 'I' for Inactive)
REMARK    1  A    between atoms: C_1  and  C_2
REMARK    2  A    between atoms: C_7  and  N_8
REMARK    3  A    between atoms: C_9  and  C_31
REMARK    4  A    between atoms: C_12  and  S_13
REMARK    5  A    between atoms: S_13  and  C_14
REMARK    6  A    between atoms: C_14  and  C_15
REMARK    7  A    between atoms: N_17  and  N_18
REMARK    8  A    between atoms: C_24  and  C_27
REMARK                            x       y       z     vdW  Elec       q    Type
REMARK                         _______ _______ _______ _____ _____    ______ ____
ROOT
ATOM      1  C   UNL     1      -1.187   1.624   0.017  0.00  0.00    +0.240 C 
ATOM      2  O   UNL     1      -1.204   2.837   0.023  0.00  0.00    -0.273 OA
ATOM      3  N   UNL     1      -0.011   0.966   0.007  0.00  0.00    -0.223 N 
ATOM      4  H   UNL     1       0.002  -0.004   0.002  0.00  0.00    +0.174 HD
ENDROOT
BRANCH   3   5
ATOM      5  N   UNL     1       1.193   1.683  -0.000  0.00  0.00    -0.137 N 
ATOM      6  C   UNL     1       2.002   1.817   1.071  0.00  0.00    +0.263 C 
ATOM      7  O   UNL     1       1.834   1.358   2.180  0.00  0.00    -0.271 OA
ATOM      8  C   UNL     1       3.164   2.659   0.596  0.00  0.00    +0.114 C 
ATOM      9  C   UNL     1       4.469   1.881   0.716  0.00  0.00    +0.035 C 
ATOM     10  C   UNL     1       5.628   2.740   0.204  0.00  0.00    +0.006 C 
ATOM     11  C   UNL     1       5.707   4.029   1.024  0.00  0.00    -0.014 C 
ATOM     12  C   UNL     1       4.400   4.811   0.874  0.00  0.00    +0.006 C 
ATOM     13  C   UNL     1       3.236   3.960   1.388  0.00  0.00    +0.035 C 
ATOM     14  C   UNL     1       6.872   4.883   0.522  0.00  0.00    +0.007 C 
ATOM     15  N   UNL     1       2.854   2.931  -0.814  0.00  0.00    -0.284 N 
ATOM     16  C   UNL     1       1.685   2.315  -1.073  0.00  0.00    +0.326 C 
ATOM     17  O   UNL     1       1.137   2.333  -2.157  0.00  0.00    -0.251 OA
ATOM     18  H   UNL     1       3.388   3.449  -1.437  0.00  0.00    +0.151 HD
ENDBRANCH   3   5
BRANCH   1  19
ATOM     19  C   UNL     1      -2.482   0.853   0.018  0.00  0.00    +0.174 C 
BRANCH  19  20
ATOM     20  S   UNL     1      -3.874   2.010   0.031  0.00  0.00    -0.076 S 
BRANCH  20  25
ATOM     21  N   UNL     1      -6.550   1.185   0.040  0.00  0.00    -0.274 N 
ATOM     22  C   UNL     1      -7.212  -0.014   0.036  0.00  0.00    +0.135 A 
ATOM     23  N   UNL     1      -6.310  -0.955   0.026  0.00  0.00    -0.133 NA
ATOM     24  N   UNL     1      -5.133  -0.439   0.018  0.00  0.00    -0.122 NA
ATOM     25  C   UNL     1      -5.218   0.872   0.032  0.00  0.00    +0.197 A 
ATOM     26  C   UNL     1      -8.706  -0.210   0.041  0.00  0.00    +0.088 C 
BRANCH  21  33
ATOM     27  C   UNL     1      -7.095   2.397   2.557  0.00  0.00    +0.046 C 
ATOM     28  C   UNL     1      -7.400   3.093   1.256  0.00  0.00    -0.027 A 
ATOM     29  C   UNL     1      -7.955   4.358   1.263  0.00  0.00    +0.005 A 
ATOM     30  C   UNL     1      -8.241   4.996   0.070  0.00  0.00    +0.000 A 
ATOM     31  C   UNL     1      -7.967   4.372  -1.134  0.00  0.00    +0.002 A 
ATOM     32  C   UNL     1      -7.407   3.109  -1.147  0.00  0.00    +0.026 A 
ATOM     33  C   UNL     1      -7.119   2.467   0.050  0.00  0.00    +0.053 A 
ENDBRANCH  21  33
ENDBRANCH  20  25
ENDBRANCH  19  20
ENDBRANCH   1  19
TORSDOF 5
