REMARK  Name = ZINC48552282
REMARK  11 active torsions:
REMARK  status: ('A' for Active; 'I' for Inactive)
REMARK    1  A    between atoms: C_1  and  C_2
REMARK    2  A    between atoms: C_2  and  C_4
REMARK    3  A    between atoms: C_2  and  C_12
REMARK    4  A    between atoms: C_4  and  C_6
REMARK    5  A    between atoms: C_12  and  C_31
REMARK    6  A    between atoms: N_16  and  C_19
REMARK    7  A    between atoms: C_26  and  C_27
REMARK    8  A    between atoms: C_27  and  O_29
REMARK    9  A    between atoms: O_29  and  C_30
REMARK   10  A    between atoms: C_31  and  O_33
REMARK   11  A    between atoms: O_33  and  C_34
REMARK                            x       y       z     vdW  Elec       q    Type
REMARK                         _______ _______ _______ _____ _____    ______ ____
ROOT
ATOM      1  C   UNL     1      -1.399  -0.566  -0.199  0.00  0.00    +0.159 C 
ATOM      2  C   UNL     1      -1.888  -0.282  -1.601  0.00  0.00    +0.088 A 
ATOM      3  C   UNL     1      -2.101  -1.559  -2.178  0.00  0.00    +0.184 A 
ATOM      4  N   UNL     1      -2.534  -1.363  -3.417  0.00  0.00    -0.143 NA
ATOM      5  N   UNL     1      -2.604   0.016  -3.648  0.00  0.00    -0.194 N 
ATOM      6  C   UNL     1      -2.201   0.657  -2.514  0.00  0.00    +0.280 A 
ATOM      7  O   UNL     1      -2.128   2.001  -2.336  0.00  0.00    -0.265 OA
ATOM      8  N   UNL     1      -1.794  -2.528  -1.281  0.00  0.00    -0.222 NA
ATOM      9  C   UNL     1      -1.389  -2.080  -0.135  0.00  0.00    +0.149 C 
ENDROOT
BRANCH   5  10
ATOM     10  C   UNL     1      -3.016   0.630  -4.837  0.00  0.00    +0.069 A 
ATOM     11  C   UNL     1      -3.717   1.829  -4.794  0.00  0.00    +0.028 A 
ATOM     12  C   UNL     1      -4.122   2.432  -5.969  0.00  0.00    +0.002 A 
ATOM     13  C   UNL     1      -3.831   1.844  -7.186  0.00  0.00    +0.000 A 
ATOM     14  C   UNL     1      -3.134   0.650  -7.232  0.00  0.00    +0.002 A 
ATOM     15  C   UNL     1      -2.720   0.045  -6.061  0.00  0.00    +0.028 A 
ENDBRANCH   5  10
BRANCH   1  17
ATOM     16  C   UNL     1       0.890  -0.397  -1.186  0.00  0.00    +0.017 C 
ATOM     17  C   UNL     1       0.011  -0.008   0.004  0.00  0.00    +0.085 C 
BRANCH  17  18
ATOM     18  C   UNL     1      -0.054   1.494   0.110  0.00  0.00    +0.168 C 
ATOM     19  O   UNL     1      -1.006   2.093  -0.342  0.00  0.00    -0.292 OA
BRANCH  18  20
ATOM     20  C   UNL     1       1.039   2.234   0.761  0.00  0.00    +0.018 A 
ATOM     21  C   UNL     1       2.143   1.547   1.278  0.00  0.00    +0.011 A 
ATOM     22  C   UNL     1       3.163   2.248   1.886  0.00  0.00    +0.001 A 
ATOM     23  C   UNL     1       3.097   3.627   1.986  0.00  0.00    +0.000 A 
ATOM     24  C   UNL     1       2.008   4.313   1.477  0.00  0.00    +0.001 A 
ATOM     25  C   UNL     1       0.983   3.628   0.861  0.00  0.00    +0.011 A 
ENDBRANCH  18  20
ENDBRANCH  17  18
ENDBRANCH   1  17
BRANCH   9  26
ATOM     26  C   UNL     1      -0.989  -2.896   1.022  0.00  0.00    +0.355 C 
ATOM     27  O   UNL     1      -0.715  -2.360   2.078  0.00  0.00    -0.244 OA
BRANCH  26  28
ATOM     28  O   UNL     1      -0.927  -4.238   0.912  0.00  0.00    -0.464 OA
ATOM     29  C   UNL     1      -0.532  -4.967   2.075  0.00  0.00    +0.280 C 
ENDBRANCH  26  28
ENDBRANCH   9  26
BRANCH   1  30
ATOM     30  C   UNL     1      -2.347   0.003   0.825  0.00  0.00    +0.325 C 
ATOM     31  O   UNL     1      -1.944   0.788   1.650  0.00  0.00    -0.249 OA
BRANCH  30  32
ATOM     32  O   UNL     1      -3.639  -0.361   0.819  0.00  0.00    -0.467 OA
ATOM     33  C   UNL     1      -4.480   0.217   1.818  0.00  0.00    +0.280 C 
ENDBRANCH  30  32
ENDBRANCH   1  30
TORSDOF 8
