REMARK  Name = ZINC62495663
REMARK  4 active torsions:
REMARK  status: ('A' for Active; 'I' for Inactive)
REMARK    1  A    between atoms: C_1  and  C_2
REMARK    2  A    between atoms: C_6  and  C_8
REMARK    3  A    between atoms: C_8  and  C_9
REMARK    4  A    between atoms: C_16  and  O_20
REMARK                            x       y       z     vdW  Elec       q    Type
REMARK                         _______ _______ _______ _____ _____    ______ ____
ROOT
ATOM      1  C   UNL     1       1.502  -3.083   2.921  0.00  0.00    +0.195 C 
ATOM      2  C   UNL     1       1.522  -3.753   4.303  0.00  0.00    +0.146 C 
ATOM      3  N   UNL     1       2.930  -4.005   4.654  0.00  0.00    -0.337 N 
ATOM      4  C   UNL     1       3.778  -4.494   3.643  0.00  0.00    +0.070 A 
ATOM      5  C   UNL     1       5.018  -5.016   3.972  0.00  0.00    +0.030 A 
ATOM      6  C   UNL     1       5.852  -5.492   2.977  0.00  0.00    +0.047 A 
ATOM      7  C   UNL     1       5.447  -5.446   1.651  0.00  0.00    +0.120 A 
ATOM      8  C   UNL     1       4.205  -4.924   1.320  0.00  0.00    +0.093 A 
ATOM      9  C   UNL     1       3.365  -4.448   2.315  0.00  0.00    +0.145 A 
ATOM     10  O   UNL     1       2.148  -3.943   1.980  0.00  0.00    -0.485 OA
ATOM     11  H   UNL     1       3.261  -3.841   5.551  0.00  0.00    +0.146 HD
ENDROOT
BRANCH   7  12
ATOM     12  O   UNL     1       6.269  -5.913   0.673  0.00  0.00    -0.507 OA
ATOM     13  H   UNL     1       6.147  -6.851   0.472  0.00  0.00    +0.292 HD
ENDBRANCH   7  12
BRANCH   1  14
ATOM     14  C   UNL     1       0.054  -2.845   2.489  0.00  0.00    +0.081 C 
BRANCH  14  20
ATOM     15  C   UNL     1      -0.018   1.503   0.010  0.00  0.00    +0.044 C 
ATOM     16  C   UNL     1       0.002  -0.004   0.002  0.00  0.00    -0.050 A 
ATOM     17  C   UNL     1       0.006  -0.689  -1.199  0.00  0.00    +0.003 A 
ATOM     18  C   UNL     1       0.025  -2.071  -1.207  0.00  0.00    +0.001 A 
ATOM     19  C   UNL     1       0.040  -2.768  -0.013  0.00  0.00    +0.004 A 
ATOM     20  C   UNL     1       0.037  -2.084   1.188  0.00  0.00    -0.044 A 
ATOM     21  C   UNL     1       0.023  -0.702   1.195  0.00  0.00    +0.007 A 
ENDBRANCH  14  20
ENDBRANCH   1  14
TORSDOF 3
