REMARK  Name = ZINC02255641
REMARK  3 active torsions:
REMARK  status: ('A' for Active; 'I' for Inactive)
REMARK    1  A    between atoms: C_4  and  C_7
REMARK    2  A    between atoms: C_17  and  C_31
REMARK    3  A    between atoms: C_19  and  C_21
REMARK                            x       y       z     vdW  Elec       q    Type
REMARK                         _______ _______ _______ _____ _____    ______ ____
ROOT
ATOM      1  C   UNL     1       5.796   3.812  -1.862  0.00  0.00    +0.251 C 
ATOM      2  O   UNL     1       6.803   3.396  -2.402  0.00  0.00    -0.270 OA
ATOM      3  N   UNL     1       5.746   3.920  -0.520  0.00  0.00    -0.256 N 
ATOM      4  C   UNL     1       6.796   3.437   0.275  0.00  0.00    +0.058 A 
ATOM      5  C   UNL     1       7.724   2.554  -0.254  0.00  0.00    +0.025 A 
ATOM      6  C   UNL     1       8.757   2.084   0.537  0.00  0.00    +0.002 A 
ATOM      7  C   UNL     1       8.867   2.493   1.853  0.00  0.00    +0.002 A 
ATOM      8  C   UNL     1       7.945   3.373   2.389  0.00  0.00    +0.025 A 
ATOM      9  C   UNL     1       6.907   3.848   1.603  0.00  0.00    +0.049 A 
ATOM     10  N   UNL     1       5.967   4.739   2.138  0.00  0.00    -0.333 N 
ATOM     11  C   UNL     1       5.114   5.505   1.218  0.00  0.00    +0.128 C 
ATOM     12  C   UNL     1       4.590   4.547   0.139  0.00  0.00    +0.138 C 
ATOM     13  H   UNL     1       5.881   4.848   3.098  0.00  0.00    +0.147 HD
ENDROOT
BRANCH  12  14
ATOM     14  C   UNL     1       3.730   3.485   0.775  0.00  0.00    +0.000 A 
ATOM     15  C   UNL     1       4.132   2.270   1.181  0.00  0.00    +0.089 A 
ATOM     16  N   UNL     1       3.074   1.582   1.711  0.00  0.00    -0.360 N 
ATOM     17  H   UNL     1       3.118   0.683   2.070  0.00  0.00    +0.165 HD
ATOM     18  C   UNL     1       1.937   2.357   1.656  0.00  0.00    +0.047 A 
ATOM     19  C   UNL     1       2.298   3.583   1.067  0.00  0.00    +0.005 A 
ATOM     20  C   UNL     1       1.336   4.577   0.881  0.00  0.00    +0.010 A 
ATOM     21  C   UNL     1       0.046   4.354   1.273  0.00  0.00    +0.001 A 
ATOM     22  C   UNL     1      -0.316   3.146   1.854  0.00  0.00    +0.002 A 
ATOM     23  C   UNL     1       0.618   2.151   2.047  0.00  0.00    +0.026 A 
ENDBRANCH  12  14
BRANCH  11  24
ATOM     24  C   UNL     1       5.919   6.604   0.575  0.00  0.00    -0.000 A 
ATOM     25  C   UNL     1       7.252   6.632   0.421  0.00  0.00    +0.089 A 
ATOM     26  N   UNL     1       7.625   7.788  -0.210  0.00  0.00    -0.360 N 
ATOM     27  H   UNL     1       8.537   8.031  -0.433  0.00  0.00    +0.165 HD
ATOM     28  C   UNL     1       6.513   8.556  -0.475  0.00  0.00    +0.047 A 
ATOM     29  C   UNL     1       5.396   7.848   0.005  0.00  0.00    +0.005 A 
ATOM     30  C   UNL     1       4.117   8.393  -0.128  0.00  0.00    +0.010 A 
ATOM     31  C   UNL     1       3.957   9.611  -0.725  0.00  0.00    +0.001 A 
ATOM     32  C   UNL     1       5.056  10.313  -1.201  0.00  0.00    +0.002 A 
ATOM     33  C   UNL     1       6.327   9.795  -1.079  0.00  0.00    +0.026 A 
ENDBRANCH  11  24
BRANCH   1  37
ATOM     34  C   UNL     1       2.435   4.925  -4.209  0.00  0.00    +0.000 A 
ATOM     35  C   UNL     1       3.704   4.969  -4.759  0.00  0.00    +0.001 A 
ATOM     36  C   UNL     1       4.800   4.609  -4.002  0.00  0.00    +0.013 A 
ATOM     37  C   UNL     1       4.627   4.200  -2.679  0.00  0.00    +0.037 A 
ATOM     38  C   UNL     1       3.343   4.152  -2.132  0.00  0.00    +0.013 A 
ATOM     39  C   UNL     1       2.256   4.520  -2.898  0.00  0.00    +0.001 A 
ENDBRANCH   1  37
TORSDOF 3
