REMARK  Name = ZINC66568648
REMARK  6 active torsions:
REMARK  status: ('A' for Active; 'I' for Inactive)
REMARK    1  A    between atoms: C_1  and  C_2
REMARK    2  A    between atoms: C_5  and  C_7
REMARK    3  A    between atoms: C_7  and  N_8
REMARK    4  A    between atoms: N_8  and  C_9
REMARK    5  A    between atoms: N_8  and  C_20
REMARK    6  A    between atoms: C_9  and  C_10
REMARK                            x       y       z     vdW  Elec       q    Type
REMARK                         _______ _______ _______ _____ _____    ______ ____
ROOT
ATOM      1  N   UNL     1       1.983  -3.620  -1.407  0.00  0.00    -0.317 N 
ENDROOT
BRANCH   1   2
ATOM      2  C   UNL     1       1.180  -4.555  -2.067  0.00  0.00    +0.031 A 
ATOM      3  C   UNL     1       1.466  -4.915  -3.377  0.00  0.00    +0.026 A 
ATOM      4  C   UNL     1       0.672  -5.840  -4.027  0.00  0.00    +0.040 A 
ATOM      5  C   UNL     1      -0.408  -6.407  -3.373  0.00  0.00    +0.124 A 
ATOM      6  C   UNL     1      -0.695  -6.050  -2.067  0.00  0.00    +0.040 A 
ATOM      7  C   UNL     1       0.099  -5.130  -1.411  0.00  0.00    +0.026 A 
ATOM      8  F   UNL     1      -1.184  -7.311  -4.011  0.00  0.00    -0.205 F 
ENDBRANCH   1   2
BRANCH   1   9
ATOM      9  C   UNL     1       1.684  -3.245  -0.023  0.00  0.00    +0.179 C 
BRANCH   9  14
ATOM     10  C   UNL     1      -0.018   1.503   0.010  0.00  0.00    +0.086 C 
ATOM     11  C   UNL     1       0.002  -0.004   0.002  0.00  0.00    +0.102 A 
ATOM     12  C   UNL     1      -1.078  -0.805   0.003  0.00  0.00    +0.045 A 
ATOM     13  C   UNL     1      -0.601  -2.136  -0.007  0.00  0.00    +0.046 A 
ATOM     14  C   UNL     1       0.742  -2.069  -0.013  0.00  0.00    +0.122 A 
ATOM     15  O   UNL     1       1.102  -0.775  -0.013  0.00  0.00    -0.463 OA
ENDBRANCH   9  14
ENDBRANCH   1   9
BRANCH   1  16
ATOM     16  C   UNL     1       3.123  -3.014  -2.100  0.00  0.00    +0.158 C 
BRANCH  16  17
ATOM     17  C   UNL     1       4.353  -3.854  -1.873  0.00  0.00    +0.040 A 
ATOM     18  C   UNL     1       4.968  -4.497  -2.926  0.00  0.00    +0.093 A 
ATOM     19  C   UNL     1       6.106  -5.270  -2.697  0.00  0.00    +0.259 A 
ATOM     20  O   UNL     1       6.655  -5.840  -3.626  0.00  0.00    -0.267 OA
ATOM     21  N   UNL     1       6.606  -5.388  -1.430  0.00  0.00    -0.263 N 
ATOM     22  C   UNL     1       7.712  -6.108  -1.047  0.00  0.00    +0.104 A 
ATOM     23  C   UNL     1       8.101  -6.145   0.228  0.00  0.00    +0.067 A 
ATOM     24  S   UNL     1       6.873  -5.114   1.015  0.00  0.00    -0.059 S 
ATOM     25  C   UNL     1       5.934  -4.717  -0.444  0.00  0.00    +0.158 A 
ATOM     26  N   UNL     1       4.867  -3.986  -0.653  0.00  0.00    -0.337 N 
ATOM     27  H   UNL     1       4.444  -3.534   0.094  0.00  0.00    +0.168 HD
ENDBRANCH  16  17
ENDBRANCH   1  16
TORSDOF 5
