REMARK  Name = ZINC65455519
REMARK  9 active torsions:
REMARK  status: ('A' for Active; 'I' for Inactive)
REMARK    1  A    between atoms: C_1  and  C_2
REMARK    2  A    between atoms: C_2  and  C_3
REMARK    3  A    between atoms: N_5  and  C_6
REMARK    4  A    between atoms: C_9  and  N_13
REMARK    5  A    between atoms: C_11  and  C_12
REMARK    6  A    between atoms: N_16  and  C_17
REMARK    7  A    between atoms: C_17  and  C_18
REMARK    8  A    between atoms: C_24  and  C_29
REMARK    9  A    between atoms: C_25  and  C_28
REMARK                            x       y       z     vdW  Elec       q    Type
REMARK                         _______ _______ _______ _____ _____    ______ ____
ROOT
ATOM      1  N   UNL     1      -6.858  -3.768  -0.372  0.00  0.00    -0.269 N 
ATOM      2  C   UNL     1      -7.879  -2.909  -0.566  0.00  0.00    +0.304 C 
ATOM      3  O   UNL     1      -7.673  -1.711  -0.567  0.00  0.00    -0.252 OA
ATOM      4  N   UNL     1      -9.127  -3.378  -0.758  0.00  0.00    -0.295 N 
ATOM      5  H   UNL     1      -7.032  -4.720  -0.302  0.00  0.00    +0.156 HD
ATOM      6  H   UNL     1      -9.292  -4.334  -0.757  0.00  0.00    +0.151 HD
ENDROOT
BRANCH   1  10
ATOM      7  C   UNL     1      -2.954  -2.334  -0.074  0.00  0.00    +0.036 A 
ATOM      8  C   UNL     1      -3.200  -3.557  -0.685  0.00  0.00    +0.025 A 
ATOM      9  C   UNL     1      -4.492  -4.032  -0.783  0.00  0.00    +0.025 A 
ATOM     10  C   UNL     1      -5.547  -3.286  -0.272  0.00  0.00    +0.035 A 
ATOM     11  C   UNL     1      -5.301  -2.063   0.338  0.00  0.00    +0.028 A 
ATOM     12  C   UNL     1      -4.008  -1.591   0.442  0.00  0.00    -0.027 A 
ATOM     13  C   UNL     1      -3.740  -0.268   1.111  0.00  0.00    +0.046 C 
BRANCH   7  16
ATOM     14  C   UNL     1      -0.605  -2.712   0.012  0.00  0.00    +0.217 C 
ATOM     15  O   UNL     1      -0.809  -3.908   0.014  0.00  0.00    -0.275 OA
ATOM     16  N   UNL     1      -1.642  -1.852   0.025  0.00  0.00    -0.285 N 
ATOM     17  H   UNL     1      -1.481  -0.898   0.105  0.00  0.00    +0.155 HD
BRANCH  14  19
ATOM     18  C   UNL     1       1.787  -3.365  -0.020  0.00  0.00    +0.013 C 
ATOM     19  C   UNL     1       0.808  -2.189  -0.007  0.00  0.00    +0.093 C 
ENDBRANCH  14  19
ENDBRANCH   7  16
ENDBRANCH   1  10
BRANCH   4  20
ATOM     20  C   UNL     1     -10.237  -2.445  -0.969  0.00  0.00    +0.141 C 
BRANCH  20  21
ATOM     21  C   UNL     1     -11.516  -3.219  -1.158  0.00  0.00    -0.030 A 
ATOM     22  C   UNL     1     -11.901  -3.612  -2.432  0.00  0.00    +0.007 A 
ATOM     23  C   UNL     1     -13.067  -4.320  -2.626  0.00  0.00    +0.026 A 
ATOM     24  C   UNL     1     -13.868  -4.646  -1.536  0.00  0.00    +0.047 A 
ATOM     25  C   UNL     1     -13.473  -4.245  -0.247  0.00  0.00    +0.003 A 
ATOM     26  C   UNL     1     -12.284  -3.532  -0.072  0.00  0.00    +0.015 A 
ATOM     27  C   UNL     1     -14.511  -4.732   0.664  0.00  0.00    -0.022 A 
ATOM     28  C   UNL     1     -15.425  -5.366  -0.086  0.00  0.00    +0.017 A 
ATOM     29  N   UNL     1     -15.058  -5.325  -1.403  0.00  0.00    -0.358 N 
ATOM     30  H   UNL     1     -15.561  -5.716  -2.135  0.00  0.00    +0.166 HD
ATOM     31  C   UNL     1     -16.672  -6.026   0.444  0.00  0.00    +0.063 C 
ATOM     32  C   UNL     1     -14.545  -4.556   2.161  0.00  0.00    +0.046 C 
ENDBRANCH  20  21
ENDBRANCH   4  20
TORSDOF 5
