REMARK  Name = ZINC00710728
REMARK  7 active torsions:
REMARK  status: ('A' for Active; 'I' for Inactive)
REMARK    1  A    between atoms: C_1  and  O_2
REMARK    2  A    between atoms: O_2  and  C_3
REMARK    3  A    between atoms: C_8  and  C_9
REMARK    4  A    between atoms: N_10  and  N_11
REMARK    5  A    between atoms: C_12  and  C_14
REMARK    6  A    between atoms: C_15  and  C_25
REMARK    7  A    between atoms: C_25  and  N_58
REMARK                            x       y       z     vdW  Elec       q    Type
REMARK                         _______ _______ _______ _____ _____    ______ ____
ROOT
ATOM      1  C   UNL     1      -2.844   0.473  -1.430  0.00  0.00    +0.170 A 
ATOM      2  C   UNL     1      -2.241   1.605  -0.961  0.00  0.00    +0.063 A 
ATOM      3  N   UNL     1      -3.195   2.323  -0.328  0.00  0.00    -0.194 N 
ATOM      4  N   UNL     1      -4.385   1.587  -0.425  0.00  0.00    -0.058 NA
ATOM      5  N   UNL     1      -4.141   0.504  -1.076  0.00  0.00    -0.124 NA
ATOM      6  C   UNL     1      -3.028   3.561   0.303  0.00  0.00    +0.240 A 
ATOM      7  C   UNL     1      -4.077   4.324   0.985  0.00  0.00    +0.206 A 
ATOM      8  N   UNL     1      -3.548   5.423   1.449  0.00  0.00    -0.032 NA
ATOM      9  O   UNL     1      -2.175   5.425   1.101  0.00  0.00    -0.239 OA
ATOM     10  N   UNL     1      -1.912   4.228   0.389  0.00  0.00    -0.027 NA
ATOM     11  N   UNL     1      -5.407   3.943   1.116  0.00  0.00    -0.337 N 
ATOM     12  H   UNL     1      -5.711   3.103   0.736  0.00  0.00    +0.144 HD
ATOM     13  H   UNL     1      -6.032   4.516   1.587  0.00  0.00    +0.144 HD
ENDROOT
BRANCH   1  15
ATOM     14  N   UNL     1      -2.895  -1.674  -2.599  0.00  0.00    -0.202 N 
ATOM     15  C   UNL     1      -2.184  -0.603  -2.192  0.00  0.00    +0.285 C 
ATOM     16  O   UNL     1      -0.999  -0.525  -2.454  0.00  0.00    -0.267 OA
ATOM     17  H   UNL     1      -3.840  -1.737  -2.391  0.00  0.00    +0.178 HD
BRANCH  14  19
ATOM     18  C   UNL     1      -2.952  -3.727  -3.716  0.00  0.00    +0.142 C 
ATOM     19  N   UNL     1      -2.268  -2.696  -3.324  0.00  0.00    -0.187 NA
BRANCH  18  25
ATOM     20  C   UNL     1      -0.927  -4.716  -4.781  0.00  0.00    +0.129 A 
ATOM     21  C   UNL     1      -0.316  -5.733  -5.497  0.00  0.00    +0.046 A 
ATOM     22  C   UNL     1      -1.052  -6.827  -5.911  0.00  0.00    +0.004 A 
ATOM     23  C   UNL     1      -2.401  -6.917  -5.614  0.00  0.00    +0.001 A 
ATOM     24  C   UNL     1      -3.023  -5.917  -4.897  0.00  0.00    +0.013 A 
ATOM     25  C   UNL     1      -2.292  -4.803  -4.478  0.00  0.00    +0.036 A 
BRANCH  20  27
ATOM     26  C   UNL     1       1.182  -3.621  -4.720  0.00  0.00    +0.277 C 
ATOM     27  O   UNL     1      -0.205  -3.640  -4.375  0.00  0.00    -0.494 OA
ENDBRANCH  20  27
ENDBRANCH  18  25
ENDBRANCH  14  19
ENDBRANCH   1  15
BRANCH   2  28
ATOM     28  C   UNL     1      -0.791   1.984  -1.124  0.00  0.00    -0.019 C 
BRANCH  28  38
ATOM     29  C   UNL     1       1.356   1.990  -0.000  0.00  0.00    -0.073 C 
ATOM     30  C   UNL     1       1.989   1.723   1.366  0.00  0.00    +0.017 C 
ATOM     31  C   UNL     1       1.806   0.275   1.742  0.00  0.00    -0.048 A 
ATOM     32  C   UNL     1       2.596  -0.250   2.754  0.00  0.00    +0.004 A 
ATOM     33  C   UNL     1       2.458  -1.570   3.132  0.00  0.00    +0.000 A 
ATOM     34  C   UNL     1       1.527  -2.373   2.500  0.00  0.00    +0.000 A 
ATOM     35  C   UNL     1       0.741  -1.852   1.492  0.00  0.00    +0.002 A 
ATOM     36  C   UNL     1       0.879  -0.526   1.109  0.00  0.00    -0.061 A 
ATOM     37  C   UNL     1       0.002  -0.004   0.002  0.00  0.00    -0.042 C 
ATOM     38  N   UNL     1      -0.025   1.468   0.032  0.00  0.00    +0.386 N 
ATOM     39  H   UNL     1      -0.480   1.777   0.899  0.00  0.00    -0.081 HD
ENDBRANCH  28  38
ENDBRANCH   2  28
TORSDOF 6
