REMARK  Name = ZINC39766124
REMARK  12 active torsions:
REMARK  status: ('A' for Active; 'I' for Inactive)
REMARK    1  A    between atoms: C_1  and  C_2
REMARK    2  A    between atoms: C_5  and  N_9
REMARK    3  A    between atoms: C_6  and  C_8
REMARK    4  A    between atoms: C_10  and  C_12
REMARK    5  A    between atoms: C_12  and  C_13
REMARK    6  A    between atoms: C_16  and  S_24
REMARK    7  A    between atoms: N_17  and  C_18
REMARK    8  A    between atoms: S_24  and  C_25
REMARK    9  A    between atoms: C_25  and  C_27
REMARK   10  A    between atoms: C_25  and  C_28
REMARK   11  A    between atoms: N_30  and  C_31
REMARK   12  A    between atoms: C_36  and  O_37
REMARK                            x       y       z     vdW  Elec       q    Type
REMARK                         _______ _______ _______ _____ _____    ______ ____
ROOT
ATOM      1  C   UNL     1      -0.262  -6.886  -2.594  0.00  0.00    +0.147 A 
ATOM      2  N   UNL     1      -1.357  -7.071  -3.276  0.00  0.00    -0.133 NA
ATOM      3  N   UNL     1      -1.077  -7.492  -4.457  0.00  0.00    -0.122 NA
ATOM      4  C   UNL     1       0.224  -7.600  -4.597  0.00  0.00    +0.197 A 
ATOM      5  N   UNL     1       0.787  -7.211  -3.413  0.00  0.00    -0.274 N 
ENDROOT
BRANCH   5   6
ATOM      6  C   UNL     1       2.154  -7.159  -3.100  0.00  0.00    +0.050 A 
ATOM      7  C   UNL     1       2.759  -5.939  -2.828  0.00  0.00    +0.026 A 
ATOM      8  C   UNL     1       4.104  -5.891  -2.521  0.00  0.00    +0.002 A 
ATOM      9  C   UNL     1       4.849  -7.055  -2.485  0.00  0.00    +0.000 A 
ATOM     10  C   UNL     1       4.249  -8.271  -2.755  0.00  0.00    +0.002 A 
ATOM     11  C   UNL     1       2.902  -8.327  -3.057  0.00  0.00    +0.026 A 
ENDBRANCH   5   6
BRANCH   1  12
ATOM     12  C   UNL     1      -0.167  -6.398  -1.172  0.00  0.00    +0.172 C 
BRANCH  12  14
ATOM     13  N   UNL     1       0.011  -4.231   0.009  0.00  0.00    -0.285 N 
ATOM     14  C   UNL     1      -0.082  -4.893  -1.161  0.00  0.00    +0.225 C 
ATOM     15  O   UNL     1      -0.096  -4.278  -2.206  0.00  0.00    -0.275 OA
ATOM     16  H   UNL     1       0.092  -4.725   0.840  0.00  0.00    +0.155 HD
BRANCH  13  21
ATOM     17  C   UNL     1      -0.075   1.441   0.075  0.00  0.00    +0.044 C 
ATOM     18  C   UNL     1      -0.052  -0.066   0.057  0.00  0.00    -0.050 A 
ATOM     19  C   UNL     1       0.555  -0.735  -0.990  0.00  0.00    +0.005 A 
ATOM     20  C   UNL     1       0.577  -2.116  -1.009  0.00  0.00    +0.024 A 
ATOM     21  C   UNL     1      -0.010  -2.833   0.026  0.00  0.00    +0.036 A 
ATOM     22  C   UNL     1      -0.618  -2.158   1.076  0.00  0.00    -0.029 A 
ATOM     23  C   UNL     1      -0.633  -0.777   1.091  0.00  0.00    +0.008 A 
ATOM     24  C   UNL     1      -1.256  -2.932   2.200  0.00  0.00    +0.045 C 
ENDBRANCH  13  21
ENDBRANCH  12  14
ENDBRANCH   1  12
BRANCH   4  25
ATOM     25  S   UNL     1       1.083  -8.138  -6.039  0.00  0.00    -0.073 S 
BRANCH  25  26
ATOM     26  C   UNL     1      -0.239  -8.489  -7.231  0.00  0.00    +0.137 C 
ATOM     27  C   UNL     1      -1.084  -9.660  -6.726  0.00  0.00    +0.029 C 
BRANCH  26  28
ATOM     28  C   UNL     1       0.369  -8.846  -8.563  0.00  0.00    +0.230 C 
ATOM     29  O   UNL     1       1.491  -9.302  -8.615  0.00  0.00    -0.274 OA
ATOM     30  N   UNL     1      -0.336  -8.659  -9.697  0.00  0.00    -0.282 N 
ATOM     31  H   UNL     1      -1.200  -8.220  -9.664  0.00  0.00    +0.155 HD
BRANCH  30  32
ATOM     32  C   UNL     1       0.181  -9.098 -10.923  0.00  0.00    +0.075 A 
ATOM     33  C   UNL     1       1.102 -10.134 -10.959  0.00  0.00    +0.027 A 
ATOM     34  C   UNL     1       1.610 -10.566 -12.169  0.00  0.00    +0.002 A 
ATOM     35  C   UNL     1       1.202  -9.967 -13.347  0.00  0.00    +0.004 A 
ATOM     36  C   UNL     1       0.283  -8.934 -13.320  0.00  0.00    +0.047 A 
ATOM     37  C   UNL     1      -0.235  -8.499 -12.110  0.00  0.00    +0.138 A 
BRANCH  37  38
ATOM     38  O   UNL     1      -1.142  -7.487 -12.082  0.00  0.00    -0.505 OA
ATOM     39  H   UNL     1      -0.748  -6.607 -12.008  0.00  0.00    +0.292 HD
ENDBRANCH  37  38
ENDBRANCH  30  32
ENDBRANCH  26  28
ENDBRANCH  25  26
ENDBRANCH   4  25
TORSDOF 9
