REMARK  Name = ZINC46140952
REMARK  11 active torsions:
REMARK  status: ('A' for Active; 'I' for Inactive)
REMARK    1  A    between atoms: C_1  and  C_2
REMARK    2  A    between atoms: C_2  and  C_4
REMARK    3  A    between atoms: C_2  and  C_27
REMARK    4  A    between atoms: C_4  and  N_5
REMARK    5  A    between atoms: N_5  and  C_6
REMARK    6  A    between atoms: C_6  and  C_7
REMARK    7  A    between atoms: C_7  and  S_8
REMARK    8  A    between atoms: S_8  and  N_11
REMARK    9  A    between atoms: C_17  and  C_19
REMARK   10  A    between atoms: C_24  and  O_25
REMARK   11  A    between atoms: O_25  and  C_26
REMARK                            x       y       z     vdW  Elec       q    Type
REMARK                         _______ _______ _______ _____ _____    ______ ____
ROOT
ATOM      1  N   UNL     1       2.143  -0.076   1.114  0.00  0.00    -0.295 N 
ATOM      2  C   UNL     1       3.070  -0.949   0.671  0.00  0.00    +0.250 C 
ATOM      3  O   UNL     1       4.252  -0.673   0.749  0.00  0.00    -0.270 OA
ENDROOT
BRANCH   2   4
ATOM      4  C   UNL     1       2.651  -2.240   0.092  0.00  0.00    +0.078 A 
ATOM      5  C   UNL     1       1.880  -3.130   0.844  0.00  0.00    +0.017 A 
ATOM      6  C   UNL     1       1.491  -4.334   0.298  0.00  0.00    +0.001 A 
ATOM      7  C   UNL     1       1.861  -4.666  -0.995  0.00  0.00    +0.004 A 
ATOM      8  C   UNL     1       2.622  -3.796  -1.750  0.00  0.00    +0.046 A 
ATOM      9  C   UNL     1       3.018  -2.578  -1.217  0.00  0.00    +0.132 A 
BRANCH   9  10
ATOM     10  O   UNL     1       3.762  -1.720  -1.959  0.00  0.00    -0.494 OA
ATOM     11  C   UNL     1       4.098  -2.132  -3.285  0.00  0.00    +0.277 C 
ENDBRANCH   9  10
ENDBRANCH   2   4
BRANCH   1  12
ATOM     12  C   UNL     1       0.727  -0.450   1.115  0.00  0.00    +0.116 C 
BRANCH  12  14
ATOM     13  C   UNL     1       0.150   1.320  -0.551  0.00  0.00    +0.014 C 
ATOM     14  C   UNL     1       0.128  -0.183  -0.267  0.00  0.00    +0.033 C 
BRANCH  14  15
ATOM     15  C   UNL     1      -1.294  -0.680  -0.303  0.00  0.00    -0.043 A 
ATOM     16  C   UNL     1      -2.231  -0.157   0.569  0.00  0.00    +0.004 A 
ATOM     17  C   UNL     1      -3.536  -0.613   0.536  0.00  0.00    +0.000 A 
ATOM     18  C   UNL     1      -3.904  -1.592  -0.368  0.00  0.00    +0.000 A 
ATOM     19  C   UNL     1      -2.967  -2.114  -1.240  0.00  0.00    +0.000 A 
ATOM     20  C   UNL     1      -1.663  -1.655  -1.211  0.00  0.00    +0.004 A 
ENDBRANCH  14  15
ENDBRANCH  12  14
ENDBRANCH   1  12
BRANCH   1  21
ATOM     21  C   UNL     1       2.553   1.246   1.593  0.00  0.00    +0.132 C 
BRANCH  21  22
ATOM     22  C   UNL     1       2.836   1.178   3.096  0.00  0.00    +0.204 C 
BRANCH  22  23
ATOM     23  S   UNL     1       3.343   2.815   3.690  0.00  0.00    +0.033 S 
ATOM     24  O   UNL     1       4.610   3.162   3.148  0.00  0.00    -0.158 OA
ATOM     25  O   UNL     1       2.252   3.722   3.617  0.00  0.00    -0.158 OA
BRANCH  23  26
ATOM     26  N   UNL     1       3.618   2.613   5.310  0.00  0.00    -0.185 NA
ATOM     27  C   UNL     1       2.537   2.801   6.290  0.00  0.00    +0.090 C 
ATOM     28  C   UNL     1       2.497   1.577   7.211  0.00  0.00    -0.065 C 
ATOM     29  N   UNL     1       3.824   1.370   7.805  0.00  0.00    +0.381 N 
ATOM     30  C   UNL     1       4.797   1.043   6.754  0.00  0.00    -0.065 C 
ATOM     31  C   UNL     1       4.949   2.235   5.811  0.00  0.00    +0.090 C 
ATOM     32  H   UNL     1       4.114   2.212   8.280  0.00  0.00    -0.086 HD
ATOM     33  H   UNL     1       3.779   0.611   8.468  0.00  0.00    -0.086 HD
ENDBRANCH  23  26
ENDBRANCH  22  23
ENDBRANCH  21  22
ENDBRANCH   1  21
TORSDOF 9
