REMARK  Name = ZINC14899422
REMARK  9 active torsions:
REMARK  status: ('A' for Active; 'I' for Inactive)
REMARK    1  A    between atoms: C_1  and  C_2
REMARK    2  A    between atoms: C_2  and  C_3
REMARK    3  A    between atoms: C_3  and  C_4
REMARK    4  A    between atoms: C_4  and  C_5
REMARK    5  A    between atoms: C_5  and  C_6
REMARK    6  A    between atoms: C_12  and  C_14
REMARK    7  A    between atoms: C_16  and  C_25
REMARK    8  A    between atoms: C_20  and  C_24
REMARK    9  A    between atoms: N_22  and  C_23
REMARK                            x       y       z     vdW  Elec       q    Type
REMARK                         _______ _______ _______ _____ _____    ______ ____
ROOT
ATOM      1  C   UNL     1       0.452  -4.395  -0.504  0.00  0.00    +0.052 A 
ATOM      2  C   UNL     1       1.704  -4.925  -0.791  0.00  0.00    +0.045 A 
ATOM      3  C   UNL     1       1.900  -6.309  -0.693  0.00  0.00    +0.109 A 
ATOM      4  N   UNL     1       0.915  -7.122  -0.341  0.00  0.00    -0.224 NA
ATOM      5  C   UNL     1      -0.298  -6.670  -0.062  0.00  0.00    +0.160 A 
ATOM      6  C   UNL     1      -0.579  -5.290  -0.131  0.00  0.00    +0.054 A 
ATOM      7  C   UNL     1      -1.935  -5.123   0.217  0.00  0.00    +0.070 A 
ATOM      8  N   UNL     1      -2.444  -6.294   0.478  0.00  0.00    -0.174 NA
ATOM      9  N   UNL     1      -1.465  -7.282   0.318  0.00  0.00    -0.249 N 
ATOM     10  C   UNL     1      -1.655  -8.720   0.520  0.00  0.00    +0.174 C 
ATOM     11  C   UNL     1      -2.672  -3.811   0.279  0.00  0.00    +0.068 C 
ENDROOT
BRANCH   1  18
ATOM     12  C   UNL     1       0.805   1.958  -0.275  0.00  0.00    +0.104 A 
ATOM     13  N   UNL     1      -0.196   1.217  -0.706  0.00  0.00    -0.145 NA
ATOM     14  N   UNL     1      -0.150  -0.043  -0.702  0.00  0.00    -0.126 NA
ATOM     15  C   UNL     1       0.914  -0.702  -0.263  0.00  0.00    +0.188 A 
ATOM     16  S   UNL     1       1.962   0.675   0.196  0.00  0.00    -0.035 S 
ATOM     17  N   UNL     1       1.148  -2.070  -0.181  0.00  0.00    -0.259 N 
ATOM     18  C   UNL     1       0.203  -2.940  -0.590  0.00  0.00    +0.251 C 
ATOM     19  O   UNL     1      -0.853  -2.529  -1.029  0.00  0.00    -0.270 OA
ATOM     20  H   UNL     1       1.990  -2.397   0.169  0.00  0.00    +0.157 HD
BRANCH  12  21
ATOM     21  C   UNL     1       0.939   3.457  -0.201  0.00  0.00    +0.065 C 
BRANCH  21  22
ATOM     22  C   UNL     1       0.424   3.949   1.154  0.00  0.00    +0.007 C 
BRANCH  22  23
ATOM     23  C   UNL     1       0.560   5.471   1.230  0.00  0.00    +0.000 C 
BRANCH  23  25
ATOM     24  C   UNL     1       0.181   7.484   2.660  0.00  0.00    +0.004 C 
ATOM     25  C   UNL     1       0.045   5.962   2.584  0.00  0.00    -0.003 C 
ENDBRANCH  23  25
ENDBRANCH  22  23
ENDBRANCH  21  22
ENDBRANCH  12  21
ENDBRANCH   1  18
BRANCH   3  26
ATOM     26  C   UNL     1       3.231  -6.873  -0.992  0.00  0.00    +0.153 A 
ATOM     27  C   UNL     1       3.570  -8.190  -0.939  0.00  0.00    +0.051 A 
ATOM     28  C   UNL     1       4.928  -8.273  -1.302  0.00  0.00    +0.042 A 
ATOM     29  C   UNL     1       5.350  -7.016  -1.548  0.00  0.00    +0.196 A 
ATOM     30  O   UNL     1       4.322  -6.173  -1.359  0.00  0.00    -0.461 OA
ENDBRANCH   3  26
TORSDOF 6
