REMARK  Name = ZINC03895629
REMARK  4 active torsions:
REMARK  status: ('A' for Active; 'I' for Inactive)
REMARK    1  A    between atoms: CB_1  and  CA_2
REMARK    2  A    between atoms: CA_2  and  C_4
REMARK    3  A    between atoms: CA_2  and  N_6
REMARK    4  A    between atoms: N_9  and  C_10
REMARK                            x       y       z     vdW  Elec       q    Type
REMARK                         _______ _______ _______ _____ _____    ______ ____
ROOT
ATOM      1  N   ALA A   1      -6.368   0.892   1.079  0.00  0.00    -0.286 N 
ATOM      2  C   UNK A   0      -5.103   1.358   1.069  0.00  0.00    +0.301 C 
ATOM      3  O   UNK A   0      -4.706   2.058   1.981  0.00  0.00    -0.253 OA
ATOM      4  N   UNK A   0      -4.279   1.049   0.049  0.00  0.00    -0.294 N 
ATOM      5  H   ALA A   1      -6.684   0.334   0.351  0.00  0.00    +0.151 HD
ATOM      6  H   UNK A   0      -4.595   0.491  -0.679  0.00  0.00    +0.151 HD
ENDROOT
BRANCH   4   7
ATOM      7  C   UNK A   0      -2.904   1.556   0.038  0.00  0.00    +0.037 C 
ATOM      8  C   UNK A   0      -2.188   1.063  -1.221  0.00  0.00    +0.029 C 
ATOM      9  C   UNK A   0      -0.753   1.593  -1.232  0.00  0.00    -0.008 C 
ATOM     10  C   UNK A   0      -0.013   1.086   0.008  0.00  0.00    +0.007 C 
ATOM     11  C   UNK A   0      -0.729   1.579   1.267  0.00  0.00    -0.008 C 
ATOM     12  C   UNK A   0      -2.164   1.050   1.278  0.00  0.00    +0.029 C 
ATOM     13  C   UNK A   0      -0.750   3.109   1.275  0.00  0.00    +0.007 C 
ATOM     14  C   UNK A   0      -1.490   3.616   0.036  0.00  0.00    -0.008 C 
ATOM     15  C   UNK A   0      -0.773   3.123  -1.223  0.00  0.00    +0.007 C 
ATOM     16  C   UNK A   0      -2.925   3.086   0.047  0.00  0.00    +0.029 C 
ENDBRANCH   4   7
BRANCH   1  18
ATOM     17  CB  ALA A   1      -7.922   2.583   1.920  0.00  0.00    +0.040 C 
ATOM     18  CA  ALA A   1      -7.264   1.227   2.188  0.00  0.00    +0.184 C 
BRANCH  18  19
ATOM     19  C   ALA A   1      -8.328   0.168   2.312  0.00  0.00    +0.376 C 
ATOM     20  O   ALA A   1      -8.338  -0.771   1.551  0.00  0.00    -0.244 OA
ATOM     21  OXT ALA A   1      -9.267   0.268   3.267  0.00  0.00    -0.244 OA
ENDBRANCH  18  19
ENDBRANCH   1  18
TORSDOF 3
