REMARK  Name = ZINC29547577
REMARK  9 active torsions:
REMARK  status: ('A' for Active; 'I' for Inactive)
REMARK    1  A    between atoms: C_1  and  C_2
REMARK    2  A    between atoms: C_2  and  C_3
REMARK    3  A    between atoms: C_2  and  C_4
REMARK    4  A    between atoms: C_2  and  N_5
REMARK    5  A    between atoms: C_6  and  S_8
REMARK    6  A    between atoms: S_8  and  C_9
REMARK    7  A    between atoms: C_9  and  C_10
REMARK    8  A    between atoms: C_14  and  C_23
REMARK    9  A    between atoms: N_25  and  C_26
REMARK                            x       y       z     vdW  Elec       q    Type
REMARK                         _______ _______ _______ _____ _____    ______ ____
ROOT
ATOM      1  C   UNL     1      -0.019   1.062   0.479  0.00  0.00    +0.230 C 
ATOM      2  O   UNL     1      -1.086   1.630   0.383  0.00  0.00    -0.274 OA
ATOM      3  N   UNL     1       1.102   1.770   0.719  0.00  0.00    -0.264 N 
ATOM      4  C   UNL     1       2.389   1.099   0.968  0.00  0.00    +0.168 C 
ATOM      5  C   UNL     1       3.084   1.839   2.120  0.00  0.00    +0.276 C 
ATOM      6  O   UNL     1       3.252   3.210   1.752  0.00  0.00    -0.476 OA
ATOM      7  C   UNL     1       2.170   3.872   1.265  0.00  0.00    +0.143 A 
ATOM      8  C   UNL     1       1.085   3.176   0.736  0.00  0.00    +0.078 A 
ATOM      9  C   UNL     1      -0.011   3.864   0.245  0.00  0.00    +0.027 A 
ATOM     10  C   UNL     1      -0.025   5.247   0.271  0.00  0.00    +0.002 A 
ATOM     11  C   UNL     1       1.051   5.941   0.793  0.00  0.00    +0.004 A 
ATOM     12  C   UNL     1       2.146   5.258   1.289  0.00  0.00    +0.047 A 
ENDROOT
BRANCH   5  13
ATOM     13  C   UNL     1       4.431   1.216   2.380  0.00  0.00    +0.255 C 
ATOM     14  O   UNL     1       5.443   1.857   2.187  0.00  0.00    -0.272 OA
ATOM     15  N   UNL     1       4.513  -0.052   2.828  0.00  0.00    -0.315 N 
ATOM     16  C   UNL     1       5.823  -0.657   3.081  0.00  0.00    +0.128 C 
ATOM     17  H   UNL     1       3.595  -0.633   3.003  0.00  0.00    +0.148 HD
ENDBRANCH   5  13
BRANCH   1  18
ATOM     18  C   UNL     1       0.053  -0.436   0.335  0.00  0.00    +0.173 C 
BRANCH  18  19
ATOM     19  S   UNL     1      -1.578  -1.077  -0.118  0.00  0.00    -0.084 S 
BRANCH  19  21
ATOM     20  N   UNL     1      -0.004  -3.224   0.022  0.00  0.00    -0.363 N 
ATOM     21  C   UNL     1      -1.214  -2.798  -0.217  0.00  0.00    +0.126 C 
ATOM     22  N   UNL     1      -2.205  -3.694  -0.547  0.00  0.00    -0.339 N 
ATOM     23  H   UNL     1      -3.225  -3.335  -0.749  0.00  0.00    +0.144 HD
ATOM     24  H   UNL     1      -1.977  -4.768  -0.609  0.00  0.00    +0.144 HD
ATOM     25  H   UNL     1       0.783  -2.510   0.308  0.00  0.00    +0.162 HD
BRANCH  20  27
ATOM     26  C   UNL     1       0.040  -5.120  -1.522  0.00  0.00    +0.033 C 
ATOM     27  C   UNL     1       0.306  -4.651  -0.090  0.00  0.00    +0.032 C 
ATOM     28  C   UNL     1       1.778  -4.882   0.257  0.00  0.00    +0.033 C 
ATOM     29  C   UNL     1      -0.576  -5.442   0.878  0.00  0.00    +0.033 C 
ENDBRANCH  20  27
ENDBRANCH  19  21
ENDBRANCH  18  19
ENDBRANCH   1  18
TORSDOF 5
