REMARK  Name = ZINC21495645
REMARK  9 active torsions:
REMARK  status: ('A' for Active; 'I' for Inactive)
REMARK    1  A    between atoms: C_1  and  C_2
REMARK    2  A    between atoms: C_2  and  C_3
REMARK    3  A    between atoms: C_3  and  C_4
REMARK    4  A    between atoms: C_3  and  C_5
REMARK    5  A    between atoms: C_3  and  C_6
REMARK    6  A    between atoms: N_14  and  C_18
REMARK    7  A    between atoms: C_18  and  C_19
REMARK    8  A    between atoms: C_24  and  C_27
REMARK    9  A    between atoms: C_27  and  C_28
REMARK                            x       y       z     vdW  Elec       q    Type
REMARK                         _______ _______ _______ _____ _____    ______ ____
ROOT
ATOM      1  C   UNL     1       0.739  -2.027  -1.265  0.00  0.00    -0.005 C 
ATOM      2  C   UNL     1       1.478  -2.534  -0.025  0.00  0.00    +0.006 C 
ATOM      3  C   UNL     1       1.488  -4.065  -0.028  0.00  0.00    +0.035 C 
ATOM      4  C   UNL     1       2.176  -4.569  -1.292  0.00  0.00    +0.113 C 
ATOM      5  C   UNL     1       1.465  -4.051  -2.538  0.00  0.00    +0.035 C 
ATOM      6  C   UNL     1       1.455  -2.521  -2.524  0.00  0.00    +0.006 C 
ATOM      7  C   UNL     1       2.220  -6.080  -1.301  0.00  0.00    +0.247 C 
ATOM      8  O   UNL     1       1.276  -6.842  -1.296  0.00  0.00    -0.273 OA
ATOM      9  N   UNL     1       3.530  -6.402  -1.315  0.00  0.00    -0.215 N 
ATOM     10  C   UNL     1       4.306  -5.312  -1.316  0.00  0.00    +0.310 C 
ATOM     11  O   UNL     1       5.521  -5.347  -1.328  0.00  0.00    -0.252 OA
ATOM     12  N   UNL     1       3.589  -4.171  -1.303  0.00  0.00    -0.285 N 
ATOM     13  H   UNL     1       3.861  -3.105  -1.300  0.00  0.00    +0.151 HD
ENDROOT
BRANCH   1  14
ATOM     14  C   UNL     1       0.718  -0.497  -1.257  0.00  0.00    -0.032 C 
ATOM     15  C   UNL     1      -0.022   0.009  -2.496  0.00  0.00    +0.011 C 
ATOM     16  C   UNL     1       2.154   0.032  -1.268  0.00  0.00    +0.011 C 
BRANCH  14  18
ATOM     17  C   UNL     1      -0.019   1.526   0.010  0.00  0.00    +0.004 C 
ATOM     18  C   UNL     1       0.002  -0.004   0.002  0.00  0.00    +0.003 C 
ENDBRANCH  14  18
ENDBRANCH   1  14
BRANCH   9  19
ATOM     19  C   UNL     1       4.039  -7.776  -1.327  0.00  0.00    +0.214 C 
BRANCH  19  20
ATOM     20  C   UNL     1       4.201  -8.239  -2.752  0.00  0.00    +0.237 C 
ATOM     21  O   UNL     1       3.918  -7.495  -3.667  0.00  0.00    -0.274 OA
ATOM     22  N   UNL     1       4.660  -9.480  -3.009  0.00  0.00    -0.263 N 
ATOM     23  C   UNL     1       4.809  -9.907  -4.324  0.00  0.00    +0.165 A 
ATOM     24  N   UNL     1       5.242 -11.069  -4.773  0.00  0.00    -0.229 NA
ATOM     25  C   UNL     1       5.318 -11.315  -6.066  0.00  0.00    +0.059 A 
ATOM     26  C   UNL     1       4.950 -10.340  -6.933  0.00  0.00    +0.072 A 
ATOM     27  S   UNL     1       4.479  -9.046  -5.795  0.00  0.00    -0.060 S 
ATOM     28  H   UNL     1       4.916 -10.154  -2.179  0.00  0.00    +0.157 HD
BRANCH  25  29
ATOM     29  C   UNL     1       5.809 -12.649  -6.569  0.00  0.00    +0.151 C 
BRANCH  29  30
ATOM     30  C   UNL     1       7.163 -12.941  -5.976  0.00  0.00    +0.216 C 
ATOM     31  O   UNL     1       7.679 -12.146  -5.220  0.00  0.00    -0.276 OA
ATOM     32  N   UNL     1       7.801 -14.087  -6.287  0.00  0.00    -0.329 N 
ATOM     33  H   UNL     1       8.790 -14.301  -5.854  0.00  0.00    +0.145 HD
ATOM     34  H   UNL     1       7.333 -14.809  -6.973  0.00  0.00    +0.145 HD
ENDBRANCH  29  30
ENDBRANCH  25  29
ENDBRANCH  19  20
ENDBRANCH   9  19
TORSDOF 6
