REMARK  Name = ZINC31054881
REMARK  9 active torsions:
REMARK  status: ('A' for Active; 'I' for Inactive)
REMARK    1  A    between atoms: C_3  and  C_6
REMARK    2  A    between atoms: C_6  and  S_7
REMARK    3  A    between atoms: S_7  and  C_8
REMARK    4  A    between atoms: C_8  and  C_9
REMARK    5  A    between atoms: C_9  and  N_10
REMARK    6  A    between atoms: C_11  and  C_13
REMARK    7  A    between atoms: N_18  and  C_20
REMARK    8  A    between atoms: C_20  and  C_21
REMARK    9  A    between atoms: C_23  and  C_26
REMARK                            x       y       z     vdW  Elec       q    Type
REMARK                         _______ _______ _______ _____ _____    ______ ____
ROOT
ATOM      1  C   UNL     1      -3.414   3.312  -2.850  0.00  0.00    +0.058 C 
ATOM      2  C   UNL     1      -2.387   4.153  -3.612  0.00  0.00    +0.009 C 
ATOM      3  C   UNL     1      -1.016   3.478  -3.518  0.00  0.00    -0.018 C 
ATOM      4  C   UNL     1      -0.632   3.316  -2.046  0.00  0.00    -0.078 C 
ATOM      5  N   UNL     1      -1.645   2.503  -1.361  0.00  0.00    +0.386 N 
ATOM      6  C   UNL     1      -2.961   3.155  -1.397  0.00  0.00    -0.065 C 
ATOM      7  H   UNL     1      -1.729   1.548  -1.900  0.00  0.00    -0.081 HD
ENDROOT
BRANCH   1   9
ATOM      8  N   UNL     1      -5.353   4.245  -4.070  0.00  0.00    -0.314 N 
ATOM      9  C   UNL     1      -4.755   3.999  -2.888  0.00  0.00    +0.214 C 
ATOM     10  O   UNL     1      -5.295   4.331  -1.854  0.00  0.00    -0.276 OA
ATOM     11  H   UNL     1      -4.863   3.944  -5.008  0.00  0.00    +0.149 HD
BRANCH   8  12
ATOM     12  C   UNL     1      -6.657   4.914  -4.106  0.00  0.00    +0.115 C 
BRANCH  12  13
ATOM     13  C   UNL     1      -7.109   5.071  -5.560  0.00  0.00    +0.088 C 
BRANCH  13  14
ATOM     14  S   UNL     1      -8.723   5.898  -5.605  0.00  0.00    -0.151 S 
BRANCH  14  15
ATOM     15  C   UNL     1      -9.111   6.006  -7.373  0.00  0.00    +0.143 C 
BRANCH  15  18
ATOM     16  C   UNL     1     -12.037   8.198  -7.838  0.00  0.00    +0.041 A 
ATOM     17  C   UNL     1     -10.643   8.005  -7.699  0.00  0.00    +0.045 A 
ATOM     18  C   UNL     1     -10.446   6.683  -7.554  0.00  0.00    +0.115 A 
ATOM     19  O   UNL     1     -11.638   6.067  -7.603  0.00  0.00    -0.467 OA
ATOM     20  C   UNL     1     -12.608   6.982  -7.769  0.00  0.00    +0.195 A 
ENDBRANCH  15  18
ENDBRANCH  14  15
ENDBRANCH  13  14
ENDBRANCH  12  13
ENDBRANCH   8  12
ENDBRANCH   1   9
BRANCH   5  21
ATOM     21  C   UNL     1      -1.240   2.211   0.020  0.00  0.00    +0.022 C 
BRANCH  21  22
ATOM     22  C   UNL     1      -0.016   1.333   0.009  0.00  0.00    +0.211 A 
ATOM     23  N   UNL     1       1.230   1.735  -0.000  0.00  0.00    -0.193 NA
ATOM     24  C   UNL     1       1.976   0.607  -0.013  0.00  0.00    +0.203 A 
ATOM     25  N   UNL     1       1.147  -0.404  -0.011  0.00  0.00    -0.056 NA
ATOM     26  O   UNL     1       0.002  -0.004   0.002  0.00  0.00    -0.340 OA
BRANCH  24  27
ATOM     27  C   UNL     1       3.458   0.532  -0.028  0.00  0.00    +0.041 A 
ATOM     28  C   UNL     1       4.095  -0.708  -0.040  0.00  0.00    +0.014 A 
ATOM     29  C   UNL     1       5.473  -0.773  -0.054  0.00  0.00    +0.021 A 
ATOM     30  C   UNL     1       6.224   0.390  -0.056  0.00  0.00    +0.042 A 
ATOM     31  C   UNL     1       5.598   1.624  -0.043  0.00  0.00    +0.040 A 
ATOM     32  C   UNL     1       4.218   1.700  -0.035  0.00  0.00    +0.053 A 
ATOM     33 CL   UNL     1       3.433   3.249  -0.028  0.00  0.00    -0.083 Cl
ATOM     34 CL   UNL     1       7.957   0.300  -0.073  0.00  0.00    -0.083 Cl
ENDBRANCH  24  27
ENDBRANCH  21  22
ENDBRANCH   5  21
TORSDOF 9
