REMARK  Name = ZINC44552128
REMARK  7 active torsions:
REMARK  status: ('A' for Active; 'I' for Inactive)
REMARK    1  A    between atoms: C_1  and  C_2
REMARK    2  A    between atoms: C_2  and  O_3
REMARK    3  A    between atoms: O_3  and  C_4
REMARK    4  A    between atoms: C_16  and  C_18
REMARK    5  A    between atoms: N_19  and  N_20
REMARK    6  A    between atoms: N_20  and  C_21
REMARK    7  A    between atoms: C_21  and  N_23
REMARK                            x       y       z     vdW  Elec       q    Type
REMARK                         _______ _______ _______ _____ _____    ______ ____
ROOT
ATOM      1  C   UNL     1      -7.845  -7.189  -1.125  0.00  0.00    +0.134 C 
ATOM      2  N   UNL     1      -9.045  -7.697  -1.120  0.00  0.00    -0.291 N 
ATOM      3  N   UNL     1      -6.734  -8.027  -1.125  0.00  0.00    -0.342 N 
ATOM      4  H   UNL     1      -5.841  -7.648  -1.129  0.00  0.00    +0.144 HD
ATOM      5  H   UNL     1      -6.853  -8.989  -1.121  0.00  0.00    +0.144 HD
ATOM      6  H   UNL     1      -9.819  -7.113  -1.121  0.00  0.00    +0.186 HD
ENDROOT
BRANCH   1  19
ATOM      7  C   UNL     1      -1.505  -1.829   0.034  0.00  0.00    +0.403 C 
ATOM      8  O   UNL     1      -0.531  -2.555   0.028  0.00  0.00    -0.226 OA
ATOM      9  N   UNL     1      -2.743  -2.361   0.038  0.00  0.00    -0.264 N 
ATOM     10  C   UNL     1      -3.930  -1.494   0.040  0.00  0.00    +0.130 C 
ATOM     11  C   UNL     1      -4.818  -1.877  -1.151  0.00  0.00    +0.125 C 
ATOM     12  N   UNL     1      -5.005  -3.335  -1.147  0.00  0.00    -0.311 N 
ATOM     13  C   UNL     1      -3.818  -4.202  -1.148  0.00  0.00    +0.125 C 
ATOM     14  C   UNL     1      -2.931  -3.819   0.037  0.00  0.00    +0.130 C 
ATOM     15  C   UNL     1      -6.282  -3.884  -1.142  0.00  0.00    +0.140 A 
ATOM     16  C   UNL     1      -7.400  -3.051  -1.142  0.00  0.00    +0.154 A 
ATOM     17  N   UNL     1      -8.614  -3.569  -1.137  0.00  0.00    -0.258 NA
ATOM     18  C   UNL     1      -8.777  -4.880  -1.133  0.00  0.00    +0.142 A 
ATOM     19  C   UNL     1      -7.664  -5.722  -1.132  0.00  0.00    +0.123 A 
ATOM     20  N   UNL     1      -6.438  -5.200  -1.142  0.00  0.00    -0.226 NA
BRANCH   7  21
ATOM     21  O   UNL     1      -1.347  -0.491   0.035  0.00  0.00    -0.451 OA
BRANCH  21  23
ATOM     22  C   UNL     1      -0.028   1.534   0.032  0.00  0.00    +0.048 C 
ATOM     23  C   UNL     1      -0.007   0.004   0.029  0.00  0.00    +0.230 C 
ENDBRANCH  21  23
ENDBRANCH   7  21
ENDBRANCH   1  19
BRANCH   2  24
ATOM     24  N   UNL     1      -9.216  -9.088  -1.114  0.00  0.00    -0.240 N 
ATOM     25  H   UNL     1      -8.445  -9.671  -1.040  0.00  0.00    +0.174 HD
BRANCH  24  26
ATOM     26  C   UNL     1     -10.453  -9.614  -1.211  0.00  0.00    +0.151 C 
ATOM     27  S   UNL     1     -11.801  -8.592  -1.471  0.00  0.00    -0.017 S 
BRANCH  26  28
ATOM     28  N   UNL     1     -10.628 -10.946  -1.105  0.00  0.00    -0.307 N 
ATOM     29  C   UNL     1     -11.974 -11.543  -1.098  0.00  0.00    +0.112 C 
ATOM     30  C   UNL     1     -12.105 -12.420  -2.343  0.00  0.00    +0.054 C 
ATOM     31  C   UNL     1     -10.901 -13.310  -2.501  0.00  0.00    -0.041 A 
ATOM     32  C   UNL     1     -11.035 -14.440  -3.300  0.00  0.00    +0.004 A 
ATOM     33  C   UNL     1      -9.969 -15.293  -3.494  0.00  0.00    +0.000 A 
ATOM     34  C   UNL     1      -8.754 -15.023  -2.891  0.00  0.00    +0.000 A 
ATOM     35  C   UNL     1      -8.619 -13.905  -2.094  0.00  0.00    +0.005 A 
ATOM     36  C   UNL     1      -9.694 -13.049  -1.893  0.00  0.00    -0.027 A 
ATOM     37  C   UNL     1      -9.485 -11.860  -0.996  0.00  0.00    +0.142 C 
ENDBRANCH  26  28
ENDBRANCH  24  26
ENDBRANCH   2  24
TORSDOF 6
