REMARK  Name = ZINC03840835
REMARK  12 active torsions:
REMARK  status: ('A' for Active; 'I' for Inactive)
REMARK    1  A    between atoms: C_1  and  C_2
REMARK    2  A    between atoms: C_5  and  S_8
REMARK    3  A    between atoms: S_8  and  N_11
REMARK    4  A    between atoms: C_18  and  C_41
REMARK    5  A    between atoms: C_21  and  C_31
REMARK    6  A    between atoms: C_23  and  O_30
REMARK    7  A    between atoms: C_27  and  C_29
REMARK    8  A    between atoms: C_31  and  C_33
REMARK    9  A    between atoms: C_31  and  C_34
REMARK   10  A    between atoms: N_36  and  C_37
REMARK   11  A    between atoms: N_36  and  C_38
REMARK   12  A    between atoms: C_38  and  C_39
REMARK                            x       y       z     vdW  Elec       q    Type
REMARK                         _______ _______ _______ _____ _____    ______ ____
ROOT
ATOM      1  N   UNL     1       2.009   4.526   2.190  0.00  0.00    -0.194 N 
ATOM      2  C   UNL     1       0.782   4.182   2.737  0.00  0.00    +0.178 A 
ATOM      3  N   UNL     1       0.495   3.214   3.583  0.00  0.00    -0.228 NA
ATOM      4  C   UNL     1      -0.744   3.002   4.024  0.00  0.00    +0.057 A 
ATOM      5  C   UNL     1      -1.696   3.847   3.553  0.00  0.00    +0.015 A 
ATOM      6  S   UNL     1      -0.771   4.921   2.489  0.00  0.00    -0.056 S 
ATOM      7  C   UNL     1      -3.149   3.849   3.873  0.00  0.00    +0.051 C 
ATOM      8  C   UNL     1      -3.515   2.517   4.556  0.00  0.00    -0.022 C 
ATOM      9  C   UNL     1      -4.899   2.699   5.187  0.00  0.00    +0.008 C 
ATOM     10  C   UNL     1      -5.298   1.444   5.962  0.00  0.00    +0.007 C 
ATOM     11  C   UNL     1      -4.274   1.208   7.077  0.00  0.00    +0.029 C 
ATOM     12  C   UNL     1      -2.903   0.980   6.444  0.00  0.00    +0.123 C 
ATOM     13  C   UNL     1      -2.477   2.211   5.638  0.00  0.00    +0.033 C 
ATOM     14  C   UNL     1      -1.121   1.893   4.994  0.00  0.00    +0.042 C 
ATOM     15  C   UNL     1      -0.053   1.784   6.084  0.00  0.00    +0.014 C 
ATOM     16  C   UNL     1      -3.557   1.392   3.520  0.00  0.00    +0.012 C 
ATOM     17  H   UNL     1       2.803   4.021   2.425  0.00  0.00    +0.176 HD
ENDROOT
BRANCH   1  18
ATOM     18  S   UNL     1       2.118   5.799   1.137  0.00  0.00    +0.074 S 
ATOM     19  O   UNL     1       1.091   5.616   0.171  0.00  0.00    -0.150 OA
ATOM     20  O   UNL     1       3.488   5.914   0.779  0.00  0.00    -0.150 OA
BRANCH  18  25
ATOM     21  C   UNL     1       0.715  10.792   4.221  0.00  0.00    +0.044 C 
ATOM     22  C   UNL     1       1.065   9.545   3.450  0.00  0.00    -0.050 A 
ATOM     23  C   UNL     1       2.378   9.116   3.389  0.00  0.00    +0.005 A 
ATOM     24  C   UNL     1       2.699   7.972   2.683  0.00  0.00    +0.029 A 
ATOM     25  C   UNL     1       1.708   7.257   2.038  0.00  0.00    +0.109 A 
ATOM     26  C   UNL     1       0.396   7.689   2.094  0.00  0.00    +0.029 A 
ATOM     27  C   UNL     1       0.074   8.830   2.805  0.00  0.00    +0.005 A 
ENDBRANCH  18  25
ENDBRANCH   1  18
BRANCH  12  28
ATOM     28  O   UNL     1      -1.943   0.734   7.473  0.00  0.00    -0.391 OA
ATOM     29  H   UNL     1      -2.140  -0.041   8.018  0.00  0.00    +0.210 HD
ENDBRANCH  12  28
BRANCH  11  30
ATOM     30  C   UNL     1      -4.220   2.433   7.992  0.00  0.00    +0.078 C 
ATOM     31  C   UNL     1      -3.307   2.139   9.184  0.00  0.00    +0.017 C 
BRANCH  30  32
ATOM     32  C   UNL     1      -5.607   2.751   8.488  0.00  0.00    +0.219 C 
ATOM     33  O   UNL     1      -6.445   1.876   8.549  0.00  0.00    -0.275 OA
ATOM     34  N   UNL     1      -5.917   4.007   8.865  0.00  0.00    -0.301 N 
ATOM     35  C   UNL     1      -4.883   5.045   8.874  0.00  0.00    +0.132 C 
BRANCH  34  36
ATOM     36  C   UNL     1      -7.287   4.335   9.266  0.00  0.00    +0.134 C 
BRANCH  36  37
ATOM     37  C   UNL     1      -7.441   4.122  10.750  0.00  0.00    -0.016 C 
ATOM     38  C   UNL     1      -7.875   5.096  11.510  0.00  0.00    +0.005 C 
ENDBRANCH  36  37
ENDBRANCH  34  36
ENDBRANCH  30  32
ENDBRANCH  11  30
TORSDOF 7
