REMARK  Name = ZINC40985799
REMARK  9 active torsions:
REMARK  status: ('A' for Active; 'I' for Inactive)
REMARK    1  A    between atoms: C_1  and  C_2
REMARK    2  A    between atoms: C_5  and  C_8
REMARK    3  A    between atoms: C_8  and  S_9
REMARK    4  A    between atoms: S_9  and  C_10
REMARK    5  A    between atoms: C_13  and  C_17
REMARK    6  A    between atoms: N_19  and  C_20
REMARK    7  A    between atoms: C_20  and  C_21
REMARK    8  A    between atoms: C_21  and  C_23
REMARK    9  A    between atoms: C_21  and  N_28
REMARK                            x       y       z     vdW  Elec       q    Type
REMARK                         _______ _______ _______ _____ _____    ______ ____
ROOT
ATOM      1  C   UNL     1       1.249 -10.712   0.040  0.00  0.00    +0.248 C 
ATOM      2  O   UNL     1       2.252 -11.382   0.191  0.00  0.00    -0.270 OA
ATOM      3  N   UNL     1       0.044 -11.311  -0.035  0.00  0.00    -0.312 N 
ATOM      4  H   UNL     1      -0.757 -10.776  -0.155  0.00  0.00    +0.149 HD
ENDROOT
BRANCH   1   8
ATOM      5  C   UNL     1       1.536  -6.574  -0.242  0.00  0.00    +0.190 A 
ATOM      6  N   UNL     1       0.340  -7.145  -0.319  0.00  0.00    -0.229 NA
ATOM      7  C   UNL     1       0.206  -8.455  -0.234  0.00  0.00    +0.129 A 
ATOM      8  C   UNL     1       1.351  -9.245  -0.060  0.00  0.00    +0.092 A 
ATOM      9  C   UNL     1       2.596  -8.602   0.016  0.00  0.00    +0.146 A 
ATOM     10  N   UNL     1       2.644  -7.286  -0.084  0.00  0.00    -0.209 NA
ATOM     11 CL   UNL     1       4.051  -9.524   0.231  0.00  0.00    -0.061 Cl
BRANCH   5  12
ATOM     12  S   UNL     1       1.656  -4.820  -0.362  0.00  0.00    -0.081 S 
BRANCH  12  13
ATOM     13  C   UNL     1      -0.062  -4.276  -0.566  0.00  0.00    +0.112 C 
BRANCH  13  18
ATOM     14  C   UNL     1      -0.222   1.484  -1.011  0.00  0.00    +0.044 C 
ATOM     15  C   UNL     1      -0.180  -0.018  -0.895  0.00  0.00    -0.050 A 
ATOM     16  C   UNL     1      -0.047  -0.796  -2.030  0.00  0.00    +0.003 A 
ATOM     17  C   UNL     1      -0.009  -2.174  -1.924  0.00  0.00    +0.005 A 
ATOM     18  C   UNL     1      -0.103  -2.774  -0.682  0.00  0.00    -0.037 A 
ATOM     19  C   UNL     1      -0.235  -1.996   0.453  0.00  0.00    +0.005 A 
ATOM     20  C   UNL     1      -0.269  -0.618   0.347  0.00  0.00    +0.003 A 
ENDBRANCH  13  18
ENDBRANCH  12  13
ENDBRANCH   5  12
ENDBRANCH   1   8
BRANCH   3  21
ATOM     21  C   UNL     1      -0.058 -12.769   0.065  0.00  0.00    +0.097 C 
BRANCH  21  22
ATOM     22  C   UNL     1      -1.531 -13.180   0.054  0.00  0.00    +0.016 C 
BRANCH  22  23
ATOM     23  N   UNL     1      -1.638 -14.626   0.288  0.00  0.00    +0.387 N 
ATOM     24  C   UNL     1      -1.113 -14.967   1.635  0.00  0.00    -0.078 C 
ATOM     25  C   UNL     1      -1.788 -16.328   1.944  0.00  0.00    -0.020 C 
ATOM     26  C   UNL     1      -3.200 -16.158   1.340  0.00  0.00    -0.020 C 
ATOM     27  C   UNL     1      -3.058 -15.038   0.292  0.00  0.00    -0.078 C 
ATOM     28  H   UNL     1      -1.131 -15.132  -0.423  0.00  0.00    -0.081 HD
ENDBRANCH  22  23
BRANCH  22  29
ATOM     29  C   UNL     1      -2.138 -12.841  -1.283  0.00  0.00    +0.093 A 
ATOM     30  C   UNL     1      -2.890 -11.759  -1.554  0.00  0.00    +0.043 A 
ATOM     31  C   UNL     1      -3.244 -11.838  -2.921  0.00  0.00    +0.041 A 
ATOM     32  C   UNL     1      -2.688 -12.964  -3.402  0.00  0.00    +0.195 A 
ATOM     33  O   UNL     1      -2.014 -13.564  -2.408  0.00  0.00    -0.469 OA
ENDBRANCH  22  29
ENDBRANCH  21  22
ENDBRANCH   3  21
TORSDOF 8
