REMARK  Name = ZINC34864143
REMARK  13 active torsions:
REMARK  status: ('A' for Active; 'I' for Inactive)
REMARK    1  A    between atoms: C_1  and  C_2
REMARK    2  A    between atoms: C_2  and  C_3
REMARK    3  A    between atoms: C_3  and  C_5
REMARK    4  A    between atoms: C_3  and  N_6
REMARK    5  A    between atoms: N_6  and  C_7
REMARK    6  A    between atoms: C_7  and  C_8
REMARK    7  A    between atoms: N_10  and  C_11
REMARK    8  A    between atoms: N_10  and  C_17
REMARK    9  A    between atoms: C_11  and  C_12
REMARK   10  A    between atoms: C_17  and  C_18
REMARK   11  A    between atoms: C_24  and  C_26
REMARK   12  A    between atoms: C_29  and  C_35
REMARK   13  A    between atoms: C_30  and  N_32
REMARK                            x       y       z     vdW  Elec       q    Type
REMARK                         _______ _______ _______ _____ _____    ______ ____
ROOT
ATOM      1  N   UNL     1       2.651  -2.263  -1.129  0.00  0.00    -0.286 N 
ATOM      2  C   UNL     1       2.331  -2.730   0.094  0.00  0.00    +0.247 C 
ATOM      3  O   UNL     1       3.207  -2.961   0.905  0.00  0.00    -0.270 OA
ENDROOT
BRANCH   2   4
ATOM      4  C   UNL     1       0.915  -2.962   0.450  0.00  0.00    +0.039 A 
ATOM      5  C   UNL     1      -0.034  -1.962   0.234  0.00  0.00    +0.013 A 
ATOM      6  C   UNL     1      -1.354  -2.184   0.568  0.00  0.00    +0.006 A 
ATOM      7  C   UNL     1      -1.738  -3.396   1.116  0.00  0.00    -0.020 A 
ATOM      8  C   UNL     1      -0.801  -4.391   1.333  0.00  0.00    +0.130 A 
ATOM      9  C   UNL     1       0.521  -4.183   0.998  0.00  0.00    +0.046 A 
ATOM     10  C   UNL     1      -3.181  -3.631   1.479  0.00  0.00    +0.046 C 
BRANCH   8  11
ATOM     11  N   UNL     1      -1.220  -5.683   1.920  0.00  0.00    +0.057 N 
ATOM     12  O   UNL     1      -0.505  -6.246   2.716  0.00  0.00    -0.126 OA
ATOM     13  O   UNL     1      -2.278  -6.177   1.603  0.00  0.00    -0.126 OA
ENDBRANCH   8  11
ENDBRANCH   2   4
BRANCH   1  14
ATOM     14  C   UNL     1       1.597  -1.802  -2.036  0.00  0.00    +0.074 C 
ATOM     15  C   UNL     1       1.403  -0.294  -1.867  0.00  0.00    +0.028 C 
BRANCH  14  17
ATOM     16  C   UNL     1       2.343  -3.591  -3.611  0.00  0.00    +0.005 C 
ATOM     17  C   UNL     1       1.998  -2.107  -3.480  0.00  0.00    +0.019 C 
ENDBRANCH  14  17
ENDBRANCH   1  14
BRANCH   1  18
ATOM     18  C   UNL     1       4.053  -2.216  -1.552  0.00  0.00    +0.204 C 
BRANCH  18  19
ATOM     19  C   UNL     1       4.608  -0.838  -1.301  0.00  0.00    +0.233 C 
ATOM     20  O   UNL     1       3.933  -0.007  -0.730  0.00  0.00    -0.274 OA
ATOM     21  N   UNL     1       5.854  -0.528  -1.710  0.00  0.00    -0.290 N 
BRANCH  21  22
ATOM     22  C   UNL     1       6.394   0.812  -1.466  0.00  0.00    +0.182 C 
BRANCH  22  23
ATOM     23  C   UNL     1       7.097   0.835  -0.133  0.00  0.00    +0.122 A 
ATOM     24  C   UNL     1       8.398   0.566   0.074  0.00  0.00    +0.046 A 
ATOM     25  C   UNL     1       8.630   0.705   1.462  0.00  0.00    +0.041 A 
ATOM     26  C   UNL     1       7.455   1.051   2.020  0.00  0.00    +0.195 A 
ATOM     27  O   UNL     1       6.532   1.134   1.048  0.00  0.00    -0.466 OA
ENDBRANCH  22  23
ENDBRANCH  21  22
BRANCH  21  28
ATOM     28  C   UNL     1       6.669  -1.532  -2.399  0.00  0.00    +0.139 C 
BRANCH  28  29
ATOM     29  C   UNL     1       6.427  -1.438  -3.907  0.00  0.00    +0.136 C 
ATOM     30  C   UNL     1       7.188  -2.569  -4.631  0.00  0.00    +0.035 C 
ATOM     31  C   UNL     1       7.707  -1.853  -5.907  0.00  0.00    +0.031 C 
ATOM     32  C   UNL     1       7.976  -0.430  -5.356  0.00  0.00    +0.160 C 
ATOM     33  O   UNL     1       6.927  -0.191  -4.403  0.00  0.00    -0.375 OA
ENDBRANCH  28  29
ENDBRANCH  21  28
ENDBRANCH  18  19
ENDBRANCH   1  18
TORSDOF 10
