REMARK  Name = ZINC65386669
REMARK  4 active torsions:
REMARK  status: ('A' for Active; 'I' for Inactive)
REMARK    1  A    between atoms: N_9  and  C_10
REMARK    2  A    between atoms: C_10  and  C_11
REMARK    3  A    between atoms: C_11  and  C_12
REMARK    4  A    between atoms: C_12  and  N_13
REMARK                            x       y       z     vdW  Elec       q    Type
REMARK                         _______ _______ _______ _____ _____    ______ ____
ROOT
ATOM      1  N   UNL     1       7.389  -0.106   2.751  0.00  0.00    -0.299 N 
ATOM      2  C   UNL     1       7.379   1.095   3.385  0.00  0.00    +0.203 A 
ATOM      3  N   UNL     1       7.810   1.214   4.613  0.00  0.00    -0.230 NA
ATOM      4  C   UNL     1       8.274   0.161   5.280  0.00  0.00    +0.116 A 
ATOM      5  C   UNL     1       8.324  -1.121   4.707  0.00  0.00    +0.076 A 
ATOM      6  C   UNL     1       7.838  -1.218   3.362  0.00  0.00    +0.262 A 
ATOM      7  O   UNL     1       7.835  -2.289   2.780  0.00  0.00    -0.267 OA
ATOM      8  C   UNL     1       8.858  -2.179   5.560  0.00  0.00    -0.020 A 
ATOM      9  C   UNL     1       9.249  -1.827   6.805  0.00  0.00    +0.010 A 
ATOM     10  S   UNL     1       8.931  -0.088   6.910  0.00  0.00    -0.072 S 
ATOM     11  C   UNL     1       9.821  -2.734   7.850  0.00  0.00    +0.124 C 
ATOM     12  N   UNL     1       9.567  -4.128   7.441  0.00  0.00    -0.311 NA
ATOM     13  C   UNL     1       9.968  -4.340   6.043  0.00  0.00    +0.086 C 
ATOM     14  C   UNL     1       8.989  -3.630   5.104  0.00  0.00    +0.052 C 
ATOM     15  H   UNL     1      10.039  -4.776   8.055  0.00  0.00    +0.122 HD
ENDROOT
BRANCH   1  16
ATOM     16  C   UNL     1       6.895  -0.194   1.374  0.00  0.00    +0.128 C 
BRANCH  16  17
ATOM     17  C   UNL     1       5.394  -0.489   1.388  0.00  0.00    +0.045 C 
BRANCH  17  18
ATOM     18  C   UNL     1       4.879  -0.581  -0.050  0.00  0.00    +0.147 C 
BRANCH  18  27
ATOM     19  C   UNL     1      -0.016   1.360   0.009  0.00  0.00    +0.002 A 
ATOM     20  C   UNL     1       1.167   2.086   0.002  0.00  0.00    +0.002 A 
ATOM     21  C   UNL     1       2.375   1.447  -0.013  0.00  0.00    +0.029 A 
ATOM     22  C   UNL     1       2.422   0.057  -0.021  0.00  0.00    +0.089 A 
ATOM     23  C   UNL     1       1.227  -0.684  -0.013  0.00  0.00    +0.113 A 
ATOM     24  C   UNL     1       0.002  -0.004   0.002  0.00  0.00    +0.032 A 
ATOM     25  N   UNL     1       1.557  -1.991  -0.024  0.00  0.00    -0.129 NA
ATOM     26  N   UNL     1       2.836  -2.129  -0.037  0.00  0.00    -0.065 NA
ATOM     27  N   UNL     1       3.442  -0.864  -0.036  0.00  0.00    -0.244 N 
ENDBRANCH  18  27
ENDBRANCH  17  18
ENDBRANCH  16  17
ENDBRANCH   1  16
TORSDOF 4
