REMARK  Name = ZINC21626736
REMARK  9 active torsions:
REMARK  status: ('A' for Active; 'I' for Inactive)
REMARK    1  A    between atoms: C_1  and  C_2
REMARK    2  A    between atoms: C_5  and  C_8
REMARK    3  A    between atoms: C_8  and  C_10
REMARK    4  A    between atoms: C_8  and  N_13
REMARK    5  A    between atoms: C_14  and  C_16
REMARK    6  A    between atoms: C_16  and  N_17
REMARK    7  A    between atoms: C_20  and  C_24
REMARK    8  A    between atoms: C_20  and  C_25
REMARK    9  A    between atoms: C_28  and  N_31
REMARK                            x       y       z     vdW  Elec       q    Type
REMARK                         _______ _______ _______ _____ _____    ______ ____
ROOT
ATOM      1  N   UNL     1       0.002  -0.004   0.002  0.00  0.00    -0.215 N 
ATOM      2  C   UNL     1       0.023  -0.767   1.113  0.00  0.00    +0.251 C 
ATOM      3  O   UNL     1       0.030  -0.385   2.263  0.00  0.00    -0.272 OA
ATOM      4  C   UNL     1       0.037  -2.202   0.624  0.00  0.00    +0.135 C 
ATOM      5  N   UNL     1       0.021  -2.068  -0.843  0.00  0.00    -0.281 N 
ATOM      6  C   UNL     1      -0.004  -0.750  -1.109  0.00  0.00    +0.310 C 
ATOM      7  O   UNL     1      -0.026  -0.287  -2.233  0.00  0.00    -0.252 OA
ATOM      8  C   UNL     1      -1.207  -2.948   1.110  0.00  0.00    +0.047 C 
ATOM      9  H   UNL     1       0.030  -2.967  -1.477  0.00  0.00    +0.152 HD
ENDROOT
BRANCH   4  10
ATOM     10  C   UNL     1       1.290  -2.905   1.079  0.00  0.00    -0.015 A 
ATOM     11  C   UNL     1       1.903  -2.530   2.260  0.00  0.00    +0.008 A 
ATOM     12  C   UNL     1       3.050  -3.178   2.679  0.00  0.00    +0.033 A 
ATOM     13  C   UNL     1       3.590  -4.193   1.912  0.00  0.00    +0.126 A 
ATOM     14  C   UNL     1       2.980  -4.565   0.729  0.00  0.00    +0.033 A 
ATOM     15  C   UNL     1       1.830  -3.920   0.312  0.00  0.00    +0.008 A 
BRANCH  13  16
ATOM     16  N   UNL     1       4.821  -4.883   2.358  0.00  0.00    +0.056 N 
ATOM     17  O   UNL     1       5.297  -5.778   1.682  0.00  0.00    -0.126 OA
ATOM     18  O   UNL     1       5.359  -4.556   3.401  0.00  0.00    -0.126 OA
ENDBRANCH  13  16
ENDBRANCH   4  10
BRANCH   1  19
ATOM     19  C   UNL     1      -0.018   1.461   0.010  0.00  0.00    +0.213 C 
BRANCH  19  21
ATOM     20  N   UNL     1       1.624   3.311   0.004  0.00  0.00    -0.307 N 
ATOM     21  C   UNL     1       1.396   1.982  -0.001  0.00  0.00    +0.231 C 
ATOM     22  O   UNL     1       2.328   1.207  -0.014  0.00  0.00    -0.274 OA
ATOM     23  H   UNL     1       0.779   4.014   0.016  0.00  0.00    +0.149 HD
BRANCH  20  24
ATOM     24  C   UNL     1       2.999   3.818  -0.006  0.00  0.00    +0.106 C 
BRANCH  24  29
ATOM     25  C   UNL     1       3.119   9.104   2.324  0.00  0.00    +0.044 C 
ATOM     26  C   UNL     1       3.088   7.726   1.716  0.00  0.00    -0.050 A 
ATOM     27  C   UNL     1       4.098   6.825   1.995  0.00  0.00    +0.004 A 
ATOM     28  C   UNL     1       4.069   5.560   1.437  0.00  0.00    +0.006 A 
ATOM     29  C   UNL     1       3.030   5.197   0.602  0.00  0.00    -0.027 A 
ATOM     30  C   UNL     1       2.022   6.099   0.319  0.00  0.00    +0.006 A 
ATOM     31  C   UNL     1       2.049   7.363   0.879  0.00  0.00    +0.004 A 
ENDBRANCH  24  29
BRANCH  24  32
ATOM     32  C   UNL     1       3.507   3.884  -1.448  0.00  0.00    +0.014 C 
ATOM     33  C   UNL     1       2.494   3.633  -2.566  0.00  0.00    +0.006 C 
ATOM     34  C   UNL     1       3.552   2.577  -2.242  0.00  0.00    +0.006 C 
ENDBRANCH  24  32
ENDBRANCH  20  24
ENDBRANCH  19  21
ENDBRANCH   1  19
TORSDOF 7
