REMARK  Name = ZINC01334194
REMARK  14 active torsions:
REMARK  status: ('A' for Active; 'I' for Inactive)
REMARK    1  A    between atoms: C_1  and  C_2
REMARK    2  A    between atoms: C_2  and  C_3
REMARK    3  A    between atoms: C_2  and  C_4
REMARK    4  A    between atoms: C_4  and  C_6
REMARK    5  A    between atoms: C_4  and  N_19
REMARK    6  A    between atoms: N_10  and  C_11
REMARK    7  A    between atoms: C_11  and  C_12
REMARK    8  A    between atoms: N_19  and  C_20
REMARK    9  A    between atoms: N_19  and  C_23
REMARK   10  A    between atoms: C_20  and  C_21
REMARK   11  A    between atoms: C_21  and  O_22
REMARK   12  A    between atoms: C_23  and  C_24
REMARK   13  A    between atoms: C_28  and  O_36
REMARK   14  A    between atoms: O_36  and  C_37
REMARK                            x       y       z     vdW  Elec       q    Type
REMARK                         _______ _______ _______ _____ _____    ______ ____
ROOT
ATOM      1  N   UNL     1      -3.327   4.480   1.408  0.00  0.00    +0.391 N 
ATOM      2  H   UNL     1      -3.658   3.890   2.274  0.00  0.00    -0.080 HD
ENDROOT
BRANCH   1   3
ATOM      3  C   UNL     1      -4.182   5.672   1.320  0.00  0.00    +0.006 C 
BRANCH   3   4
ATOM      4  C   UNL     1      -4.048   6.286  -0.050  0.00  0.00    +0.139 A 
ATOM      5  N   UNL     1      -3.868   5.646  -1.180  0.00  0.00    -0.115 NA
ATOM      6  N   UNL     1      -3.804   6.520  -2.125  0.00  0.00    -0.023 NA
ATOM      7  N   UNL     1      -3.938   7.699  -1.628  0.00  0.00    -0.044 NA
ATOM      8  N   UNL     1      -4.097   7.597  -0.351  0.00  0.00    -0.226 N 
BRANCH   8   9
ATOM      9  C   UNL     1      -4.290   8.700   0.593  0.00  0.00    +0.182 C 
BRANCH   9  10
ATOM     10  C   UNL     1      -2.949   9.171   1.095  0.00  0.00    -0.026 A 
ATOM     11  C   UNL     1      -2.400   8.608   2.232  0.00  0.00    +0.008 A 
ATOM     12  C   UNL     1      -1.169   9.036   2.691  0.00  0.00    +0.038 A 
ATOM     13  C   UNL     1      -0.490  10.037   2.017  0.00  0.00    +0.123 A 
ATOM     14  C   UNL     1      -1.043  10.605   0.882  0.00  0.00    +0.038 A 
ATOM     15  C   UNL     1      -2.272  10.171   0.422  0.00  0.00    +0.008 A 
ATOM     16  F   UNL     1       0.711  10.460   2.468  0.00  0.00    -0.205 F 
ENDBRANCH   9  10
ENDBRANCH   8   9
ENDBRANCH   3   4
BRANCH   3  18
ATOM     17  C   UNL     1      -5.783   4.691   2.968  0.00  0.00    +0.006 C 
ATOM     18  C   UNL     1      -5.639   5.272   1.560  0.00  0.00    -0.024 C 
ATOM     19  C   UNL     1      -6.535   6.505   1.422  0.00  0.00    +0.006 C 
ENDBRANCH   3  18
ENDBRANCH   1   3
BRANCH   1  20
ATOM     20  C   UNL     1      -1.923   4.855   1.627  0.00  0.00    -0.049 C 
BRANCH  20  21
ATOM     21  C   UNL     1      -1.738   5.316   3.074  0.00  0.00    +0.137 C 
BRANCH  21  22
ATOM     22  O   UNL     1      -1.944   4.211   3.956  0.00  0.00    -0.397 OA
ATOM     23  H   UNL     1      -1.852   4.351   5.043  0.00  0.00    +0.209 HD
ENDBRANCH  21  22
ENDBRANCH  20  21
ENDBRANCH   1  20
BRANCH   1  24
ATOM     24  C   UNL     1      -3.467   3.642   0.210  0.00  0.00    -0.036 C 
BRANCH  24  25
ATOM     25  C   UNL     1      -2.997   2.244   0.517  0.00  0.00    +0.001 A 
ATOM     26  C   UNL     1      -3.892   1.298   0.896  0.00  0.00    +0.017 A 
ATOM     27  C   UNL     1      -3.405  -0.053   1.181  0.00  0.00    +0.002 A 
ATOM     28  C   UNL     1      -4.283  -1.070   1.570  0.00  0.00    +0.055 A 
ATOM     29  C   UNL     1      -3.790  -2.331   1.837  0.00  0.00    +0.121 A 
ATOM     30  C   UNL     1      -2.426  -2.591   1.722  0.00  0.00    +0.047 A 
ATOM     31  C   UNL     1      -1.552  -1.598   1.339  0.00  0.00    +0.030 A 
ATOM     32  C   UNL     1      -2.028  -0.320   1.065  0.00  0.00    +0.049 A 
ATOM     33  N   UNL     1      -1.168   0.689   0.681  0.00  0.00    -0.322 N 
ATOM     34  H   UNL     1      -0.091   0.487   0.589  0.00  0.00    +0.169 HD
ATOM     35  C   UNL     1      -1.626   1.924   0.416  0.00  0.00    +0.251 A 
ATOM     36  O   UNL     1      -0.838   2.791   0.079  0.00  0.00    -0.268 OA
BRANCH  29  37
ATOM     37  O   UNL     1      -4.638  -3.324   2.216  0.00  0.00    -0.495 OA
ATOM     38  C   UNL     1      -4.062  -4.605   2.477  0.00  0.00    +0.277 C 
ENDBRANCH  29  37
ENDBRANCH  24  25
ENDBRANCH   1  24
TORSDOF 11
