REMARK  Name = ZINC49513047
REMARK  10 active torsions:
REMARK  status: ('A' for Active; 'I' for Inactive)
REMARK    1  A    between atoms: C_1  and  C_2
REMARK    2  A    between atoms: C_2  and  C_3
REMARK    3  A    between atoms: C_2  and  C_4
REMARK    4  A    between atoms: C_13  and  N_16
REMARK    5  A    between atoms: C_17  and  C_19
REMARK    6  A    between atoms: N_21  and  C_22
REMARK    7  A    between atoms: C_22  and  C_23
REMARK    8  A    between atoms: C_23  and  C_25
REMARK    9  A    between atoms: C_23  and  N_31
REMARK   10  A    between atoms: N_29  and  C_30
REMARK                            x       y       z     vdW  Elec       q    Type
REMARK                         _______ _______ _______ _____ _____    ______ ____
ROOT
ATOM      1  C   UNL     1      -8.781  -0.876   2.177  0.00  0.00    +0.299 C 
ATOM      2  O   UNL     1      -8.635   0.298   1.907  0.00  0.00    -0.265 OA
ATOM      3  N   UNL     1     -10.021  -1.395   2.279  0.00  0.00    -0.309 N 
ATOM      4  H   UNL     1     -10.138  -2.333   2.495  0.00  0.00    +0.149 HD
ENDROOT
BRANCH   1   6
ATOM      5  N   UNL     1      -6.348  -1.228   2.294  0.00  0.00    -0.278 N 
ATOM      6  C   UNL     1      -7.588  -1.747   2.396  0.00  0.00    +0.303 C 
ATOM      7  O   UNL     1      -7.734  -2.921   2.666  0.00  0.00    -0.265 OA
ATOM      8  H   UNL     1      -6.231  -0.275   2.155  0.00  0.00    +0.155 HD
BRANCH   5  18
ATOM      9  C   UNL     1      -1.640  -0.632   3.922  0.00  0.00    +0.222 C 
ATOM     10  O   UNL     1      -2.466   0.157   3.515  0.00  0.00    -0.275 OA
ATOM     11  N   UNL     1      -1.790  -1.949   3.680  0.00  0.00    -0.271 N 
ATOM     12  C   UNL     1      -0.733  -2.901   4.050  0.00  0.00    +0.114 C 
ATOM     13  C   UNL     1      -0.540  -3.867   2.873  0.00  0.00    +0.024 C 
ATOM     14  C   UNL     1      -1.832  -4.658   2.667  0.00  0.00    +0.038 C 
ATOM     15  C   UNL     1      -3.012  -3.727   2.572  0.00  0.00    -0.026 A 
ATOM     16  C   UNL     1      -2.958  -2.435   3.077  0.00  0.00    +0.041 A 
ATOM     17  C   UNL     1      -4.066  -1.602   2.984  0.00  0.00    +0.047 A 
ATOM     18  C   UNL     1      -5.231  -2.063   2.388  0.00  0.00    +0.036 A 
ATOM     19  C   UNL     1      -5.284  -3.357   1.886  0.00  0.00    +0.024 A 
ATOM     20  C   UNL     1      -4.175  -4.180   1.971  0.00  0.00    +0.007 A 
BRANCH   9  22
ATOM     21  C   UNL     1      -0.516   1.384   4.830  0.00  0.00    +0.017 C 
ATOM     22  C   UNL     1      -0.446  -0.139   4.697  0.00  0.00    +0.069 C 
ATOM     23  C   UNL     1      -0.445  -0.772   6.090  0.00  0.00    +0.017 C 
ENDBRANCH   9  22
ENDBRANCH   5  18
ENDBRANCH   1   6
BRANCH   3  24
ATOM     24  C   UNL     1     -11.192  -0.541   2.064  0.00  0.00    +0.095 C 
BRANCH  24  25
ATOM     25  C   UNL     1     -12.456  -1.404   2.050  0.00  0.00    -0.003 C 
BRANCH  25  26
ATOM     26  N   UNL     1     -12.396  -2.341   0.920  0.00  0.00    +0.386 N 
ATOM     27  C   UNL     1     -11.370  -3.362   1.207  0.00  0.00    -0.078 C 
ATOM     28  C   UNL     1     -11.703  -4.603   0.416  0.00  0.00    -0.019 C 
ATOM     29  C   UNL     1     -10.923  -4.651  -0.911  0.00  0.00    -0.002 C 
ATOM     30  C   UNL     1     -10.856  -3.266  -1.586  0.00  0.00    -0.002 C 
ATOM     31  C   UNL     1     -12.164  -2.521  -1.500  0.00  0.00    -0.019 C 
ATOM     32  C   UNL     1     -12.148  -1.619  -0.248  0.00  0.00    -0.078 C 
ATOM     33  H   UNL     1     -13.291  -2.800   0.833  0.00  0.00    -0.081 HD
ENDBRANCH  25  26
BRANCH  25  34
ATOM     34  C   UNL     1     -13.667  -0.518   1.904  0.00  0.00    +0.006 A 
ATOM     35  C   UNL     1     -14.654  -0.671   0.998  0.00  0.00    +0.021 A 
ATOM     36  C   UNL     1     -15.584   0.366   1.208  0.00  0.00    +0.019 A 
ATOM     37  C   UNL     1     -15.129   1.114   2.234  0.00  0.00    +0.085 A 
ATOM     38  N   UNL     1     -13.956   0.573   2.669  0.00  0.00    -0.355 N 
ATOM     39  C   UNL     1     -13.139   1.081   3.774  0.00  0.00    +0.148 C 
ENDBRANCH  25  34
ENDBRANCH  24  25
ENDBRANCH   3  24
TORSDOF 7
