REMARK  Name = ZINC34740731
REMARK  9 active torsions:
REMARK  status: ('A' for Active; 'I' for Inactive)
REMARK    1  A    between atoms: C_1  and  C_2
REMARK    2  A    between atoms: C_5  and  C_8
REMARK    3  A    between atoms: N_11  and  C_26
REMARK    4  A    between atoms: C_13  and  C_15
REMARK    5  A    between atoms: C_15  and  N_16
REMARK    6  A    between atoms: N_16  and  C_17
REMARK    7  A    between atoms: C_23  and  C_25
REMARK    8  A    between atoms: C_26  and  C_27
REMARK    9  A    between atoms: C_32  and  O_33
REMARK                            x       y       z     vdW  Elec       q    Type
REMARK                         _______ _______ _______ _____ _____    ______ ____
ROOT
ATOM      1  C   UNL     1      -0.083  -3.990  -0.005  0.00  0.00    +0.005 C 
ATOM      2  C   UNL     1       1.184  -4.365   0.803  0.00  0.00    -0.070 C 
ATOM      3  N   UNL     1       0.922  -5.769   1.214  0.00  0.00    +0.383 N 
ATOM      4  C   UNL     1      -0.515  -5.825   1.560  0.00  0.00    -0.073 C 
ATOM      5  C   UNL     1      -1.216  -4.700   0.771  0.00  0.00    -0.005 C 
ATOM      6  H   UNL     1       1.121  -6.398   0.450  0.00  0.00    -0.081 HD
ENDROOT
BRANCH   1  11
ATOM      7  C   UNL     1      -0.886   1.733  -0.008  0.00  0.00    +0.044 C 
ATOM      8  C   UNL     1      -0.677   0.241  -0.007  0.00  0.00    -0.050 A 
ATOM      9  C   UNL     1      -0.579  -0.444  -1.204  0.00  0.00    +0.003 A 
ATOM     10  C   UNL     1      -0.387  -1.813  -1.203  0.00  0.00    +0.004 A 
ATOM     11  C   UNL     1      -0.292  -2.497  -0.006  0.00  0.00    -0.046 A 
ATOM     12  C   UNL     1      -0.388  -1.812   1.191  0.00  0.00    +0.004 A 
ATOM     13  C   UNL     1      -0.576  -0.443   1.190  0.00  0.00    +0.003 A 
ENDBRANCH   1  11
BRANCH   5  14
ATOM     14  C   UNL     1      -2.240  -5.287  -0.203  0.00  0.00    +0.110 C 
BRANCH  14  15
ATOM     15  N   UNL     1      -3.378  -5.822   0.548  0.00  0.00    -0.298 N 
ATOM     16  C   UNL     1      -4.422  -5.025   0.848  0.00  0.00    +0.213 C 
ATOM     17  O   UNL     1      -5.321  -5.441   1.548  0.00  0.00    -0.276 OA
ATOM     18  C   UNL     1      -4.473  -3.617   0.313  0.00  0.00    +0.109 C 
BRANCH  15  19
ATOM     19  C   UNL     1      -3.380  -7.224   0.973  0.00  0.00    +0.076 C 
ATOM     20  C   UNL     1      -4.582  -7.942   0.355  0.00  0.00    +0.022 C 
ATOM     21  C   UNL     1      -4.585  -9.406   0.799  0.00  0.00    +0.002 C 
ATOM     22  C   UNL     1      -4.677  -9.476   2.325  0.00  0.00    +0.000 C 
ATOM     23  C   UNL     1      -3.475  -8.759   2.942  0.00  0.00    +0.002 C 
ATOM     24  C   UNL     1      -3.473  -7.295   2.498  0.00  0.00    +0.022 C 
ENDBRANCH  15  19
ENDBRANCH  14  15
ENDBRANCH   5  14
BRANCH   3  25
ATOM     25  C   UNL     1       1.739  -6.115   2.385  0.00  0.00    -0.039 C 
BRANCH  25  26
ATOM     26  C   UNL     1       3.195  -6.120   1.997  0.00  0.00    -0.022 A 
ATOM     27  C   UNL     1       3.835  -7.314   1.726  0.00  0.00    +0.005 A 
ATOM     28  C   UNL     1       5.171  -7.318   1.371  0.00  0.00    +0.000 A 
ATOM     29  C   UNL     1       5.870  -6.129   1.287  0.00  0.00    +0.004 A 
ATOM     30  C   UNL     1       5.236  -4.932   1.557  0.00  0.00    +0.045 A 
ATOM     31  C   UNL     1       3.893  -4.924   1.908  0.00  0.00    +0.118 A 
BRANCH  31  32
ATOM     32  O   UNL     1       3.265  -3.748   2.169  0.00  0.00    -0.507 OA
ATOM     33  H   UNL     1       3.308  -3.475   3.095  0.00  0.00    +0.292 HD
ENDBRANCH  31  32
ENDBRANCH  25  26
ENDBRANCH   3  25
TORSDOF 7
