REMARK  Name = ZINC64855846
REMARK  6 active torsions:
REMARK  status: ('A' for Active; 'I' for Inactive)
REMARK    1  A    between atoms: C_1  and  C_2
REMARK    2  A    between atoms: C_11  and  C_13
REMARK    3  A    between atoms: C_17  and  C_19
REMARK    4  A    between atoms: C_19  and  O_20
REMARK    5  A    between atoms: O_20  and  C_21
REMARK    6  A    between atoms: C_26  and  C_27
REMARK                            x       y       z     vdW  Elec       q    Type
REMARK                         _______ _______ _______ _____ _____    ______ ____
ROOT
ATOM      1  C   UNL     1       0.946  -0.760   3.500  0.00  0.00    +0.038 A 
ATOM      2  C   UNL     1       2.224  -1.301   3.342  0.00  0.00    +0.013 A 
ATOM      3  C   UNL     1       2.939  -1.707   4.449  0.00  0.00    +0.001 A 
ATOM      4  C   UNL     1       2.393  -1.581   5.714  0.00  0.00    +0.007 A 
ATOM      5  C   UNL     1       1.127  -1.047   5.878  0.00  0.00    -0.010 A 
ATOM      6  C   UNL     1       0.404  -0.631   4.779  0.00  0.00    +0.020 A 
ENDROOT
BRANCH   1  17
ATOM      7  C   UNL     1       1.737  -2.743   1.267  0.00  0.00    +0.029 C 
ATOM      8  C   UNL     1       1.871  -1.301   0.773  0.00  0.00    +0.083 C 
ATOM      9  C   UNL     1       1.990  -1.271  -0.760  0.00  0.00    +0.059 C 
ATOM     10  C   UNL     1       0.791  -0.472  -1.218  0.00  0.00    -0.024 A 
ATOM     11  C   UNL     1       0.371  -0.115  -2.486  0.00  0.00    +0.005 A 
ATOM     12  C   UNL     1      -0.779   0.633  -2.651  0.00  0.00    +0.000 A 
ATOM     13  C   UNL     1      -1.510   1.024  -1.544  0.00  0.00    +0.002 A 
ATOM     14  C   UNL     1      -1.095   0.671  -0.278  0.00  0.00    +0.024 A 
ATOM     15  C   UNL     1       0.066  -0.085  -0.103  0.00  0.00    +0.040 A 
ATOM     16  N   UNL     1       0.655  -0.544   1.079  0.00  0.00    -0.264 N 
ATOM     17  C   UNL     1       0.174  -0.322   2.318  0.00  0.00    +0.251 C 
ATOM     18  O   UNL     1      -0.895   0.238   2.464  0.00  0.00    -0.270 OA
ENDBRANCH   1  17
BRANCH   5  19
ATOM     19  C   UNL     1       0.540  -0.914   7.259  0.00  0.00    +0.264 C 
BRANCH  19  20
ATOM     20  O   UNL     1       0.889   0.360   7.804  0.00  0.00    -0.487 OA
BRANCH  20  21
ATOM     21  C   UNL     1       0.435   0.641   9.052  0.00  0.00    +0.133 A 
ATOM     22  C   UNL     1      -0.325  -0.291   9.743  0.00  0.00    +0.046 A 
ATOM     23  C   UNL     1      -0.786  -0.003  11.012  0.00  0.00    +0.004 A 
ATOM     24  C   UNL     1      -0.494   1.215  11.605  0.00  0.00    +0.001 A 
ATOM     25  C   UNL     1       0.260   2.152  10.933  0.00  0.00    +0.017 A 
ATOM     26  C   UNL     1       0.738   1.871   9.650  0.00  0.00    +0.078 A 
BRANCH  26  27
ATOM     27  C   UNL     1       1.551   2.868   8.927  0.00  0.00    +0.245 C 
ATOM     28  O   UNL     1       1.961   2.622   7.809  0.00  0.00    -0.270 OA
ATOM     29  N   UNL     1       1.840   4.050   9.507  0.00  0.00    -0.325 N 
ATOM     30  H   UNL     1       1.514   4.246  10.399  0.00  0.00    +0.145 HD
ATOM     31  H   UNL     1       2.375   4.705   9.031  0.00  0.00    +0.145 HD
ENDBRANCH  26  27
ENDBRANCH  20  21
ENDBRANCH  19  20
ENDBRANCH   5  19
TORSDOF 5
