REMARK  Name = ZINC39437396
REMARK  6 active torsions:
REMARK  status: ('A' for Active; 'I' for Inactive)
REMARK    1  A    between atoms: C_1  and  C_2
REMARK    2  A    between atoms: C_6  and  N_8
REMARK    3  A    between atoms: N_11  and  C_14
REMARK    4  A    between atoms: C_14  and  C_15
REMARK    5  A    between atoms: C_20  and  C_21
REMARK    6  A    between atoms: C_24  and  C_27
REMARK                            x       y       z     vdW  Elec       q    Type
REMARK                         _______ _______ _______ _____ _____    ______ ____
ROOT
ATOM      1  C   UNL     1       1.935  -5.746   5.918  0.00  0.00    +0.097 C 
ATOM      2  C   UNL     1       2.327  -6.613   4.739  0.00  0.00    +0.118 C 
ATOM      3  N   UNL     1       3.284  -7.376   5.157  0.00  0.00    -0.161 NA
ATOM      4  N   UNL     1       3.607  -7.144   6.489  0.00  0.00    -0.153 NA
ATOM      5  C   UNL     1       2.866  -6.205   7.022  0.00  0.00    +0.080 C 
ENDROOT
BRANCH   5   6
ATOM      6  C   UNL     1       2.925  -5.700   8.401  0.00  0.00    -0.001 A 
ATOM      7  C   UNL     1       2.051  -4.687   8.814  0.00  0.00    +0.010 A 
ATOM      8  C   UNL     1       2.107  -4.217  10.101  0.00  0.00    +0.009 A 
ATOM      9  C   UNL     1       3.034  -4.747  10.999  0.00  0.00    -0.018 A 
ATOM     10  C   UNL     1       3.906  -5.757  10.589  0.00  0.00    +0.009 A 
ATOM     11  C   UNL     1       3.850  -6.234   9.305  0.00  0.00    +0.010 A 
BRANCH   9  12
ATOM     12  C   UNL     1       3.094  -4.237  12.389  0.00  0.00    -0.018 A 
ATOM     13  C   UNL     1       2.221  -3.232  12.804  0.00  0.00    +0.008 A 
ATOM     14  C   UNL     1       2.280  -2.761  14.099  0.00  0.00    +0.001 A 
ATOM     15  C   UNL     1       3.204  -3.285  14.987  0.00  0.00    +0.000 A 
ATOM     16  C   UNL     1       4.072  -4.282  14.581  0.00  0.00    +0.001 A 
ATOM     17  C   UNL     1       4.018  -4.765  13.290  0.00  0.00    +0.008 A 
ENDBRANCH   9  12
ENDBRANCH   5   6
BRANCH   1  18
ATOM     18  C   UNL     1       2.164  -4.267   5.600  0.00  0.00    +0.100 C 
BRANCH  18  22
ATOM     19  N   UNL     1      -0.674  -2.227   3.276  0.00  0.00    -0.314 N 
ATOM     20  C   UNL     1      -1.158  -3.359   4.080  0.00  0.00    +0.122 C 
ATOM     21  C   UNL     1      -0.138  -3.640   5.189  0.00  0.00    +0.103 C 
ATOM     22  N   UNL     1       1.191  -3.826   4.591  0.00  0.00    -0.298 NA
ATOM     23  C   UNL     1       1.648  -2.604   3.917  0.00  0.00    +0.103 C 
ATOM     24  C   UNL     1       0.699  -2.283   2.751  0.00  0.00    +0.122 C 
BRANCH  19  30
ATOM     25  C   UNL     1      -1.132   2.156   1.407  0.00  0.00    +0.063 C 
ATOM     26  C   UNL     1      -1.743   0.978   2.121  0.00  0.00    +0.014 A 
ATOM     27  C   UNL     1      -3.074   1.018   2.487  0.00  0.00    +0.021 A 
ATOM     28  C   UNL     1      -3.631  -0.070   3.144  0.00  0.00    +0.005 A 
ATOM     29  C   UNL     1      -2.827  -1.163   3.411  0.00  0.00    +0.042 A 
ATOM     30  C   UNL     1      -1.494  -1.135   3.014  0.00  0.00    +0.099 A 
ATOM     31  N   UNL     1      -1.000  -0.081   2.384  0.00  0.00    -0.347 N 
ATOM     32  H   UNL     1      -0.069  -0.085   2.112  0.00  0.00    +0.167 HD
ENDBRANCH  19  30
ENDBRANCH  18  22
ENDBRANCH   1  18
TORSDOF 5
