REMARK  Name = ZINC01331065
REMARK  5 active torsions:
REMARK  status: ('A' for Active; 'I' for Inactive)
REMARK    1  A    between atoms: C_1  and  C_2
REMARK    2  A    between atoms: C_5  and  C_8
REMARK    3  A    between atoms: C_8  and  C_10
REMARK    4  A    between atoms: C_8  and  N_58
REMARK    5  A    between atoms: N_14  and  C_15
REMARK                            x       y       z     vdW  Elec       q    Type
REMARK                         _______ _______ _______ _____ _____    ______ ____
ROOT
ATOM      1  C   UNL     1       3.510   0.737  -0.027  0.00  0.00    +0.034 C 
ENDROOT
BRANCH   1  11
ATOM      2  C   UNL     1       5.340   1.959  -1.043  0.00  0.00    -0.072 C 
ATOM      3  C   UNL     1       5.630   2.971  -2.151  0.00  0.00    +0.017 C 
ATOM      4  C   UNL     1       4.938   4.276  -1.850  0.00  0.00    -0.048 A 
ATOM      5  C   UNL     1       5.348   5.414  -2.527  0.00  0.00    +0.004 A 
ATOM      6  C   UNL     1       4.736   6.628  -2.288  0.00  0.00    +0.000 A 
ATOM      7  C   UNL     1       3.707   6.709  -1.367  0.00  0.00    +0.000 A 
ATOM      8  C   UNL     1       3.300   5.577  -0.691  0.00  0.00    +0.002 A 
ATOM      9  C   UNL     1       3.915   4.357  -0.929  0.00  0.00    -0.061 A 
ATOM     10  C   UNL     1       3.438   3.151  -0.163  0.00  0.00    -0.041 C 
ATOM     11  N   UNL     1       3.878   1.919  -0.839  0.00  0.00    +0.392 N 
ATOM     12  H   UNL     1       3.414   1.853  -1.753  0.00  0.00    -0.080 HD
ENDBRANCH   1  11
BRANCH   1  17
ATOM     13  C   UNL     1       5.192   1.470   5.453  0.00  0.00    +0.044 C 
ATOM     14  C   UNL     1       4.753   1.279   4.024  0.00  0.00    -0.050 A 
ATOM     15  C   UNL     1       5.472   0.446   3.186  0.00  0.00    +0.003 A 
ATOM     16  C   UNL     1       5.069   0.271   1.875  0.00  0.00    +0.003 A 
ATOM     17  C   UNL     1       3.949   0.928   1.402  0.00  0.00    -0.054 A 
ATOM     18  C   UNL     1       3.234   1.764   2.238  0.00  0.00    +0.003 A 
ATOM     19  C   UNL     1       3.633   1.936   3.551  0.00  0.00    +0.003 A 
ENDBRANCH   1  17
BRANCH   1  20
ATOM     20  C   UNL     1       2.015   0.557  -0.074  0.00  0.00    +0.143 A 
ATOM     21  N   UNL     1       1.109   1.492   0.075  0.00  0.00    -0.115 NA
ATOM     22  N   UNL     1      -0.052   0.943  -0.030  0.00  0.00    -0.023 NA
ATOM     23  N   UNL     1       0.090  -0.319  -0.243  0.00  0.00    -0.044 NA
ATOM     24  N   UNL     1       1.350  -0.596  -0.276  0.00  0.00    -0.227 N 
BRANCH  24  25
ATOM     25  C   UNL     1       1.945  -1.917  -0.493  0.00  0.00    +0.111 C 
ATOM     26  C   UNL     1       1.506  -2.456  -1.856  0.00  0.00    +0.027 C 
ATOM     27  C   UNL     1       2.128  -3.836  -2.083  0.00  0.00    +0.002 C 
ATOM     28  C   UNL     1       1.663  -4.792  -0.982  0.00  0.00    +0.000 C 
ATOM     29  C   UNL     1       2.101  -4.253   0.381  0.00  0.00    +0.002 C 
ATOM     30  C   UNL     1       1.480  -2.873   0.607  0.00  0.00    +0.027 C 
ENDBRANCH  24  25
ENDBRANCH   1  20
TORSDOF 4
