REMARK  Name = ZINC12424794
REMARK  9 active torsions:
REMARK  status: ('A' for Active; 'I' for Inactive)
REMARK    1  A    between atoms: C_1  and  C_2
REMARK    2  A    between atoms: C_5  and  N_11
REMARK    3  A    between atoms: C_6  and  N_8
REMARK    4  A    between atoms: C_12  and  C_14
REMARK    5  A    between atoms: C_14  and  C_16
REMARK    6  A    between atoms: C_14  and  O_22
REMARK    7  A    between atoms: O_22  and  C_23
REMARK    8  A    between atoms: C_23  and  C_25
REMARK    9  A    between atoms: C_25  and  C_26
REMARK                            x       y       z     vdW  Elec       q    Type
REMARK                         _______ _______ _______ _____ _____    ______ ____
ROOT
ATOM      1  C   UNL     1      -1.596   3.740   2.680  0.00  0.00    +0.292 C 
ENDROOT
BRANCH   1   2
ATOM      2  C   UNL     1      -3.069   3.889   2.399  0.00  0.00    +0.002 A 
ATOM      3  C   UNL     1      -3.494   4.368   1.174  0.00  0.00    +0.008 A 
ATOM      4  C   UNL     1      -4.846   4.500   0.914  0.00  0.00    +0.000 A 
ATOM      5  C   UNL     1      -5.772   4.162   1.883  0.00  0.00    +0.000 A 
ATOM      6  C   UNL     1      -5.346   3.687   3.110  0.00  0.00    +0.000 A 
ATOM      7  C   UNL     1      -3.995   3.551   3.368  0.00  0.00    +0.008 A 
ENDBRANCH   1   2
BRANCH   1   9
ATOM      8  N   UNL     1      -1.458   5.579   4.329  0.00  0.00    -0.280 N 
ATOM      9  C   UNL     1      -1.041   5.057   3.158  0.00  0.00    +0.263 C 
ATOM     10  O   UNL     1      -0.219   5.647   2.490  0.00  0.00    -0.271 OA
ATOM     11  H   UNL     1      -2.161   5.140   4.833  0.00  0.00    +0.155 HD
BRANCH   8  16
ATOM     12  C   UNL     1       0.900  10.343   6.311  0.00  0.00    +0.044 C 
ATOM     13  C   UNL     1       0.274   9.077   5.785  0.00  0.00    -0.048 A 
ATOM     14  C   UNL     1       0.092   8.912   4.424  0.00  0.00    +0.005 A 
ATOM     15  C   UNL     1      -0.477   7.751   3.938  0.00  0.00    +0.026 A 
ATOM     16  C   UNL     1      -0.876   6.754   4.818  0.00  0.00    +0.064 A 
ATOM     17  C   UNL     1      -0.692   6.923   6.184  0.00  0.00    +0.148 A 
ATOM     18  C   UNL     1      -0.117   8.084   6.663  0.00  0.00    +0.038 A 
BRANCH  17  19
ATOM     19  N   UNL     1      -1.111   5.860   7.125  0.00  0.00    +0.058 N 
ATOM     20  O   UNL     1      -1.041   6.048   8.326  0.00  0.00    -0.126 OA
ATOM     21  O   UNL     1      -1.525   4.797   6.698  0.00  0.00    -0.126 OA
ENDBRANCH  17  19
ENDBRANCH   8  16
ENDBRANCH   1   9
BRANCH   1  22
ATOM     22  O   UNL     1      -0.910   3.338   1.466  0.00  0.00    -0.447 OA
BRANCH  22  23
ATOM     23  C   UNL     1      -0.791   2.020   1.240  0.00  0.00    +0.310 C 
ATOM     24  O   UNL     1      -1.247   1.229   2.032  0.00  0.00    -0.251 OA
BRANCH  23  25
ATOM     25  C   UNL     1      -0.091   1.527   0.000  0.00  0.00    +0.144 C 
BRANCH  25  26
ATOM     26  C   UNL     1      -0.095  -0.003  -0.014  0.00  0.00    +0.148 C 
ATOM     27  C   UNL     1       0.710  -0.500  -1.187  0.00  0.00    +0.231 C 
ATOM     28  O   UNL     1       1.856  -0.847  -0.995  0.00  0.00    -0.274 OA
ATOM     29  N   UNL     1       0.224  -0.577  -2.421  0.00  0.00    -0.284 N 
ATOM     30  C   UNL     1      -1.090  -0.337  -2.812  0.00  0.00    +0.047 A 
ATOM     31  C   UNL     1      -1.367  -0.114  -4.158  0.00  0.00    +0.024 A 
ATOM     32  C   UNL     1      -2.662   0.133  -4.570  0.00  0.00    +0.002 A 
ATOM     33  C   UNL     1      -3.696   0.162  -3.653  0.00  0.00    +0.001 A 
ATOM     34  C   UNL     1      -3.436  -0.060  -2.313  0.00  0.00    +0.016 A 
ATOM     35  C   UNL     1      -2.140  -0.312  -1.895  0.00  0.00    +0.030 A 
ATOM     36  S   UNL     1      -1.801  -0.609  -0.187  0.00  0.00    -0.110 S 
ATOM     37  H   UNL     1       0.848  -0.826  -3.120  0.00  0.00    +0.155 HD
ENDBRANCH  25  26
ENDBRANCH  23  25
ENDBRANCH  22  23
ENDBRANCH   1  22
TORSDOF 8
