REMARK  Name = ZINC15731785
REMARK  7 active torsions:
REMARK  status: ('A' for Active; 'I' for Inactive)
REMARK    1  A    between atoms: C_1  and  C_2
REMARK    2  A    between atoms: C_5  and  N_9
REMARK    3  A    between atoms: C_6  and  C_8
REMARK    4  A    between atoms: C_10  and  C_12
REMARK    5  A    between atoms: C_12  and  S_13
REMARK    6  A    between atoms: S_13  and  C_14
REMARK    7  A    between atoms: N_26  and  C_30
REMARK                            x       y       z     vdW  Elec       q    Type
REMARK                         _______ _______ _______ _____ _____    ______ ____
ROOT
ATOM      1  C   UNL     1       0.002  -0.003  -0.029  0.00  0.00    +0.189 A 
ATOM      2  N   UNL     1      -0.017   1.323  -0.027  0.00  0.00    -0.228 NA
ATOM      3  C   UNL     1       1.114   2.018  -0.045  0.00  0.00    +0.144 A 
ATOM      4  C   UNL     1       2.307   1.334  -0.065  0.00  0.00    +0.153 A 
ATOM      5  C   UNL     1       2.306  -0.063  -0.068  0.00  0.00    +0.104 A 
ATOM      6  N   UNL     1       1.132  -0.694  -0.049  0.00  0.00    -0.220 NA
ATOM      7  C   UNL     1       3.570  -0.829  -0.093  0.00  0.00    +0.026 A 
ATOM      8  C   UNL     1       3.515  -2.183  -0.448  0.00  0.00    +0.032 A 
ATOM      9  C   UNL     1       4.666  -2.940  -0.486  0.00  0.00    +0.042 A 
ATOM     10  C   UNL     1       5.889  -2.368  -0.173  0.00  0.00    +0.022 A 
ATOM     11  C   UNL     1       5.959  -1.036   0.177  0.00  0.00    +0.027 A 
ATOM     12  C   UNL     1       4.806  -0.258   0.219  0.00  0.00    +0.060 A 
ATOM     13  N   UNL     1       4.930   1.088   0.578  0.00  0.00    -0.205 N 
ATOM     14  S   UNL     1       3.857   2.176  -0.085  0.00  0.00    +0.078 S 
ATOM     15  O   UNL     1       4.222   2.343  -1.448  0.00  0.00    -0.150 OA
ATOM     16  O   UNL     1       3.751   3.263   0.824  0.00  0.00    -0.150 OA
ATOM     17  C   UNL     1       5.972   1.528   1.509  0.00  0.00    +0.157 C 
ATOM     18 CL   UNL     1       4.583  -4.617  -0.926  0.00  0.00    -0.084 Cl
ENDROOT
BRANCH   1  19
ATOM     19  S   UNL     1      -1.529  -0.875  -0.004  0.00  0.00    -0.077 S 
BRANCH  19  20
ATOM     20  C   UNL     1      -2.684   0.518   0.016  0.00  0.00    +0.173 C 
BRANCH  20  22
ATOM     21  N   UNL     1      -5.134   0.860   0.057  0.00  0.00    -0.285 N 
ATOM     22  C   UNL     1      -4.098  -0.002   0.039  0.00  0.00    +0.227 C 
ATOM     23  O   UNL     1      -4.305  -1.198   0.041  0.00  0.00    -0.275 OA
ATOM     24  H   UNL     1      -4.970   1.813   0.136  0.00  0.00    +0.155 HD
BRANCH  21  29
ATOM     25  C   UNL     1     -10.450  -1.081  -0.330  0.00  0.00    +0.044 C 
ATOM     26  C   UNL     1      -9.038  -0.565  -0.227  0.00  0.00    -0.050 A 
ATOM     27  C   UNL     1      -7.992  -1.310  -0.741  0.00  0.00    +0.005 A 
ATOM     28  C   UNL     1      -6.697  -0.840  -0.648  0.00  0.00    +0.024 A 
ATOM     29  C   UNL     1      -6.445   0.382  -0.038  0.00  0.00    +0.036 A 
ATOM     30  C   UNL     1      -7.496   1.125   0.482  0.00  0.00    -0.029 A 
ATOM     31  C   UNL     1      -8.790   0.651   0.382  0.00  0.00    +0.008 A 
ATOM     32  C   UNL     1      -7.227   2.448   1.151  0.00  0.00    +0.045 C 
ENDBRANCH  21  29
ENDBRANCH  20  22
ENDBRANCH  19  20
ENDBRANCH   1  19
TORSDOF 4
