REMARK  Name = ZINC66119742
REMARK  6 active torsions:
REMARK  status: ('A' for Active; 'I' for Inactive)
REMARK    1  A    between atoms: C_1  and  C_2
REMARK    2  A    between atoms: C_2  and  C_4
REMARK    3  A    between atoms: C_2  and  N_21
REMARK    4  A    between atoms: C_4  and  N_5
REMARK    5  A    between atoms: C_11  and  N_14
REMARK    6  A    between atoms: C_15  and  C_17
REMARK                            x       y       z     vdW  Elec       q    Type
REMARK                         _______ _______ _______ _____ _____    ______ ____
ROOT
ATOM      1  N   UNL     1       0.968  -1.733  -1.470  0.00  0.00    -0.301 N 
ATOM      2  C   UNL     1       1.526  -2.214  -2.598  0.00  0.00    +0.302 C 
ATOM      3  O   UNL     1       1.948  -1.447  -3.442  0.00  0.00    -0.253 OA
ATOM      4  N   UNL     1       1.617  -3.545  -2.791  0.00  0.00    -0.286 N 
ATOM      5  C   UNL     1       1.008  -4.482  -1.838  0.00  0.00    +0.111 C 
ATOM      6  C   UNL     1       0.089  -5.438  -2.605  0.00  0.00    +0.041 C 
ATOM      7  C   UNL     1       0.882  -6.110  -3.728  0.00  0.00    +0.076 C 
ATOM      8  C   UNL     1       1.393  -5.046  -4.702  0.00  0.00    +0.041 C 
ATOM      9  C   UNL     1       2.321  -4.086  -3.961  0.00  0.00    +0.111 C 
ATOM     10  H   UNL     1       0.699  -2.342  -0.764  0.00  0.00    +0.150 HD
ENDROOT
BRANCH   7  11
ATOM     11  N   UNL     1       0.015  -7.050  -4.443  0.00  0.00    -0.312 N 
ATOM     12  C   UNL     1       0.553  -8.095  -5.103  0.00  0.00    +0.216 C 
ATOM     13  O   UNL     1       1.755  -8.257  -5.105  0.00  0.00    -0.276 OA
ATOM     14  H   UNL     1      -0.946  -6.920  -4.442  0.00  0.00    +0.149 HD
BRANCH  12  15
ATOM     15  C   UNL     1      -0.339  -9.061  -5.839  0.00  0.00    +0.075 C 
ATOM     16  C   UNL     1      -0.955 -10.142  -4.934  0.00  0.00    +0.013 C 
ATOM     17  C   UNL     1      -0.702 -11.135  -6.081  0.00  0.00    +0.001 C 
ATOM     18  C   UNL     1       0.427 -10.196  -6.539  0.00  0.00    +0.013 C 
ENDBRANCH  12  15
ENDBRANCH   7  11
BRANCH   1  19
ATOM     19  C   UNL     1       0.768  -0.291  -1.309  0.00  0.00    +0.090 C 
BRANCH  19  21
ATOM     20  C   UNL     1      -0.152   1.486   0.188  0.00  0.00    -0.012 C 
ATOM     21  C   UNL     1       0.013  -0.023  -0.005  0.00  0.00    -0.054 C 
BRANCH  21  22
ATOM     22  N   UNL     1       0.771  -0.580   1.123  0.00  0.00    +0.385 N 
ATOM     23  C   UNL     1       0.058  -0.304   2.380  0.00  0.00    -0.073 C 
ATOM     24  C   UNL     1       0.688  -1.143   3.492  0.00  0.00    +0.017 C 
ATOM     25  C   UNL     1       2.183  -0.947   3.495  0.00  0.00    -0.048 A 
ATOM     26  C   UNL     1       2.901  -1.332   4.616  0.00  0.00    +0.004 A 
ATOM     27  C   UNL     1       4.272  -1.171   4.654  0.00  0.00    +0.000 A 
ATOM     28  C   UNL     1       4.930  -0.624   3.569  0.00  0.00    +0.000 A 
ATOM     29  C   UNL     1       4.215  -0.239   2.453  0.00  0.00    +0.002 A 
ATOM     30  C   UNL     1       2.838  -0.399   2.413  0.00  0.00    -0.061 A 
ATOM     31  C   UNL     1       2.097   0.043   1.179  0.00  0.00    -0.042 C 
ATOM     32  H   UNL     1       0.872  -1.577   1.002  0.00  0.00    -0.081 HD
ENDBRANCH  21  22
ENDBRANCH  19  21
ENDBRANCH   1  19
TORSDOF 5
