REMARK  Name = ZINC04707910
REMARK  7 active torsions:
REMARK  status: ('A' for Active; 'I' for Inactive)
REMARK    1  A    between atoms: C_1  and  C_2
REMARK    2  A    between atoms: C_2  and  C_3
REMARK    3  A    between atoms: C_3  and  C_4
REMARK    4  A    between atoms: C_4  and  N_5
REMARK    5  A    between atoms: N_5  and  C_6
REMARK    6  A    between atoms: C_14  and  N_21
REMARK    7  A    between atoms: C_15  and  N_20
REMARK                            x       y       z     vdW  Elec       q    Type
REMARK                         _______ _______ _______ _____ _____    ______ ____
ROOT
ATOM      1  N   UNL     1      -0.174   1.187  -2.473  0.00  0.00    -0.283 N 
ATOM      2  C   UNL     1       0.871   1.887  -3.022  0.00  0.00    +0.162 A 
ATOM      3  C   UNL     1       0.631   3.029  -3.922  0.00  0.00    +0.187 A 
ATOM      4  C   UNL     1       1.821   3.716  -4.454  0.00  0.00    +0.152 A 
ATOM      5  N   UNL     1       3.014   3.259  -4.098  0.00  0.00    -0.198 NA
ATOM      6  C   UNL     1       3.147   2.220  -3.286  0.00  0.00    +0.216 A 
ATOM      7  N   UNL     1       2.128   1.554  -2.763  0.00  0.00    -0.197 NA
ATOM      8  N   UNL     1       4.419   1.809  -2.967  0.00  0.00    -0.327 N 
ATOM      9  H   UNL     1       4.550   1.052  -2.375  0.00  0.00    +0.145 HD
ATOM     10  H   UNL     1       5.186   2.277  -3.333  0.00  0.00    +0.145 HD
ENDROOT
BRANCH   1  11
ATOM     11  C   UNL     1      -0.638   0.023  -3.092  0.00  0.00    +0.035 A 
ATOM     12  C   UNL     1      -1.613  -0.752  -2.477  0.00  0.00    +0.024 A 
ATOM     13  C   UNL     1      -2.072  -1.899  -3.094  0.00  0.00    +0.017 A 
ATOM     14  C   UNL     1      -1.554  -2.283  -4.318  0.00  0.00    +0.018 A 
ATOM     15  C   UNL     1      -0.579  -1.516  -4.931  0.00  0.00    +0.017 A 
ATOM     16  C   UNL     1      -0.119  -0.365  -4.322  0.00  0.00    +0.024 A 
ATOM     17 BR   UNL     1      -2.180  -3.858  -5.156  0.00  0.00    -0.050 Br
ENDBRANCH   1  11
BRANCH   4  18
ATOM     18  N   UNL     1       1.699   4.793  -5.296  0.00  0.00    -0.341 N 
ATOM     19  H   UNL     1       2.489   5.186  -5.698  0.00  0.00    +0.144 HD
ATOM     20  H   UNL     1       0.822   5.160  -5.489  0.00  0.00    +0.144 HD
ENDBRANCH   4  18
BRANCH   3  21
ATOM     21  N   UNL     1      -0.593   3.421  -4.234  0.00  0.00    -0.024 NA
ATOM     22  O   UNL     1      -1.554   2.777  -3.853  0.00  0.00    -0.143 OA
ENDBRANCH   3  21
BRANCH   1  23
ATOM     23  C   UNL     1      -0.805   1.660  -1.238  0.00  0.00    +0.112 C 
BRANCH  23  24
ATOM     24  C   UNL     1      -0.093   1.042  -0.033  0.00  0.00    +0.019 C 
BRANCH  24  26
ATOM     25  C   UNL     1      -0.039   0.918   2.462  0.00  0.00    +0.004 C 
ATOM     26  C   UNL     1      -0.751   1.536   1.257  0.00  0.00    -0.002 C 
ENDBRANCH  24  26
ENDBRANCH  23  24
ENDBRANCH   1  23
TORSDOF 6
