REMARK  Name = ZINC09143721
REMARK  6 active torsions:
REMARK  status: ('A' for Active; 'I' for Inactive)
REMARK    1  A    between atoms: C_1  and  C_2
REMARK    2  A    between atoms: C_8  and  C_10
REMARK    3  A    between atoms: C_10  and  S_11
REMARK    4  A    between atoms: S_11  and  C_12
REMARK    5  A    between atoms: C_15  and  C_20
REMARK    6  A    between atoms: N_16  and  C_17
REMARK                            x       y       z     vdW  Elec       q    Type
REMARK                         _______ _______ _______ _____ _____    ______ ____
ROOT
ATOM      1  C   UNL     1      -0.118  -9.072  -0.335  0.00  0.00    +0.193 A 
ATOM      2  N   UNL     1      -0.013  -9.361   0.943  0.00  0.00    -0.122 NA
ATOM      3  N   UNL     1       0.299 -10.598   1.093  0.00  0.00    -0.125 NA
ATOM      4  C   UNL     1       0.413 -11.178  -0.082  0.00  0.00    +0.201 A 
ATOM      5  N   UNL     1       0.143 -10.218  -1.033  0.00  0.00    -0.297 N 
ENDROOT
BRANCH   4   6
ATOM      6  C   UNL     1       0.757 -12.586  -0.334  0.00  0.00    +0.172 A 
ATOM      7  C   UNL     1       0.731 -13.592   0.585  0.00  0.00    +0.053 A 
ATOM      8  C   UNL     1       1.131 -14.764  -0.087  0.00  0.00    +0.042 A 
ATOM      9  C   UNL     1       1.379 -14.421  -1.367  0.00  0.00    +0.196 A 
ATOM     10  O   UNL     1       1.147 -13.106  -1.514  0.00  0.00    -0.460 OA
ENDBRANCH   4   6
BRANCH   5  11
ATOM     11  C   UNL     1       0.140 -10.388  -2.488  0.00  0.00    +0.091 C 
ATOM     12  C   UNL     1       0.205  -9.124  -3.348  0.00  0.00    +0.027 C 
ATOM     13  C   UNL     1      -1.099  -9.918  -3.252  0.00  0.00    +0.027 C 
ENDBRANCH   5  11
BRANCH   1  14
ATOM     14  S   UNL     1      -0.527  -7.501  -1.021  0.00  0.00    -0.077 S 
BRANCH  14  15
ATOM     15  C   UNL     1      -0.746  -6.433   0.429  0.00  0.00    +0.173 C 
BRANCH  15  23
ATOM     16  C   UNL     1      -2.632   1.166   0.055  0.00  0.00    +0.075 C 
ATOM     17  C   UNL     1      -2.272  -0.297   0.041  0.00  0.00    +0.101 A 
ATOM     18  N   UNL     1      -2.102  -1.116  -0.978  0.00  0.00    -0.145 NA
ATOM     19  N   UNL     1      -1.798  -2.321  -0.753  0.00  0.00    -0.126 NA
ATOM     20  C   UNL     1      -1.645  -2.785   0.472  0.00  0.00    +0.188 A 
ATOM     21  S   UNL     1      -1.948  -1.411   1.401  0.00  0.00    -0.036 S 
ATOM     22  N   UNL     1      -1.315  -4.070   0.888  0.00  0.00    -0.263 N 
ATOM     23  C   UNL     1      -1.104  -5.040  -0.023  0.00  0.00    +0.229 C 
ATOM     24  O   UNL     1      -1.201  -4.793  -1.206  0.00  0.00    -0.275 OA
ATOM     25  H   UNL     1      -1.237  -4.268   1.835  0.00  0.00    +0.157 HD
ENDBRANCH  15  23
ENDBRANCH  14  15
ENDBRANCH   1  14
TORSDOF 5
