REMARK  Name = ZINC08568307
REMARK  7 active torsions:
REMARK  status: ('A' for Active; 'I' for Inactive)
REMARK    1  A    between atoms: C_1  and  C_2
REMARK    2  A    between atoms: C_2  and  C_3
REMARK    3  A    between atoms: C_3  and  C_4
REMARK    4  A    between atoms: C_11  and  N_30
REMARK    5  A    between atoms: C_12  and  C_28
REMARK    6  A    between atoms: C_13  and  C_15
REMARK    7  A    between atoms: C_20  and  C_21
REMARK                            x       y       z     vdW  Elec       q    Type
REMARK                         _______ _______ _______ _____ _____    ______ ____
ROOT
ATOM      1  C   UNL     1      -1.519  -2.601   0.311  0.00  0.00    +0.044 A 
ATOM      2  C   UNL     1      -1.222  -3.204   1.472  0.00  0.00    +0.049 A 
ATOM      3  C   UNL     1      -1.239  -4.600   1.258  0.00  0.00    +0.245 A 
ATOM      4  N   UNL     1      -1.536  -4.812   0.009  0.00  0.00    -0.135 NA
ATOM      5  N   UNL     1      -1.724  -3.568  -0.613  0.00  0.00    -0.278 N 
ATOM      6  H   UNL     1      -1.958  -3.426  -1.544  0.00  0.00    +0.189 HD
ATOM      7  O   UNL     1      -0.978  -5.486   2.257  0.00  0.00    -0.421 OA
ATOM      8  C   UNL     1      -0.966  -5.013   3.519  0.00  0.00    +0.201 C 
ATOM      9  C   UNL     1      -0.937  -3.704   3.845  0.00  0.00    +0.098 C 
ATOM     10  C   UNL     1      -0.908  -2.600   2.817  0.00  0.00    +0.105 C 
ENDROOT
BRANCH  10  11
ATOM     11  C   UNL     1       0.460  -1.970   2.785  0.00  0.00    +0.010 A 
ATOM     12  C   UNL     1       1.596  -2.555   2.347  0.00  0.00    +0.110 A 
ATOM     13  N   UNL     1       2.602  -1.665   2.482  0.00  0.00    -0.284 N 
ATOM     14  H   UNL     1       3.531  -1.815   2.245  0.00  0.00    +0.188 HD
ATOM     15  N   UNL     1       2.072  -0.486   3.023  0.00  0.00    -0.174 NA
ATOM     16  C   UNL     1       0.781  -0.663   3.202  0.00  0.00    +0.097 A 
BRANCH  16  17
ATOM     17  C   UNL     1      -0.170   0.337   3.750  0.00  0.00    +0.003 A 
ATOM     18  C   UNL     1      -1.463   0.424   3.240  0.00  0.00    +0.013 A 
ATOM     19  C   UNL     1      -2.344   1.355   3.752  0.00  0.00    +0.039 A 
ATOM     20  C   UNL     1      -1.943   2.202   4.772  0.00  0.00    +0.123 A 
ATOM     21  C   UNL     1      -0.658   2.119   5.283  0.00  0.00    +0.039 A 
ATOM     22  C   UNL     1       0.227   1.187   4.780  0.00  0.00    +0.013 A 
ATOM     23  F   UNL     1      -2.808   3.113   5.271  0.00  0.00    -0.205 F 
ENDBRANCH  16  17
ENDBRANCH  10  11
BRANCH   8  24
ATOM     24  N   UNL     1      -0.986  -5.926   4.543  0.00  0.00    -0.328 N 
ATOM     25  H   UNL     1      -1.007  -6.875   4.346  0.00  0.00    +0.145 HD
ATOM     26  H   UNL     1      -0.978  -5.622   5.464  0.00  0.00    +0.145 HD
ENDBRANCH   8  24
BRANCH   9  27
ATOM     27  C   UNL     1      -0.933  -3.345   5.231  0.00  0.00    +0.101 C 
ATOM     28  N   UNL     1      -0.929  -3.061   6.331  0.00  0.00    -0.191 NA
ENDBRANCH   9  27
BRANCH   1  29
ATOM     29  C   UNL     1      -1.614  -1.115   0.080  0.00  0.00    +0.055 C 
BRANCH  29  31
ATOM     30  C   UNL     1      -0.307   0.971  -0.346  0.00  0.00    +0.004 C 
ATOM     31  C   UNL     1      -0.210  -0.537  -0.111  0.00  0.00    +0.003 C 
ENDBRANCH  29  31
ENDBRANCH   1  29
TORSDOF 6
