REMARK  Name = ZINC11614670
REMARK  6 active torsions:
REMARK  status: ('A' for Active; 'I' for Inactive)
REMARK    1  A    between atoms: C_1  and  N_46
REMARK    2  A    between atoms: C_2  and  N_46
REMARK    3  A    between atoms: C_3  and  C_4
REMARK    4  A    between atoms: C_3  and  N_46
REMARK    5  A    between atoms: C_4  and  N_5
REMARK    6  A    between atoms: C_6  and  C_22
REMARK                            x       y       z     vdW  Elec       q    Type
REMARK                         _______ _______ _______ _____ _____    ______ ____
ROOT
ATOM      1  N   UNL     1       1.237   1.962   0.001  0.00  0.00    -0.285 N 
ATOM      2  C   UNL     1       2.160   0.820  -0.014  0.00  0.00    +0.144 C 
ATOM      3  C   UNL     1       1.294  -0.413  -0.013  0.00  0.00    +0.072 A 
ATOM      4  C   UNL     1       1.606  -1.845  -0.023  0.00  0.00    +0.199 A 
ATOM      5  O   UNL     1       2.756  -2.249  -0.036  0.00  0.00    -0.287 OA
ATOM      6  C   UNL     1       0.459  -2.773  -0.016  0.00  0.00    +0.066 A 
ATOM      7  C   UNL     1       0.641  -4.155  -0.025  0.00  0.00    +0.035 A 
ATOM      8  C   UNL     1      -0.459  -4.985  -0.017  0.00  0.00    +0.042 A 
ATOM      9  C   UNL     1      -1.740  -4.447  -0.002  0.00  0.00    +0.023 A 
ATOM     10  C   UNL     1      -1.932  -3.083   0.006  0.00  0.00    +0.048 A 
ATOM     11  C   UNL     1      -0.836  -2.226  -0.001  0.00  0.00    +0.140 A 
ATOM     12  O   UNL     1      -1.012  -0.892   0.007  0.00  0.00    -0.450 OA
ATOM     13  C   UNL     1       0.002  -0.004   0.002  0.00  0.00    +0.199 A 
ATOM     14  C   UNL     1      -0.018   1.480   0.010  0.00  0.00    +0.283 C 
ATOM     15  O   UNL     1      -1.024   2.162   0.019  0.00  0.00    -0.267 OA
ATOM     16 CL   UNL     1      -0.244  -6.708  -0.026  0.00  0.00    -0.084 Cl
ENDROOT
BRANCH   2  17
ATOM     17  C   UNL     1       3.010   0.856  -1.258  0.00  0.00    -0.021 A 
ATOM     18  C   UNL     1       4.340   0.486  -1.197  0.00  0.00    +0.006 A 
ATOM     19  C   UNL     1       5.121   0.519  -2.337  0.00  0.00    +0.002 A 
ATOM     20  C   UNL     1       4.571   0.922  -3.540  0.00  0.00    +0.020 A 
ATOM     21  C   UNL     1       3.240   1.292  -3.602  0.00  0.00    +0.041 A 
ATOM     22  C   UNL     1       2.458   1.254  -2.461  0.00  0.00    +0.025 A 
ATOM     23 CL   UNL     1       2.549   1.798  -5.112  0.00  0.00    -0.084 Cl
ENDBRANCH   2  17
BRANCH   1  24
ATOM     24  C   UNL     1       1.617   3.377   0.004  0.00  0.00    +0.090 C 
BRANCH  24  25
ATOM     25  C   UNL     1       1.763   3.862   1.448  0.00  0.00    -0.060 C 
BRANCH  25  28
ATOM     26  C   UNL     1       2.063   5.845   2.805  0.00  0.00    -0.097 C 
ATOM     27  C   UNL     1       3.485   5.467   0.882  0.00  0.00    -0.097 C 
ATOM     28  N   UNL     1       2.125   5.295   1.434  0.00  0.00    +0.377 N 
ATOM     29  H   UNL     1       1.458   5.802   0.841  0.00  0.00    -0.083 HD
ENDBRANCH  25  28
ENDBRANCH  24  25
ENDBRANCH   1  24
TORSDOF 4
