REMARK  Name = ZINC08203107
REMARK  8 active torsions:
REMARK  status: ('A' for Active; 'I' for Inactive)
REMARK    1  A    between atoms: C_1  and  C_2
REMARK    2  A    between atoms: C_2  and  N_3
REMARK    3  A    between atoms: C_4  and  C_20
REMARK    4  A    between atoms: C_7  and  S_8
REMARK    5  A    between atoms: S_8  and  C_9
REMARK    6  A    between atoms: C_9  and  C_10
REMARK    7  A    between atoms: C_23  and  C_26
REMARK    8  A    between atoms: C_24  and  C_25
REMARK                            x       y       z     vdW  Elec       q    Type
REMARK                         _______ _______ _______ _____ _____    ______ ____
ROOT
ATOM      1  N   UNL     1      -0.799   1.648   1.134  0.00  0.00    -0.302 N 
ATOM      2  C   UNL     1      -0.401   2.679   1.954  0.00  0.00    +0.166 A 
ATOM      3  N   UNL     1      -1.168   2.641   3.019  0.00  0.00    -0.128 NA
ATOM      4  N   UNL     1      -2.000   1.665   2.927  0.00  0.00    -0.122 NA
ATOM      5  C   UNL     1      -1.820   1.024   1.796  0.00  0.00    +0.192 A 
ENDROOT
BRANCH   2   6
ATOM      6  C   UNL     1       0.682   3.648   1.685  0.00  0.00    +0.029 A 
ATOM      7  C   UNL     1       1.913   3.224   1.260  0.00  0.00    +0.057 A 
ATOM      8  S   UNL     1       2.799   4.765   1.098  0.00  0.00    -0.101 S 
ATOM      9  C   UNL     1       1.490   5.870   1.600  0.00  0.00    -0.010 A 
ATOM     10  C   UNL     1       0.473   5.016   1.851  0.00  0.00    -0.030 A 
ATOM     11  C   UNL     1      -0.865   5.534   2.309  0.00  0.00    +0.045 C 
ATOM     12  C   UNL     1       1.511   7.372   1.710  0.00  0.00    +0.052 C 
ENDBRANCH   2   6
BRANCH   1  14
ATOM     13  C   UNL     1      -0.965   2.075  -1.269  0.00  0.00    +0.027 C 
ATOM     14  C   UNL     1      -0.241   1.290  -0.172  0.00  0.00    +0.122 C 
ENDBRANCH   1  14
BRANCH   5  15
ATOM     15  S   UNL     1      -2.726  -0.379   1.235  0.00  0.00    -0.080 S 
BRANCH  15  16
ATOM     16  C   UNL     1      -3.866  -0.594   2.624  0.00  0.00    +0.133 C 
BRANCH  16  17
ATOM     17  C   UNL     1      -4.766  -1.773   2.358  0.00  0.00    +0.059 A 
ATOM     18  C   UNL     1      -4.566  -2.970   3.012  0.00  0.00    +0.095 A 
ATOM     19  C   UNL     1      -5.414  -4.048   2.757  0.00  0.00    +0.259 A 
ATOM     20  O   UNL     1      -5.245  -5.109   3.338  0.00  0.00    -0.267 OA
ATOM     21  N   UNL     1      -6.429  -3.918   1.853  0.00  0.00    -0.262 N 
ATOM     22  C   UNL     1      -7.337  -4.884   1.491  0.00  0.00    +0.104 A 
ATOM     23  C   UNL     1      -8.287  -4.633   0.591  0.00  0.00    +0.067 A 
ATOM     24  S   UNL     1      -7.952  -2.930   0.170  0.00  0.00    -0.058 S 
ATOM     25  C   UNL     1      -6.553  -2.697   1.245  0.00  0.00    +0.180 A 
ATOM     26  N   UNL     1      -5.764  -1.678   1.484  0.00  0.00    -0.227 NA
ENDBRANCH  16  17
ENDBRANCH  15  16
ENDBRANCH   5  15
TORSDOF 5
