REMARK  Name = ZINC30884004
REMARK  9 active torsions:
REMARK  status: ('A' for Active; 'I' for Inactive)
REMARK    1  A    between atoms: C_1  and  C_2
REMARK    2  A    between atoms: C_4  and  N_31
REMARK    3  A    between atoms: C_8  and  C_30
REMARK    4  A    between atoms: C_11  and  O_29
REMARK    5  A    between atoms: C_13  and  C_17
REMARK    6  A    between atoms: C_17  and  C_19
REMARK    7  A    between atoms: C_17  and  C_20
REMARK    8  A    between atoms: C_25  and  C_28
REMARK    9  A    between atoms: C_32  and  C_34
REMARK                            x       y       z     vdW  Elec       q    Type
REMARK                         _______ _______ _______ _____ _____    ______ ____
ROOT
ATOM      1  C   UNL     1      -0.196   1.746   0.536  0.00  0.00    +0.010 C 
ATOM      2  C   UNL     1      -0.153   0.236   0.291  0.00  0.00    +0.012 C 
ATOM      3  C   UNL     1      -1.562  -0.344   0.427  0.00  0.00    +0.076 C 
ATOM      4  C   UNL     1      -1.519  -1.853   0.181  0.00  0.00    +0.023 C 
ATOM      5  C   UNL     1      -0.595  -2.511   1.209  0.00  0.00    +0.009 C 
ATOM      6  C   UNL     1       0.814  -1.931   1.073  0.00  0.00    -0.027 C 
ATOM      7  C   UNL     1       0.771  -0.422   1.318  0.00  0.00    +0.028 C 
ATOM      8  C   UNL     1       2.180   0.158   1.182  0.00  0.00    +0.122 C 
ATOM      9  C   UNL     1       3.103  -0.500   2.209  0.00  0.00    +0.029 C 
ATOM     10  C   UNL     1       3.147  -2.009   1.964  0.00  0.00    +0.007 C 
ATOM     11  C   UNL     1       1.737  -2.589   2.100  0.00  0.00    +0.007 C 
ATOM     12  C   UNL     1       1.343  -2.204  -0.337  0.00  0.00    +0.011 C 
ENDROOT
BRANCH   3  13
ATOM     13  N   UNL     1      -2.446   0.286  -0.557  0.00  0.00    -0.307 N 
ATOM     14  C   UNL     1      -3.774   0.342  -0.332  0.00  0.00    +0.264 C 
ATOM     15  O   UNL     1      -4.238  -0.130   0.688  0.00  0.00    -0.268 OA
ATOM     16  H   UNL     1      -2.076   0.663  -1.371  0.00  0.00    +0.149 HD
BRANCH  14  17
ATOM     17  C   UNL     1      -4.668   0.979  -1.327  0.00  0.00    +0.143 A 
ATOM     18  C   UNL     1      -6.041   1.042  -1.093  0.00  0.00    +0.143 A 
ATOM     19  N   UNL     1      -6.834   1.612  -1.983  0.00  0.00    -0.259 NA
ATOM     20  C   UNL     1      -6.327   2.119  -3.092  0.00  0.00    +0.130 A 
ATOM     21  C   UNL     1      -4.962   2.057  -3.328  0.00  0.00    +0.131 A 
ATOM     22  N   UNL     1      -4.163   1.496  -2.443  0.00  0.00    -0.247 NA
ENDBRANCH  14  17
ENDBRANCH   3  13
BRANCH   9  23
ATOM     23  C   UNL     1       4.513   0.080   2.073  0.00  0.00    +0.078 C 
ATOM     24  C   UNL     1       5.096  -0.311   0.714  0.00  0.00    +0.017 C 
BRANCH  23  25
ATOM     25  C   UNL     1       5.389  -0.466   3.171  0.00  0.00    +0.219 C 
ATOM     26  O   UNL     1       6.074  -1.446   2.970  0.00  0.00    -0.275 OA
ATOM     27  N   UNL     1       5.411   0.135   4.377  0.00  0.00    -0.301 N 
ATOM     28  C   UNL     1       4.501   1.250   4.675  0.00  0.00    +0.108 C 
ATOM     29  C   UNL     1       3.729   0.927   5.958  0.00  0.00    +0.022 C 
ATOM     30  C   UNL     1       4.721   0.609   7.079  0.00  0.00    -0.011 C 
ATOM     31  C   UNL     1       5.552  -0.618   6.694  0.00  0.00    +0.022 C 
ATOM     32  C   UNL     1       6.341  -0.316   5.422  0.00  0.00    +0.108 C 
ATOM     33  C   UNL     1       3.954   0.319   8.371  0.00  0.00    +0.007 C 
ENDBRANCH  23  25
ENDBRANCH   9  23
BRANCH   8  34
ATOM     34  O   UNL     1       2.140   1.568   1.411  0.00  0.00    -0.391 OA
ATOM     35  H   UNL     1       2.983   2.015   1.259  0.00  0.00    +0.210 HD
ENDBRANCH   8  34
TORSDOF 5
