REMARK  Name = ZINC40342036
REMARK  7 active torsions:
REMARK  status: ('A' for Active; 'I' for Inactive)
REMARK    1  A    between atoms: C_6  and  C_7
REMARK    2  A    between atoms: N_15  and  C_27
REMARK    3  A    between atoms: C_16  and  C_18
REMARK    4  A    between atoms: C_21  and  N_24
REMARK    5  A    between atoms: C_27  and  C_28
REMARK    6  A    between atoms: C_28  and  C_29
REMARK    7  A    between atoms: C_29  and  N_30
REMARK                            x       y       z     vdW  Elec       q    Type
REMARK                         _______ _______ _______ _____ _____    ______ ____
ROOT
ATOM      1  C   UNL     1      -1.268  -0.764   0.011  0.00  0.00    +0.072 A 
ATOM      2  C   UNL     1      -1.576  -1.837  -0.762  0.00  0.00    +0.035 A 
ATOM      3  C   UNL     1      -2.888  -2.215  -0.398  0.00  0.00    +0.153 A 
ATOM      4  N   UNL     1      -3.282  -1.378   0.540  0.00  0.00    -0.168 NA
ATOM      5  H   UNL     1      -2.420   0.182   1.461  0.00  0.00    +0.189 HD
ATOM      6  N   UNL     1      -2.355  -0.526   0.801  0.00  0.00    -0.276 N 
ATOM      7  C   UNL     1      -3.266  -3.382  -1.216  0.00  0.00    +0.268 C 
ATOM      8  O   UNL     1      -4.335  -3.957  -1.152  0.00  0.00    -0.268 OA
ATOM      9  N   UNL     1      -2.262  -3.722  -2.042  0.00  0.00    -0.285 N 
ATOM     10  C   UNL     1      -1.139  -2.800  -1.833  0.00  0.00    +0.141 C 
ENDROOT
BRANCH   1  16
ATOM     11  C   UNL     1      -0.017   1.391   0.010  0.00  0.00    +0.011 A 
ATOM     12  C   UNL     1       1.170   2.094   0.002  0.00  0.00    +0.020 A 
ATOM     13  C   UNL     1       2.378   1.418  -0.013  0.00  0.00    +0.041 A 
ATOM     14  C   UNL     1       2.403   0.034  -0.021  0.00  0.00    +0.020 A 
ATOM     15  C   UNL     1       1.222  -0.680  -0.014  0.00  0.00    +0.011 A 
ATOM     16  C   UNL     1       0.002  -0.004   0.002  0.00  0.00    +0.000 A 
ATOM     17 CL   UNL     1       3.868   2.310  -0.023  0.00  0.00    -0.084 Cl
ENDBRANCH   1  16
BRANCH  10  18
ATOM     18  C   UNL     1      -0.837  -2.054  -3.107  0.00  0.00    -0.022 A 
ATOM     19  C   UNL     1      -1.870  -1.630  -3.922  0.00  0.00    +0.008 A 
ATOM     20  C   UNL     1      -1.592  -0.946  -5.091  0.00  0.00    +0.033 A 
ATOM     21  C   UNL     1      -0.281  -0.686  -5.444  0.00  0.00    +0.126 A 
ATOM     22  C   UNL     1       0.752  -1.109  -4.629  0.00  0.00    +0.033 A 
ATOM     23  C   UNL     1       0.474  -1.789  -3.458  0.00  0.00    +0.008 A 
BRANCH  21  24
ATOM     24  N   UNL     1       0.016   0.046  -6.696  0.00  0.00    +0.056 N 
ATOM     25  O   UNL     1      -0.887   0.416  -7.410  0.00  0.00    -0.126 OA
ATOM     26  O   UNL     1       1.163   0.274  -7.006  0.00  0.00    -0.126 OA
ENDBRANCH  21  24
ENDBRANCH  10  18
BRANCH   9  27
ATOM     27  C   UNL     1      -2.284  -4.832  -2.997  0.00  0.00    +0.111 C 
BRANCH  27  28
ATOM     28  C   UNL     1      -2.825  -4.339  -4.340  0.00  0.00    +0.040 C 
BRANCH  28  29
ATOM     29  C   UNL     1      -2.849  -5.499  -5.338  0.00  0.00    +0.124 C 
BRANCH  29  30
ATOM     30  N   UNL     1      -3.367  -5.027  -6.624  0.00  0.00    -0.338 N 
ATOM     31  C   UNL     1      -4.679  -5.014  -7.015  0.00  0.00    +0.104 A 
ATOM     32  C   UNL     1      -4.709  -4.502  -8.261  0.00  0.00    +0.101 A 
ATOM     33  N   UNL     1      -3.450  -4.211  -8.620  0.00  0.00    -0.352 N 
ATOM     34  C   UNL     1      -2.641  -4.518  -7.643  0.00  0.00    +0.173 A 
ATOM     35  H   UNL     1      -3.182  -3.829  -9.471  0.00  0.00    +0.166 HD
ENDBRANCH  29  30
ENDBRANCH  28  29
ENDBRANCH  27  28
ENDBRANCH   9  27
TORSDOF 7
