REMARK  Name = ZINC16041560
REMARK  9 active torsions:
REMARK  status: ('A' for Active; 'I' for Inactive)
REMARK    1  A    between atoms: C_1  and  C_2
REMARK    2  A    between atoms: C_2  and  C_36
REMARK    3  A    between atoms: C_7  and  C_8
REMARK    4  A    between atoms: C_7  and  N_78
REMARK    5  A    between atoms: C_8  and  C_9
REMARK    6  A    between atoms: C_9  and  O_11
REMARK    7  A    between atoms: O_11  and  C_12
REMARK    8  A    between atoms: C_16  and  C_35
REMARK    9  A    between atoms: C_21  and  C_34
REMARK                            x       y       z     vdW  Elec       q    Type
REMARK                         _______ _______ _______ _____ _____    ______ ____
ROOT
ATOM      1  C   UNL     1       0.099   1.006  -7.253  0.00  0.00    +0.180 C 
ATOM      2  C   UNL     1      -0.308   1.892  -8.429  0.00  0.00    +0.046 C 
ATOM      3  C   UNL     1       0.491   1.553  -9.682  0.00  0.00    +0.015 C 
ATOM      4  C   UNL     1       0.290   0.082 -10.083  0.00  0.00    -0.008 C 
ATOM      5  C   UNL     1       1.125  -0.223 -11.305  0.00  0.00    +0.003 C 
ATOM      6  C   UNL     1       0.425   0.130 -12.609  0.00  0.00    +0.005 C 
ATOM      7  C   UNL     1      -0.462  -0.950 -13.219  0.00  0.00    +0.015 C 
ATOM      8  C   UNL     1       0.187  -2.310 -13.168  0.00  0.00    +0.029 C 
ATOM      9  C   UNL     1       0.643  -2.605 -11.718  0.00  0.00    +0.006 C 
ATOM     10  C   UNL     1       1.723  -1.628 -11.343  0.00  0.00    +0.001 C 
ATOM     11  C   UNL     1       2.405  -1.984 -10.030  0.00  0.00    +0.031 C 
ATOM     12  C   UNL     1       1.522  -1.685  -8.861  0.00  0.00    -0.027 C 
ATOM     13  C   UNL     1       0.612  -0.762  -8.883  0.00  0.00    -0.064 C 
ATOM     14  C   UNL     1      -0.146  -0.468  -7.599  0.00  0.00    +0.075 C 
ATOM     15  C   UNL     1       1.040  -4.083 -11.820  0.00  0.00    +0.012 C 
ATOM     16  C   UNL     1      -0.088  -4.666 -12.716  0.00  0.00    +0.075 C 
ATOM     17  C   UNL     1      -0.714  -3.488 -13.457  0.00  0.00    +0.139 C 
ATOM     18  O   UNL     1      -1.711  -3.485 -14.131  0.00  0.00    -0.297 OA
ATOM     19  C   UNL     1       1.353  -2.365 -14.156  0.00  0.00    +0.019 C 
ATOM     20  C   UNL     1      -1.196  -0.103 -10.386  0.00  0.00    +0.016 C 
ENDROOT
BRANCH   1  21
ATOM     21  O   UNL     1      -0.687   1.361  -6.083  0.00  0.00    -0.461 OA
BRANCH  21  22
ATOM     22  C   UNL     1      -0.110   1.183  -4.884  0.00  0.00    +0.306 C 
ATOM     23  O   UNL     1       1.014   0.746  -4.814  0.00  0.00    -0.251 OA
BRANCH  22  24
ATOM     24  C   UNL     1      -0.865   1.530  -3.626  0.00  0.00    +0.102 C 
BRANCH  24  25
ATOM     25  C   UNL     1       0.013   1.235  -2.408  0.00  0.00    -0.068 C 
BRANCH  25  33
ATOM     26  C   UNL     1      -0.002   1.054   2.507  0.00  0.00    +0.009 C 
ATOM     27  C   UNL     1      -0.729   1.579   1.267  0.00  0.00    -0.050 C 
ATOM     28  C   UNL     1      -2.170   1.064   1.264  0.00  0.00    +0.003 C 
ATOM     29  C   UNL     1      -2.873   1.544  -0.009  0.00  0.00    -0.018 C 
ATOM     30  C   UNL     1      -2.095   1.052  -1.231  0.00  0.00    -0.079 C 
ATOM     31  C   UNL     1      -0.013   1.086   0.008  0.00  0.00    -0.072 C 
ATOM     32  C   UNL     1      -0.733   3.109   1.286  0.00  0.00    +0.009 C 
ATOM     33  N   UNL     1      -0.724   1.602  -1.181  0.00  0.00    +0.380 N 
ATOM     34  H   UNL     1      -0.778   2.626  -1.119  0.00  0.00    -0.082 HD
ENDBRANCH  25  33
ENDBRANCH  24  25
ENDBRANCH  22  24
ENDBRANCH  21  22
ENDBRANCH   1  21
TORSDOF 5
