REMARK  Name = ZINC64010147
REMARK  9 active torsions:
REMARK  status: ('A' for Active; 'I' for Inactive)
REMARK    1  A    between atoms: C_1  and  C_2
REMARK    2  A    between atoms: C_2  and  C_3
REMARK    3  A    between atoms: C_2  and  N_10
REMARK    4  A    between atoms: C_14  and  C_16
REMARK    5  A    between atoms: C_16  and  N_17
REMARK    6  A    between atoms: N_21  and  C_24
REMARK    7  A    between atoms: C_24  and  C_25
REMARK    8  A    between atoms: C_24  and  C_26
REMARK    9  A    between atoms: C_24  and  C_27
REMARK                            x       y       z     vdW  Elec       q    Type
REMARK                         _______ _______ _______ _____ _____    ______ ____
ROOT
ATOM      1  N   UNL     1       1.922   0.687   2.046  0.00  0.00    -0.296 N 
ATOM      2  C   UNL     1       1.149   0.401   3.111  0.00  0.00    +0.306 C 
ATOM      3  O   UNL     1      -0.040   0.653   3.085  0.00  0.00    -0.252 OA
ATOM      4  N   UNL     1       1.693  -0.165   4.207  0.00  0.00    -0.242 N 
ATOM      5  C   UNL     1       0.919  -0.451   5.273  0.00  0.00    +0.204 C 
ATOM      6  O   UNL     1      -0.267  -0.200   5.246  0.00  0.00    -0.277 OA
ATOM      7  H   UNL     1       2.871   0.486   2.067  0.00  0.00    +0.151 HD
ATOM      8  H   UNL     1       2.641  -0.366   4.228  0.00  0.00    +0.159 HD
ENDROOT
BRANCH   1  10
ATOM      9  C   UNL     1       1.277   2.820   1.039  0.00  0.00    +0.028 C 
ATOM     10  C   UNL     1       1.331   1.302   0.855  0.00  0.00    +0.075 C 
BRANCH  10  11
ATOM     11  C   UNL     1       2.184   0.967  -0.370  0.00  0.00    +0.012 C 
ATOM     12  C   UNL     1       1.514   1.501  -1.656  0.00  0.00    +0.009 C 
ATOM     13  C   UNL     1       1.245   0.229  -2.518  0.00  0.00    -0.010 C 
ATOM     14  C   UNL     1       2.661  -0.238  -2.975  0.00  0.00    +0.004 C 
ATOM     15  C   UNL     1       3.331  -0.772  -1.689  0.00  0.00    +0.004 C 
ATOM     16  C   UNL     1       2.257  -0.577  -0.575  0.00  0.00    -0.006 C 
ATOM     17  C   UNL     1       0.941  -0.824  -1.394  0.00  0.00    +0.007 C 
ENDBRANCH  10  11
ENDBRANCH   1  10
BRANCH   5  18
ATOM     18  C   UNL     1       1.527  -1.084   6.497  0.00  0.00    +0.019 C 
BRANCH  18  19
ATOM     19  N   UNL     1       0.484  -1.294   7.510  0.00  0.00    +0.386 N 
ATOM     20  C   UNL     1      -0.505  -2.199   6.979  0.00  0.00    -0.077 C 
ATOM     21  C   UNL     1      -1.886  -1.773   7.514  0.00  0.00    -0.003 C 
ATOM     22  C   UNL     1      -2.128  -2.252   8.871  0.00  0.00    +0.083 C 
ATOM     23  N   UNL     1      -1.127  -1.715   9.828  0.00  0.00    -0.299 NA
ATOM     24  C   UNL     1       0.107  -2.453   9.715  0.00  0.00    +0.066 C 
ATOM     25  C   UNL     1       1.115  -1.803   8.750  0.00  0.00    -0.063 C 
ATOM     26  H   UNL     1       0.041  -0.409   7.709  0.00  0.00    -0.081 HD
BRANCH  23  27
ATOM     27  C   UNL     1      -1.640  -1.755  11.204  0.00  0.00    +0.013 C 
ATOM     28  C   UNL     1      -1.871  -3.209  11.620  0.00  0.00    +0.027 C 
ATOM     29  C   UNL     1      -0.622  -1.110  12.146  0.00  0.00    +0.027 C 
ATOM     30  C   UNL     1      -2.961  -0.987  11.278  0.00  0.00    +0.027 C 
ENDBRANCH  23  27
ENDBRANCH  18  19
ENDBRANCH   5  18
TORSDOF 5
