REMARK  Name = ZINC20179759
REMARK  11 active torsions:
REMARK  status: ('A' for Active; 'I' for Inactive)
REMARK    1  A    between atoms: C_1  and  C_2
REMARK    2  A    between atoms: C_5  and  C_37
REMARK    3  A    between atoms: N_8  and  C_10
REMARK    4  A    between atoms: C_10  and  C_11
REMARK    5  A    between atoms: C_11  and  C_12
REMARK    6  A    between atoms: C_12  and  N_13
REMARK    7  A    between atoms: C_14  and  C_16
REMARK    8  A    between atoms: N_22  and  C_36
REMARK    9  A    between atoms: C_26  and  C_27
REMARK   10  A    between atoms: C_32  and  O_33
REMARK   11  A    between atoms: O_33  and  C_34
REMARK                            x       y       z     vdW  Elec       q    Type
REMARK                         _______ _______ _______ _____ _____    ______ ____
ROOT
ATOM      1  C   UNL     1      -3.962   2.545   9.577  0.00  0.00    +0.039 A 
ATOM      2  C   UNL     1      -2.742   3.228   9.611  0.00  0.00    +0.014 A 
ATOM      3  C   UNL     1      -2.179   3.674   8.436  0.00  0.00    +0.017 A 
ATOM      4  C   UNL     1      -2.818   3.445   7.224  0.00  0.00    +0.034 A 
ATOM      5  C   UNL     1      -4.037   2.761   7.172  0.00  0.00    +0.051 A 
ATOM      6  C   UNL     1      -4.603   2.315   8.360  0.00  0.00    +0.037 A 
ATOM      7  N   UNL     1      -4.710   2.508   5.982  0.00  0.00    -0.269 N 
ATOM      8  C   UNL     1      -4.185   2.506   4.755  0.00  0.00    +0.257 C 
ATOM      9  O   UNL     1      -4.872   2.180   3.805  0.00  0.00    -0.269 OA
ATOM     10  C   UNL     1      -2.775   2.897   4.539  0.00  0.00    +0.076 C 
ATOM     11  C   UNL     1      -2.050   2.419   3.498  0.00  0.00    +0.031 C 
ATOM     12  S   UNL     1      -2.086   4.020   5.726  0.00  0.00    -0.082 S 
ATOM     13  C   UNL     1      -6.141   2.213   6.086  0.00  0.00    +0.138 C 
ENDROOT
BRANCH  11  14
ATOM     14  C   UNL     1      -2.601   1.358   2.644  0.00  0.00    +0.018 A 
ATOM     15  C   UNL     1      -3.316   0.298   3.212  0.00  0.00    +0.011 A 
ATOM     16  C   UNL     1      -3.825  -0.697   2.406  0.00  0.00    +0.001 A 
ATOM     17  C   UNL     1      -3.636  -0.650   1.034  0.00  0.00    +0.004 A 
ATOM     18  C   UNL     1      -2.937   0.394   0.460  0.00  0.00    +0.046 A 
ATOM     19  C   UNL     1      -2.418   1.403   1.253  0.00  0.00    +0.127 A 
BRANCH  19  20
ATOM     20  O   UNL     1      -1.730   2.429   0.689  0.00  0.00    -0.495 OA
ATOM     21  C   UNL     1      -1.579   2.405  -0.731  0.00  0.00    +0.277 C 
ENDBRANCH  19  20
ENDBRANCH  11  14
BRANCH   1  23
ATOM     22  N   UNL     1      -3.954   2.289  12.009  0.00  0.00    -0.311 N 
ATOM     23  C   UNL     1      -4.572   2.067  10.832  0.00  0.00    +0.244 C 
ATOM     24  O   UNL     1      -5.632   1.473  10.805  0.00  0.00    -0.270 OA
ATOM     25  H   UNL     1      -2.994   2.826  12.034  0.00  0.00    +0.149 HD
BRANCH  22  26
ATOM     26  C   UNL     1      -4.559   1.814  13.255  0.00  0.00    +0.102 C 
BRANCH  26  27
ATOM     27  C   UNL     1      -3.662   2.193  14.435  0.00  0.00    +0.000 C 
BRANCH  27  28
ATOM     28  C   UNL     1      -4.295   1.697  15.737  0.00  0.00    -0.077 C 
BRANCH  28  34
ATOM     29  C   UNL     1       0.102   1.101  17.860  0.00  0.00    +0.005 C 
ATOM     30  C   UNL     1      -1.226   1.858  17.913  0.00  0.00    -0.031 C 
ATOM     31  C   UNL     1      -1.892   1.627  19.273  0.00  0.00    +0.003 C 
ATOM     32  C   UNL     1      -3.247   2.338  19.297  0.00  0.00    -0.031 C 
ATOM     33  C   UNL     1      -4.113   1.815  18.148  0.00  0.00    -0.076 C 
ATOM     34  N   UNL     1      -3.433   2.060  16.870  0.00  0.00    +0.380 N 
ATOM     35  C   UNL     1      -2.150   1.348  16.805  0.00  0.00    -0.076 C 
ATOM     36  C   UNL     1      -3.946   2.063  20.629  0.00  0.00    +0.005 C 
ATOM     37  H   UNL     1      -3.222   3.138  16.804  0.00  0.00    -0.082 HD
ENDBRANCH  28  34
ENDBRANCH  27  28
ENDBRANCH  26  27
ENDBRANCH  22  26
ENDBRANCH   1  23
TORSDOF 7
