REMARK  Name = ZINC59309416
REMARK  8 active torsions:
REMARK  status: ('A' for Active; 'I' for Inactive)
REMARK    1  A    between atoms: C_1  and  C_2
REMARK    2  A    between atoms: C_2  and  C_22
REMARK    3  A    between atoms: N_3  and  N_4
REMARK    4  A    between atoms: C_7  and  S_10
REMARK    5  A    between atoms: S_10  and  C_11
REMARK    6  A    between atoms: C_11  and  C_12
REMARK    7  A    between atoms: N_14  and  C_15
REMARK    8  A    between atoms: C_25  and  N_28
REMARK                            x       y       z     vdW  Elec       q    Type
REMARK                         _______ _______ _______ _____ _____    ______ ____
ROOT
ATOM      1  N   UNL     1      -1.062  -1.491   1.393  0.00  0.00    -0.205 N 
ATOM      2  C   UNL     1      -1.635  -1.727   2.629  0.00  0.00    +0.232 A 
ATOM      3  N   UNL     1      -1.514  -0.966   3.696  0.00  0.00    -0.186 NA
ATOM      4  C   UNL     1      -2.202  -1.500   4.711  0.00  0.00    +0.211 A 
ATOM      5  N   UNL     1      -2.770  -2.610   4.302  0.00  0.00    -0.144 NA
ATOM      6  N   UNL     1      -2.421  -2.776   2.952  0.00  0.00    -0.245 N 
ATOM      7  H   UNL     1      -1.213  -2.111   0.662  0.00  0.00    +0.177 HD
ATOM      8  H   UNL     1      -2.691  -3.501   2.368  0.00  0.00    +0.192 HD
ENDROOT
BRANCH   1  11
ATOM      9  C   UNL     1       1.183   1.038  -0.173  0.00  0.00    +0.068 C 
ATOM     10  C   UNL     1       0.189  -0.079   0.011  0.00  0.00    +0.063 C 
ATOM     11  N   UNL     1      -0.263  -0.357   1.196  0.00  0.00    -0.184 NA
BRANCH  10  12
ATOM     12  C   UNL     1      -0.270  -0.857  -1.154  0.00  0.00    -0.002 A 
ATOM     13  C   UNL     1      -1.587  -1.323  -1.211  0.00  0.00    +0.011 A 
ATOM     14  C   UNL     1      -2.012  -2.049  -2.301  0.00  0.00    +0.023 A 
ATOM     15  C   UNL     1      -1.133  -2.319  -3.345  0.00  0.00    +0.025 A 
ATOM     16  C   UNL     1       0.178  -1.858  -3.292  0.00  0.00    +0.023 A 
ATOM     17  C   UNL     1       0.609  -1.126  -2.207  0.00  0.00    +0.011 A 
BRANCH  15  18
ATOM     18  N   UNL     1      -1.568  -3.055  -4.448  0.00  0.00    -0.358 N 
ATOM     19  H   UNL     1      -2.482  -3.377  -4.486  0.00  0.00    +0.142 HD
ATOM     20  H   UNL     1      -0.956  -3.244  -5.177  0.00  0.00    +0.142 HD
ENDBRANCH  15  18
ENDBRANCH  10  12
ENDBRANCH   1  11
BRANCH   4  21
ATOM     21  S   UNL     1      -2.325  -0.825   6.333  0.00  0.00    -0.075 S 
BRANCH  21  22
ATOM     22  C   UNL     1      -3.380  -2.003   7.221  0.00  0.00    +0.173 C 
BRANCH  22  23
ATOM     23  C   UNL     1      -3.568  -1.538   8.642  0.00  0.00    +0.227 C 
ATOM     24  O   UNL     1      -3.042  -0.512   9.019  0.00  0.00    -0.275 OA
ATOM     25  N   UNL     1      -4.321  -2.261   9.494  0.00  0.00    -0.285 N 
ATOM     26  H   UNL     1      -4.793  -3.047   9.177  0.00  0.00    +0.155 HD
BRANCH  25  27
ATOM     27  C   UNL     1      -4.422  -1.879  10.836  0.00  0.00    +0.033 A 
ATOM     28  C   UNL     1      -4.434  -2.843  11.835  0.00  0.00    +0.024 A 
ATOM     29  C   UNL     1      -4.534  -2.463  13.159  0.00  0.00    +0.016 A 
ATOM     30  C   UNL     1      -4.622  -1.122  13.490  0.00  0.00    +0.013 A 
ATOM     31  C   UNL     1      -4.610  -0.160  12.497  0.00  0.00    +0.016 A 
ATOM     32  C   UNL     1      -4.505  -0.534  11.172  0.00  0.00    +0.024 A 
ATOM     33  I   UNL     1      -4.774  -0.550  15.500  0.00  0.00    -0.044 I 
ENDBRANCH  25  27
ENDBRANCH  22  23
ENDBRANCH  21  22
ENDBRANCH   4  21
TORSDOF 7
