REMARK  Name = ZINC39400674
REMARK  9 active torsions:
REMARK  status: ('A' for Active; 'I' for Inactive)
REMARK    1  A    between atoms: C_1  and  O_2
REMARK    2  A    between atoms: O_2  and  C_3
REMARK    3  A    between atoms: C_6  and  C_9
REMARK    4  A    between atoms: C_13  and  C_15
REMARK    5  A    between atoms: C_15  and  N_16
REMARK    6  A    between atoms: C_19  and  C_22
REMARK    7  A    between atoms: C_22  and  C_29
REMARK    8  A    between atoms: C_29  and  C_30
REMARK    9  A    between atoms: C_30  and  C_31
REMARK                            x       y       z     vdW  Elec       q    Type
REMARK                         _______ _______ _______ _____ _____    ______ ____
ROOT
ATOM      1  N   UNL     1      -4.748  -6.213   1.208  0.00  0.00    +0.380 N 
ATOM      2  C   UNL     1      -3.951  -6.720   0.084  0.00  0.00    -0.078 C 
ATOM      3  C   UNL     1      -4.164  -8.229  -0.057  0.00  0.00    -0.013 C 
ATOM      4  C   UNL     1      -3.726  -8.924   1.236  0.00  0.00    +0.018 C 
ATOM      5  C   UNL     1      -4.511  -8.334   2.411  0.00  0.00    -0.013 C 
ATOM      6  C   UNL     1      -4.285  -6.822   2.461  0.00  0.00    -0.078 C 
ATOM      7  H   UNL     1      -5.719  -6.445   1.061  0.00  0.00    -0.082 HD
ENDROOT
BRANCH   4   8
ATOM      8  C   UNL     1      -4.010 -10.424   1.132  0.00  0.00    +0.115 C 
ATOM      9  C   UNL     1      -5.434 -10.667   0.674  0.00  0.00    +0.244 C 
ATOM     10  O   UNL     1      -6.453 -10.335   1.242  0.00  0.00    -0.273 OA
ATOM     11  N   UNL     1      -5.333 -11.327  -0.496  0.00  0.00    -0.238 N 
ATOM     12  C   UNL     1      -4.056 -11.533  -0.838  0.00  0.00    +0.307 C 
ATOM     13  O   UNL     1      -3.713 -12.109  -1.852  0.00  0.00    -0.252 OA
ATOM     14  N   UNL     1      -3.195 -11.033   0.067  0.00  0.00    -0.285 N 
ATOM     15  H   UNL     1      -6.093 -11.618  -1.025  0.00  0.00    +0.159 HD
ATOM     16  H   UNL     1      -2.227 -11.066   0.025  0.00  0.00    +0.151 HD
BRANCH   8  17
ATOM     17  C   UNL     1      -3.747 -11.114   2.472  0.00  0.00    +0.040 C 
BRANCH  17  18
ATOM     18  C   UNL     1      -3.917 -12.625   2.309  0.00  0.00    +0.038 C 
BRANCH  18  19
ATOM     19  C   UNL     1      -3.657 -13.305   3.629  0.00  0.00    -0.047 A 
ATOM     20  C   UNL     1      -2.377 -13.712   3.957  0.00  0.00    +0.003 A 
ATOM     21  C   UNL     1      -2.139 -14.335   5.168  0.00  0.00    +0.000 A 
ATOM     22  C   UNL     1      -3.181 -14.551   6.051  0.00  0.00    +0.000 A 
ATOM     23  C   UNL     1      -4.461 -14.143   5.723  0.00  0.00    +0.000 A 
ATOM     24  C   UNL     1      -4.698 -13.516   4.514  0.00  0.00    +0.003 A 
ENDBRANCH  18  19
ENDBRANCH  17  18
ENDBRANCH   8  17
ENDBRANCH   4   8
BRANCH   1  25
ATOM     25  C   UNL     1      -4.601  -4.754   1.290  0.00  0.00    -0.063 C 
BRANCH  25  30
ATOM     26  C   UNL     1      -4.952  -2.614   0.037  0.00  0.00    +0.077 C 
ATOM     27  N   UNL     1      -6.134  -2.060   0.041  0.00  0.00    -0.153 NA
ATOM     28  N   UNL     1      -7.156  -3.003   0.050  0.00  0.00    -0.161 NA
ATOM     29  C   UNL     1      -6.709  -4.217   0.051  0.00  0.00    +0.115 C 
ATOM     30  C   UNL     1      -5.197  -4.110   0.037  0.00  0.00    +0.066 C 
BRANCH  26  34
ATOM     31  C   UNL     1      -1.199  -0.637   0.010  0.00  0.00    +0.120 A 
ATOM     32  C   UNL     1      -2.373   0.107   0.020  0.00  0.00    +0.046 A 
ATOM     33  C   UNL     1      -3.594  -0.530   0.028  0.00  0.00    +0.013 A 
ATOM     34  C   UNL     1      -3.651  -1.929   0.027  0.00  0.00    -0.001 A 
ATOM     35  C   UNL     1      -2.466  -2.672   0.017  0.00  0.00    +0.013 A 
ATOM     36  C   UNL     1      -1.250  -2.026   0.003  0.00  0.00    +0.046 A 
BRANCH  31  38
ATOM     37  C   UNL     1      -0.017   1.425   0.010  0.00  0.00    +0.277 C 
ATOM     38  O   UNL     1       0.002  -0.004   0.002  0.00  0.00    -0.495 OA
ENDBRANCH  31  38
ENDBRANCH  26  34
ENDBRANCH  25  30
ENDBRANCH   1  25
TORSDOF 8
