REMARK  Name = ZINC39669161
REMARK  6 active torsions:
REMARK  status: ('A' for Active; 'I' for Inactive)
REMARK    1  A    between atoms: C_4  and  O_7
REMARK    2  A    between atoms: O_7  and  C_8
REMARK    3  A    between atoms: C_11  and  C_14
REMARK    4  A    between atoms: C_18  and  C_27
REMARK    5  A    between atoms: N_29  and  C_30
REMARK    6  A    between atoms: C_30  and  C_31
REMARK                            x       y       z     vdW  Elec       q    Type
REMARK                         _______ _______ _______ _____ _____    ______ ____
ROOT
ATOM      1  C   UNL     1       3.164  -6.172  -0.436  0.00  0.00    +0.248 C 
ATOM      2  O   UNL     1       4.141  -6.894  -0.379  0.00  0.00    -0.270 OA
ATOM      3  N   UNL     1       1.942  -6.706  -0.628  0.00  0.00    -0.296 N 
ATOM      4  C   UNL     1       0.639  -6.001  -0.667  0.00  0.00    +0.121 C 
ATOM      5  C   UNL     1      -0.149  -6.699  -1.798  0.00  0.00    +0.100 C 
ATOM      6  C   UNL     1       0.483  -8.096  -1.912  0.00  0.00    -0.004 C 
ATOM      7  C   UNL     1       1.598  -8.130  -0.856  0.00  0.00    +0.115 C 
ATOM      8  C   UNL     1       1.076  -8.296  -3.303  0.00  0.00    -0.010 C 
ATOM      9  C   UNL     1       1.648  -9.713  -3.410  0.00  0.00    -0.082 C 
ATOM     10  N   UNL     1       0.582 -10.692  -3.165  0.00  0.00    +0.379 N 
ATOM     11  C   UNL     1       0.081 -10.554  -1.793  0.00  0.00    -0.082 C 
ATOM     12  C   UNL     1      -0.557  -9.173  -1.617  0.00  0.00    -0.010 C 
ATOM     13  H   UNL     1      -0.173 -10.535  -3.815  0.00  0.00    -0.086 HD
ATOM     14  H   UNL     1       0.947 -11.624  -3.297  0.00  0.00    -0.086 HD
ENDROOT
BRANCH   1  18
ATOM     15  C   UNL     1       3.673  -2.017  -0.067  0.00  0.00    +0.220 A 
ATOM     16  C   UNL     1       2.506  -2.584   0.435  0.00  0.00    +0.068 A 
ATOM     17  C   UNL     1       2.317  -3.946   0.325  0.00  0.00    +0.020 A 
ATOM     18  C   UNL     1       3.318  -4.710  -0.293  0.00  0.00    +0.055 A 
ATOM     19  C   UNL     1       4.460  -4.068  -0.772  0.00  0.00    +0.127 A 
ATOM     20  N   UNL     1       4.597  -2.765  -0.651  0.00  0.00    -0.220 NA
BRANCH  15  21
ATOM     21  O   UNL     1       3.865  -0.680   0.038  0.00  0.00    -0.438 OA
BRANCH  21  25
ATOM     22  C   UNL     1       7.197   0.949  -1.769  0.00  0.00    +0.000 A 
ATOM     23  C   UNL     1       6.198   0.386  -2.542  0.00  0.00    +0.004 A 
ATOM     24  C   UNL     1       5.082  -0.161  -1.940  0.00  0.00    +0.046 A 
ATOM     25  C   UNL     1       4.962  -0.144  -0.557  0.00  0.00    +0.130 A 
ATOM     26  C   UNL     1       5.966   0.422   0.216  0.00  0.00    +0.046 A 
ATOM     27  C   UNL     1       7.080   0.967  -0.391  0.00  0.00    +0.004 A 
ENDBRANCH  21  25
ENDBRANCH  15  21
ENDBRANCH   1  18
BRANCH   5  28
ATOM     28  C   UNL     1       0.007  -5.942  -3.091  0.00  0.00    +0.218 C 
ATOM     29  O   UNL     1       1.055  -5.387  -3.346  0.00  0.00    -0.275 OA
ATOM     30  N   UNL     1      -1.017  -5.883  -3.965  0.00  0.00    -0.312 N 
ATOM     31  H   UNL     1      -1.855  -6.326  -3.762  0.00  0.00    +0.149 HD
BRANCH  30  32
ATOM     32  C   UNL     1      -0.864  -5.147  -5.223  0.00  0.00    +0.140 C 
BRANCH  32  33
ATOM     33  C   UNL     1      -2.163  -5.235  -6.026  0.00  0.00    +0.165 C 
ATOM     34  C   UNL     1      -1.962  -4.590  -7.373  0.00  0.00    -0.014 A 
ATOM     35  C   UNL     1      -0.794  -4.856  -8.071  0.00  0.00    +0.006 A 
ATOM     36  C   UNL     1      -0.577  -4.287  -9.309  0.00  0.00    +0.000 A 
ATOM     37  C   UNL     1      -1.530  -3.448  -9.858  0.00  0.00    +0.000 A 
ATOM     38  C   UNL     1      -2.693  -3.181  -9.164  0.00  0.00    +0.004 A 
ATOM     39  C   UNL     1      -2.909  -3.749  -7.918  0.00  0.00    -0.040 A 
ATOM     40  C   UNL     1      -4.185  -3.425  -7.185  0.00  0.00    +0.063 C 
ATOM     41  C   UNL     1      -4.415  -4.446  -6.070  0.00  0.00    +0.165 C 
ATOM     42  O   UNL     1      -3.205  -4.569  -5.314  0.00  0.00    -0.370 OA
ENDBRANCH  32  33
ENDBRANCH  30  32
ENDBRANCH   5  28
TORSDOF 6
