REMARK  Name = ZINC08920859
REMARK  11 active torsions:
REMARK  status: ('A' for Active; 'I' for Inactive)
REMARK    1  A    between atoms: C_1  and  C_2
REMARK    2  A    between atoms: C_2  and  C_3
REMARK    3  A    between atoms: C_3  and  C_4
REMARK    4  A    between atoms: C_3  and  C_5
REMARK    5  A    between atoms: C_3  and  C_6
REMARK    6  A    between atoms: C_15  and  O_32
REMARK    7  A    between atoms: C_17  and  C_20
REMARK    8  A    between atoms: C_21  and  O_31
REMARK    9  A    between atoms: C_22  and  O_28
REMARK   10  A    between atoms: O_28  and  C_29
REMARK   11  A    between atoms: C_29  and  C_30
REMARK                            x       y       z     vdW  Elec       q    Type
REMARK                         _______ _______ _______ _____ _____    ______ ____
ROOT
ATOM      1  C   UNL     1       0.739  -2.027  -1.265  0.00  0.00    -0.000 C 
ATOM      2  C   UNL     1       1.461  -2.524  -2.521  0.00  0.00    +0.009 C 
ATOM      3  C   UNL     1       1.274  -4.035  -2.666  0.00  0.00    +0.037 C 
ATOM      4  C   UNL     1       1.676  -4.705  -1.360  0.00  0.00    -0.023 A 
ATOM      5  C   UNL     1       1.760  -3.999  -0.209  0.00  0.00    -0.004 A 
ATOM      6  S   UNL     1       2.254  -5.184   1.013  0.00  0.00    -0.078 S 
ATOM      7  C   UNL     1       2.351  -6.537   0.060  0.00  0.00    +0.080 A 
ATOM      8  C   UNL     1       1.998  -6.114  -1.227  0.00  0.00    +0.068 A 
ATOM      9  C   UNL     1       1.983  -7.138  -2.304  0.00  0.00    +0.220 C 
ATOM     10  N   UNL     1       2.532  -8.294  -2.049  0.00  0.00    -0.223 NA
ATOM     11  C   UNL     1       3.215  -8.628  -0.805  0.00  0.00    +0.229 C 
ATOM     12  N   UNL     1       2.693  -7.843   0.329  0.00  0.00    -0.313 N 
ATOM     13  C   UNL     1       1.487  -2.538  -0.025  0.00  0.00    +0.046 C 
ATOM     14  H   UNL     1       2.596  -8.226   1.215  0.00  0.00    +0.149 HD
ENDROOT
BRANCH  11  15
ATOM     15  C   UNL     1       4.687  -8.346  -0.960  0.00  0.00    +0.059 A 
ATOM     16  C   UNL     1       5.285  -8.451  -2.206  0.00  0.00    +0.167 A 
ATOM     17  C   UNL     1       6.644  -8.190  -2.347  0.00  0.00    +0.164 A 
ATOM     18  C   UNL     1       7.395  -7.825  -1.241  0.00  0.00    +0.071 A 
ATOM     19  C   UNL     1       6.794  -7.721   0.000  0.00  0.00    +0.063 A 
ATOM     20  C   UNL     1       5.440  -7.976   0.139  0.00  0.00    +0.070 A 
ATOM     21 CL   UNL     1       4.688  -7.838   1.698  0.00  0.00    -0.082 Cl
ATOM     22 CL   UNL     1       7.736  -7.263   1.384  0.00  0.00    -0.082 Cl
BRANCH  16  23
ATOM     23  O   UNL     1       4.544  -8.810  -3.289  0.00  0.00    -0.503 OA
ATOM     24  H   UNL     1       4.150  -8.064  -3.760  0.00  0.00    +0.292 HD
ENDBRANCH  16  23
BRANCH  17  25
ATOM     25  O   UNL     1       7.234  -8.293  -3.568  0.00  0.00    -0.489 OA
BRANCH  25  26
ATOM     26  C   UNL     1       8.633  -8.010  -3.638  0.00  0.00    +0.226 C 
ATOM     27  C   UNL     1       9.116  -8.177  -5.080  0.00  0.00    +0.048 C 
ENDBRANCH  25  26
ENDBRANCH  17  25
ENDBRANCH  11  15
BRANCH   1  28
ATOM     28  C   UNL     1       0.718  -0.497  -1.257  0.00  0.00    -0.032 C 
ATOM     29  C   UNL     1      -0.022   0.009  -2.496  0.00  0.00    +0.011 C 
ATOM     30  C   UNL     1       2.154   0.032  -1.268  0.00  0.00    +0.011 C 
BRANCH  28  32
ATOM     31  C   UNL     1      -0.019   1.526   0.010  0.00  0.00    +0.004 C 
ATOM     32  C   UNL     1       0.002  -0.004   0.002  0.00  0.00    +0.003 C 
ENDBRANCH  28  32
ENDBRANCH   1  28
BRANCH   9  33
ATOM     33  O   UNL     1       1.420  -6.880  -3.507  0.00  0.00    -0.492 OA
ATOM     34  H   UNL     1       1.468  -7.618  -4.130  0.00  0.00    +0.294 HD
ENDBRANCH   9  33
TORSDOF 7
