REMARK  Name = ZINC40928174
REMARK  8 active torsions:
REMARK  status: ('A' for Active; 'I' for Inactive)
REMARK    1  A    between atoms: C_1  and  C_2
REMARK    2  A    between atoms: C_2  and  O_3
REMARK    3  A    between atoms: O_3  and  C_4
REMARK    4  A    between atoms: C_4  and  C_6
REMARK    5  A    between atoms: C_13  and  C_15
REMARK    6  A    between atoms: N_18  and  C_21
REMARK    7  A    between atoms: C_21  and  C_22
REMARK    8  A    between atoms: C_24  and  C_27
REMARK                            x       y       z     vdW  Elec       q    Type
REMARK                         _______ _______ _______ _____ _____    ______ ____
ROOT
ATOM      1  C   UNL     1       2.491  -5.760  -5.668  0.00  0.00    +0.072 C 
ATOM      2  C   UNL     1       2.894  -4.537  -6.497  0.00  0.00    -0.006 C 
ATOM      3  C   UNL     1       3.617  -5.002  -7.763  0.00  0.00    -0.077 C 
ATOM      4  N   UNL     1       2.725  -5.860  -8.553  0.00  0.00    +0.386 N 
ATOM      5  C   UNL     1       2.392  -7.069  -7.791  0.00  0.00    -0.077 C 
ATOM      6  C   UNL     1       1.622  -6.683  -6.526  0.00  0.00    -0.006 C 
ATOM      7  H   UNL     1       1.878  -5.355  -8.768  0.00  0.00    -0.081 HD
ENDROOT
BRANCH   1  14
ATOM      8  C   UNL     1       4.235  -5.681  -2.018  0.00  0.00    +0.115 C 
ATOM      9  C   UNL     1       3.568  -5.026  -0.806  0.00  0.00    +0.018 C 
ATOM     10  C   UNL     1       2.047  -5.111  -0.950  0.00  0.00    +0.020 C 
ATOM     11  C   UNL     1       1.614  -4.353  -2.209  0.00  0.00    +0.108 C 
ATOM     12  N   UNL     1       2.360  -4.881  -3.359  0.00  0.00    -0.300 N 
ATOM     13  C   UNL     1       3.827  -4.929  -3.289  0.00  0.00    +0.122 C 
ATOM     14  C   UNL     1       1.711  -5.313  -4.459  0.00  0.00    +0.219 C 
ATOM     15  O   UNL     1       0.498  -5.343  -4.475  0.00  0.00    -0.275 OA
BRANCH   8  16
ATOM     16  C   UNL     1       5.732  -5.625  -1.860  0.00  0.00    +0.312 C 
ATOM     17  O   UNL     1       6.405  -5.045  -2.679  0.00  0.00    -0.250 OA
BRANCH  16  18
ATOM     18  O   UNL     1       6.319  -6.219  -0.808  0.00  0.00    -0.465 OA
BRANCH  18  20
ATOM     19  C   UNL     1       8.225  -6.857   0.533  0.00  0.00    +0.048 C 
ATOM     20  C   UNL     1       7.742  -6.126  -0.722  0.00  0.00    +0.229 C 
ENDBRANCH  18  20
ENDBRANCH  16  18
ENDBRANCH   8  16
ENDBRANCH   1  14
BRANCH   4  21
ATOM     21  C   UNL     1       3.395  -6.240  -9.804  0.00  0.00    +0.022 C 
BRANCH  21  22
ATOM     22  C   UNL     1       2.438  -7.017 -10.671  0.00  0.00    +0.211 A 
ATOM     23  N   UNL     1       1.633  -6.510 -11.560  0.00  0.00    -0.193 NA
ATOM     24  C   UNL     1       0.921  -7.488 -12.149  0.00  0.00    +0.202 A 
ATOM     25  N   UNL     1       1.277  -8.637 -11.627  0.00  0.00    -0.056 NA
ATOM     26  O   UNL     1       2.276  -8.347 -10.660  0.00  0.00    -0.340 OA
BRANCH  24  27
ATOM     27  C   UNL     1      -0.097  -7.298 -13.210  0.00  0.00    +0.026 A 
ATOM     28  C   UNL     1      -0.382  -6.019 -13.684  0.00  0.00    +0.015 A 
ATOM     29  C   UNL     1      -1.329  -5.843 -14.672  0.00  0.00    +0.050 A 
ATOM     30  C   UNL     1      -2.001  -6.938 -15.195  0.00  0.00    +0.166 A 
ATOM     31  C   UNL     1      -1.721  -8.220 -14.725  0.00  0.00    +0.167 A 
ATOM     32  C   UNL     1      -0.767  -8.400 -13.739  0.00  0.00    +0.061 A 
ATOM     33  O   UNL     1      -2.508  -9.112 -15.394  0.00  0.00    -0.453 OA
ATOM     34  C   UNL     1      -3.561  -8.327 -15.985  0.00  0.00    +0.466 C 
ATOM     35  O   UNL     1      -2.964  -7.029 -16.159  0.00  0.00    -0.453 OA
ENDBRANCH  24  27
ENDBRANCH  21  22
ENDBRANCH   4  21
TORSDOF 7
