REMARK  Name = ZINC40986883
REMARK  11 active torsions:
REMARK  status: ('A' for Active; 'I' for Inactive)
REMARK    1  A    between atoms: C_1  and  C_2
REMARK    2  A    between atoms: C_2  and  C_3
REMARK    3  A    between atoms: C_3  and  C_4
REMARK    4  A    between atoms: C_4  and  S_5
REMARK    5  A    between atoms: S_5  and  C_6
REMARK    6  A    between atoms: C_11  and  C_20
REMARK    7  A    between atoms: C_13  and  C_17
REMARK    8  A    between atoms: C_14  and  C_16
REMARK    9  A    between atoms: C_23  and  O_26
REMARK   10  A    between atoms: O_26  and  C_27
REMARK   11  A    between atoms: C_27  and  C_28
REMARK                            x       y       z     vdW  Elec       q    Type
REMARK                         _______ _______ _______ _____ _____    ______ ____
ROOT
ATOM      1  C   UNL     1       1.129  -4.404  -2.840  0.00  0.00    +0.210 A 
ATOM      2  N   UNL     1       0.609  -5.090  -1.812  0.00  0.00    -0.187 NA
ATOM      3  C   UNL     1       0.916  -6.353  -1.930  0.00  0.00    +0.219 A 
ATOM      4  N   UNL     1       1.658  -6.503  -3.055  0.00  0.00    -0.220 N 
ATOM      5  N   UNL     1       1.774  -5.237  -3.628  0.00  0.00    -0.141 NA
ATOM      6  C   UNL     1       2.192  -7.785  -3.507  0.00  0.00    +0.177 C 
ATOM      7  C   UNL     1       1.552  -8.899  -2.722  0.00  0.00    +0.060 C 
ATOM      8  C   UNL     1       0.824  -8.690  -1.615  0.00  0.00    +0.018 C 
ATOM      9  N   UNL     1       0.596  -7.431  -1.116  0.00  0.00    -0.287 N 
ATOM     10  C   UNL     1       0.237  -9.876  -0.895  0.00  0.00    +0.061 C 
ATOM     11  H   UNL     1       0.225  -7.300  -0.230  0.00  0.00    +0.155 HD
ENDROOT
BRANCH   6  12
ATOM     12  C   UNL     1       3.683  -7.811  -3.293  0.00  0.00    -0.018 A 
ATOM     13  C   UNL     1       4.200  -7.669  -2.018  0.00  0.00    +0.009 A 
ATOM     14  C   UNL     1       5.567  -7.692  -1.820  0.00  0.00    +0.046 A 
ATOM     15  C   UNL     1       6.421  -7.859  -2.900  0.00  0.00    +0.121 A 
ATOM     16  C   UNL     1       5.900  -8.003  -4.178  0.00  0.00    +0.046 A 
ATOM     17  C   UNL     1       4.532  -7.984  -4.371  0.00  0.00    +0.009 A 
BRANCH  15  18
ATOM     18  O   UNL     1       7.766  -7.883  -2.707  0.00  0.00    -0.487 OA
BRANCH  18  19
ATOM     19  C   UNL     1       8.585  -8.058  -3.865  0.00  0.00    +0.264 C 
BRANCH  19  20
ATOM     20  C   UNL     1      10.036  -8.058  -3.459  0.00  0.00    -0.010 A 
ATOM     21  C   UNL     1      10.742  -6.870  -3.418  0.00  0.00    +0.008 A 
ATOM     22  C   UNL     1      12.073  -6.869  -3.046  0.00  0.00    +0.020 A 
ATOM     23  C   UNL     1      12.699  -8.057  -2.714  0.00  0.00    +0.041 A 
ATOM     24  C   UNL     1      11.992  -9.246  -2.756  0.00  0.00    +0.020 A 
ATOM     25  C   UNL     1      10.660  -9.245  -3.122  0.00  0.00    +0.008 A 
ATOM     26 CL   UNL     1      14.371  -8.057  -2.247  0.00  0.00    -0.084 Cl
ENDBRANCH  19  20
ENDBRANCH  18  19
ENDBRANCH  15  18
ENDBRANCH   6  12
BRANCH   7  27
ATOM     27  C   UNL     1       1.727 -10.229  -3.173  0.00  0.00    +0.241 C 
ATOM     28  O   UNL     1       1.122 -10.623  -4.153  0.00  0.00    -0.271 OA
ATOM     29  N   UNL     1       2.563 -11.058  -2.518  0.00  0.00    -0.325 N 
ATOM     30  H   UNL     1       3.045 -10.743  -1.737  0.00  0.00    +0.145 HD
ATOM     31  H   UNL     1       2.683 -11.970  -2.827  0.00  0.00    +0.145 HD
ENDBRANCH   7  27
BRANCH   1  32
ATOM     32  S   UNL     1       0.969  -2.668  -3.098  0.00  0.00    -0.084 S 
BRANCH  32  33
ATOM     33  C   UNL     1      -0.017  -2.104  -1.683  0.00  0.00    +0.077 C 
BRANCH  33  34
ATOM     34  C   UNL     1      -0.234  -0.593  -1.784  0.00  0.00    +0.011 C 
BRANCH  34  36
ATOM     35  C   UNL     1      -1.283   1.394  -0.691  0.00  0.00    +0.004 C 
ATOM     36  C   UNL     1      -1.065  -0.117  -0.590  0.00  0.00    -0.003 C 
ENDBRANCH  34  36
ENDBRANCH  33  34
ENDBRANCH  32  33
ENDBRANCH   1  32
TORSDOF 9
