REMARK  Name = ZINC00104356
REMARK  8 active torsions:
REMARK  status: ('A' for Active; 'I' for Inactive)
REMARK    1  A    between atoms: C_1  and  C_2
REMARK    2  A    between atoms: C_2  and  C_23
REMARK    3  A    between atoms: C_6  and  N_9
REMARK    4  A    between atoms: C_10  and  C_21
REMARK    5  A    between atoms: C_10  and  C_22
REMARK    6  A    between atoms: N_11  and  O_12
REMARK    7  A    between atoms: O_12  and  C_13
REMARK    8  A    between atoms: C_13  and  C_15
REMARK                            x       y       z     vdW  Elec       q    Type
REMARK                         _______ _______ _______ _____ _____    ______ ____
ROOT
ATOM      1  C   UNL     1      -0.019   1.535   0.011  0.00  0.00    +0.031 C 
ATOM      2  C   UNL     1       0.002  -0.004   0.002  0.00  0.00    +0.059 C 
ATOM      3  C   UNL     1      -1.453  -0.499  -0.011  0.00  0.00    +0.084 C 
ATOM      4  C   UNL     1      -1.399  -2.003   0.101  0.00  0.00    +0.092 A 
ATOM      5  C   UNL     1      -0.350  -2.651   0.790  0.00  0.00    +0.059 A 
ATOM      6  C   UNL     1      -0.576  -3.981   0.716  0.00  0.00    +0.221 A 
ATOM      7  O   UNL     1      -1.709  -4.169   0.007  0.00  0.00    -0.339 OA
ATOM      8  N   UNL     1      -2.209  -2.895  -0.363  0.00  0.00    -0.081 NA
ATOM      9  C   UNL     1       0.766  -1.899   1.465  0.00  0.00    +0.084 C 
ATOM     10  N   UNL     1       0.707  -0.470   1.183  0.00  0.00    -0.123 NA
ATOM     11  C   UNL     1       2.123  -2.462   1.020  0.00  0.00    +0.036 C 
ATOM     12  C   UNL     1       0.642  -2.103   2.988  0.00  0.00    +0.036 C 
ATOM     13  C   UNL     1       0.702  -0.461  -1.281  0.00  0.00    +0.031 C 
ENDROOT
BRANCH   6  14
ATOM     14  N   UNL     1       0.189  -4.995   1.262  0.00  0.00    -0.327 N 
ATOM     15  H   UNL     1       0.990  -4.782   1.766  0.00  0.00    +0.145 HD
ATOM     16  H   UNL     1      -0.075  -5.921   1.141  0.00  0.00    +0.145 HD
ENDBRANCH   6  14
BRANCH  10  17
ATOM     17  O   UNL     1       0.358   0.308   2.372  0.00  0.00    -0.361 OA
BRANCH  17  18
ATOM     18  C   UNL     1       1.405   0.930   2.946  0.00  0.00    +0.358 C 
ATOM     19  O   UNL     1       2.516   0.816   2.469  0.00  0.00    -0.243 OA
BRANCH  18  20
ATOM     20  C   UNL     1       1.202   1.753   4.156  0.00  0.00    +0.061 A 
ATOM     21  C   UNL     1      -0.072   1.882   4.711  0.00  0.00    +0.015 A 
ATOM     22  C   UNL     1      -0.254   2.652   5.841  0.00  0.00    +0.001 A 
ATOM     23  C   UNL     1       0.823   3.295   6.425  0.00  0.00    +0.000 A 
ATOM     24  C   UNL     1       2.089   3.171   5.881  0.00  0.00    +0.001 A 
ATOM     25  C   UNL     1       2.286   2.400   4.754  0.00  0.00    +0.015 A 
ENDBRANCH  18  20
ENDBRANCH  17  18
ENDBRANCH  10  17
TORSDOF 4
