REMARK  Name = ZINC63710099
REMARK  6 active torsions:
REMARK  status: ('A' for Active; 'I' for Inactive)
REMARK    1  A    between atoms: C_3  and  C_6
REMARK    2  A    between atoms: C_6  and  N_7
REMARK    3  A    between atoms: C_8  and  C_10
REMARK    4  A    between atoms: C_10  and  S_11
REMARK    5  A    between atoms: S_11  and  C_12
REMARK    6  A    between atoms: N_22  and  C_23
REMARK                            x       y       z     vdW  Elec       q    Type
REMARK                         _______ _______ _______ _____ _____    ______ ____
ROOT
ATOM      1  C   UNL     1       7.904   3.280   4.603  0.00  0.00    +0.261 C 
ATOM      2  N   UNL     1       7.044   4.317   5.178  0.00  0.00    -0.230 NA
ATOM      3  C   UNL     1       6.453   4.126   6.313  0.00  0.00    +0.186 C 
ATOM      4  C   UNL     1       6.640   2.848   7.050  0.00  0.00    +0.103 C 
ATOM      5  C   UNL     1       5.893   2.982   8.177  0.00  0.00    +0.151 C 
ATOM      6  N   UNL     1       5.308   4.194   8.152  0.00  0.00    -0.155 NA
ATOM      7  N   UNL     1       5.612   4.866   7.099  0.00  0.00    -0.129 NA
ATOM      8  C   UNL     1       7.497   1.797   6.492  0.00  0.00    +0.258 C 
ATOM      9  O   UNL     1       7.655   0.749   7.088  0.00  0.00    -0.269 OA
ATOM     10  N   UNL     1       8.107   2.010   5.305  0.00  0.00    -0.236 N 
ENDROOT
BRANCH  10  11
ATOM     11  C   UNL     1       8.929   1.024   4.751  0.00  0.00    +0.040 A 
ATOM     12  C   UNL     1      10.297   1.240   4.639  0.00  0.00    +0.025 A 
ATOM     13  C   UNL     1      11.106   0.264   4.092  0.00  0.00    +0.022 A 
ATOM     14  C   UNL     1      10.556  -0.929   3.656  0.00  0.00    +0.041 A 
ATOM     15  C   UNL     1       9.194  -1.147   3.767  0.00  0.00    +0.022 A 
ATOM     16  C   UNL     1       8.380  -0.176   4.318  0.00  0.00    +0.025 A 
ATOM     17 CL   UNL     1      11.576  -2.154   2.968  0.00  0.00    -0.084 Cl
ENDBRANCH  10  11
BRANCH   1  18
ATOM     18  S   UNL     1       7.245   2.885   2.960  0.00  0.00    -0.105 S 
BRANCH  18  19
ATOM     19  C   UNL     1       5.620   2.155   3.303  0.00  0.00    +0.168 C 
BRANCH  19  21
ATOM     20  N   UNL     1       3.731   1.213   2.014  0.00  0.00    -0.310 N 
ATOM     21  C   UNL     1       4.955   1.777   2.005  0.00  0.00    +0.223 C 
ATOM     22  O   UNL     1       5.521   1.980   0.952  0.00  0.00    -0.275 OA
ATOM     23  H   UNL     1       3.278   1.051   2.856  0.00  0.00    +0.149 HD
BRANCH  20  24
ATOM     24  C   UNL     1       3.084   0.846   0.752  0.00  0.00    +0.146 C 
BRANCH  24  27
ATOM     25  C   UNL     1      -0.589   0.085   1.415  0.00  0.00    +0.008 A 
ATOM     26  C   UNL     1       0.529   0.851   1.146  0.00  0.00    +0.013 A 
ATOM     27  C   UNL     1       1.734   0.239   1.037  0.00  0.00    +0.007 A 
ATOM     28  S   UNL     1       1.307  -1.471   1.318  0.00  0.00    -0.100 S 
ATOM     29  C   UNL     1      -0.448  -1.255   1.562  0.00  0.00    +0.045 A 
ENDBRANCH  24  27
ENDBRANCH  20  24
ENDBRANCH  19  21
ENDBRANCH  18  19
ENDBRANCH   1  18
TORSDOF 6
