REMARK  Name = ZINC12151585
REMARK  7 active torsions:
REMARK  status: ('A' for Active; 'I' for Inactive)
REMARK    1  A    between atoms: C_10  and  C_12
REMARK    2  A    between atoms: C_12  and  N_64
REMARK    3  A    between atoms: C_13  and  N_64
REMARK    4  A    between atoms: N_16  and  C_19
REMARK    5  A    between atoms: C_23  and  N_25
REMARK    6  A    between atoms: N_25  and  S_26
REMARK    7  A    between atoms: S_26  and  C_29
REMARK                            x       y       z     vdW  Elec       q    Type
REMARK                         _______ _______ _______ _____ _____    ______ ____
ROOT
ATOM      1  C   UNL     1      -0.795   1.527  -1.120  0.00  0.00    -0.069 C 
ATOM      2  C   UNL     1      -1.407   2.877  -0.736  0.00  0.00    +0.003 C 
ATOM      3  C   UNL     1      -2.272   3.386  -1.891  0.00  0.00    +0.103 C 
ATOM      4  N   UNL     1      -3.333   2.412  -2.178  0.00  0.00    -0.330 N 
ATOM      5  C   UNL     1      -2.769   1.121  -2.595  0.00  0.00    +0.103 C 
ATOM      6  C   UNL     1      -1.919   0.544  -1.460  0.00  0.00    +0.003 C 
ENDROOT
BRANCH   4   7
ATOM      7  C   UNL     1      -4.219   2.904  -3.138  0.00  0.00    +0.031 A 
ATOM      8  C   UNL     1      -4.459   2.180  -4.300  0.00  0.00    +0.023 A 
ATOM      9  C   UNL     1      -5.336   2.666  -5.250  0.00  0.00    +0.004 A 
ATOM     10  C   UNL     1      -5.978   3.873  -5.049  0.00  0.00    +0.024 A 
ATOM     11  C   UNL     1      -5.742   4.603  -3.890  0.00  0.00    +0.050 A 
ATOM     12  C   UNL     1      -4.865   4.114  -2.931  0.00  0.00    +0.047 A 
BRANCH  11  13
ATOM     13  N   UNL     1      -6.391   5.822  -3.687  0.00  0.00    -0.216 N 
ATOM     14  H   UNL     1      -5.893   6.589  -3.363  0.00  0.00    +0.174 HD
BRANCH  13  15
ATOM     15  S   UNL     1      -8.011   5.960  -4.000  0.00  0.00    +0.072 S 
ATOM     16  O   UNL     1      -8.376   7.295  -3.675  0.00  0.00    -0.150 OA
ATOM     17  O   UNL     1      -8.224   5.406  -5.291  0.00  0.00    -0.150 OA
BRANCH  15  18
ATOM     18  C   UNL     1      -8.854   4.916  -2.858  0.00  0.00    +0.109 A 
ATOM     19  C   UNL     1      -9.116   3.599  -3.190  0.00  0.00    +0.031 A 
ATOM     20  C   UNL     1      -9.772   2.778  -2.293  0.00  0.00    +0.040 A 
ATOM     21  C   UNL     1     -10.176   3.276  -1.067  0.00  0.00    +0.124 A 
ATOM     22  C   UNL     1      -9.918   4.596  -0.737  0.00  0.00    +0.040 A 
ATOM     23  C   UNL     1      -9.257   5.414  -1.634  0.00  0.00    +0.031 A 
ATOM     24  F   UNL     1     -10.822   2.475  -0.191  0.00  0.00    -0.205 F 
ENDBRANCH  15  18
ENDBRANCH  13  15
ENDBRANCH  11  13
ENDBRANCH   4   7
BRANCH   1  25
ATOM     25  N   UNL     1      -0.015   0.998   0.015  0.00  0.00    +0.383 N 
ATOM     26  H   UNL     1      -0.475   1.261   0.894  0.00  0.00    -0.085 HD
ATOM     27  H   UNL     1       0.032  -0.025  -0.054  0.00  0.00    -0.085 HD
BRANCH  25  28
ATOM     28  C   UNL     1       1.353   1.550  -0.003  0.00  0.00    -0.045 C 
BRANCH  28  38
ATOM     29  C   UNL     1       5.953   2.905   1.344  0.00  0.00    +0.000 A 
ATOM     30  C   UNL     1       4.807   3.641   1.102  0.00  0.00    +0.000 A 
ATOM     31  C   UNL     1       3.581   3.008   1.051  0.00  0.00    +0.006 A 
ATOM     32  C   UNL     1       3.493   1.638   1.242  0.00  0.00    -0.017 A 
ATOM     33  C   UNL     1       4.636   0.904   1.480  0.00  0.00    -0.040 A 
ATOM     34  C   UNL     1       5.866   1.540   1.533  0.00  0.00    +0.004 A 
ATOM     35  C   UNL     1       4.582  -0.589   1.680  0.00  0.00    +0.063 C 
ATOM     36  C   UNL     1       3.149  -1.017   1.998  0.00  0.00    +0.165 C 
ATOM     37  O   UNL     1       2.274  -0.428   1.029  0.00  0.00    -0.374 OA
ATOM     38  C   UNL     1       2.136   0.985   1.184  0.00  0.00    +0.132 C 
ENDBRANCH  28  38
ENDBRANCH  25  28
ENDBRANCH   1  25
TORSDOF 7
