REMARK  Name = ZINC09580432
REMARK  8 active torsions:
REMARK  status: ('A' for Active; 'I' for Inactive)
REMARK    1  A    between atoms: C_1  and  C_2
REMARK    2  A    between atoms: C_2  and  C_23
REMARK    3  A    between atoms: N_3  and  N_4
REMARK    4  A    between atoms: N_4  and  C_5
REMARK    5  A    between atoms: C_8  and  S_14
REMARK    6  A    between atoms: C_10  and  N_11
REMARK    7  A    between atoms: S_14  and  N_17
REMARK    8  A    between atoms: C_32  and  O_33
REMARK                            x       y       z     vdW  Elec       q    Type
REMARK                         _______ _______ _______ _____ _____    ______ ____
ROOT
ATOM      1  C   UNL     1      -2.434   2.547   3.667  0.00  0.00    +0.079 A 
ATOM      2  C   UNL     1      -1.520   3.502   3.210  0.00  0.00    +0.029 A 
ATOM      3  C   UNL     1      -0.732   3.227   2.114  0.00  0.00    +0.030 A 
ATOM      4  C   UNL     1      -0.850   2.012   1.459  0.00  0.00    +0.108 A 
ATOM      5  C   UNL     1      -1.753   1.061   1.907  0.00  0.00    +0.063 A 
ATOM      6  C   UNL     1      -2.544   1.321   3.005  0.00  0.00    +0.150 A 
ENDROOT
BRANCH   6   7
ATOM      7  N   UNL     1      -3.508   0.305   3.482  0.00  0.00    +0.058 N 
ATOM      8  O   UNL     1      -3.696  -0.800   2.790  0.00  0.00    -0.126 OA
ATOM      9  O   UNL     1      -4.178   0.505   4.598  0.00  0.00    -0.126 OA
ENDBRANCH   6   7
BRANCH   4  10
ATOM     10  S   UNL     1       0.158   1.671   0.054  0.00  0.00    +0.061 S 
ATOM     11  O   UNL     1       0.251   0.256  -0.045  0.00  0.00    -0.153 OA
ATOM     12  O   UNL     1       1.304   2.503   0.166  0.00  0.00    -0.153 OA
BRANCH  10  13
ATOM     13  N   UNL     1      -0.673   2.187  -1.282  0.00  0.00    -0.172 NA
ATOM     14  C   UNL     1      -1.583   1.282  -2.003  0.00  0.00    +0.137 C 
ATOM     15  C   UNL     1      -2.931   1.999  -2.179  0.00  0.00    +0.177 C 
ATOM     16  O   UNL     1      -2.707   3.280  -2.773  0.00  0.00    -0.377 OA
ATOM     17  C   UNL     1      -1.916   4.165  -1.975  0.00  0.00    +0.177 C 
ATOM     18  C   UNL     1      -0.520   3.560  -1.786  0.00  0.00    +0.137 C 
ENDBRANCH  10  13
ENDBRANCH   4  10
BRANCH   1  19
ATOM     19  N   UNL     1      -3.222   2.813   4.766  0.00  0.00    -0.235 N 
ATOM     20  H   UNL     1      -3.796   2.122   5.130  0.00  0.00    +0.174 HD
BRANCH  19  23
ATOM     21  C   UNL     1      -4.852   3.167   6.941  0.00  0.00    +0.068 C 
ATOM     22  C   UNL     1      -3.961   4.242   6.374  0.00  0.00    +0.067 C 
ATOM     23  N   UNL     1      -3.197   3.983   5.309  0.00  0.00    -0.187 NA
BRANCH  22  24
ATOM     24  C   UNL     1      -3.934   5.505   6.961  0.00  0.00    +0.039 A 
ATOM     25  C   UNL     1      -4.742   5.781   8.088  0.00  0.00    +0.014 A 
ATOM     26  C   UNL     1      -4.727   7.000   8.670  0.00  0.00    +0.009 A 
ATOM     27  C   UNL     1      -3.874   8.069   8.149  0.00  0.00    -0.014 A 
ATOM     28  C   UNL     1      -3.862   9.325   8.754  0.00  0.00    +0.008 A 
ATOM     29  C   UNL     1      -3.048  10.327   8.250  0.00  0.00    +0.001 A 
ATOM     30  C   UNL     1      -2.243  10.097   7.147  0.00  0.00    +0.001 A 
ATOM     31  C   UNL     1      -2.235   8.862   6.529  0.00  0.00    +0.012 A 
ATOM     32  C   UNL     1      -3.051   7.832   7.022  0.00  0.00    +0.024 A 
ATOM     33  C   UNL     1      -3.057   6.558   6.411  0.00  0.00    +0.133 A 
BRANCH  33  34
ATOM     34  O   UNL     1      -2.280   6.310   5.345  0.00  0.00    -0.506 OA
ATOM     35  H   UNL     1      -2.661   6.486   4.474  0.00  0.00    +0.292 HD
ENDBRANCH  33  34
ENDBRANCH  22  24
ENDBRANCH  19  23
ENDBRANCH   1  19
TORSDOF 7
