REMARK  Name = ZINC39444950
REMARK  10 active torsions:
REMARK  status: ('A' for Active; 'I' for Inactive)
REMARK    1  A    between atoms: C_1  and  C_2
REMARK    2  A    between atoms: C_3  and  C_13
REMARK    3  A    between atoms: C_4  and  C_12
REMARK    4  A    between atoms: C_8  and  C_10
REMARK    5  A    between atoms: C_13  and  C_14
REMARK    6  A    between atoms: C_14  and  C_15
REMARK    7  A    between atoms: N_17  and  C_18
REMARK    8  A    between atoms: N_17  and  C_19
REMARK    9  A    between atoms: C_19  and  C_20
REMARK   10  A    between atoms: N_22  and  C_23
REMARK                            x       y       z     vdW  Elec       q    Type
REMARK                         _______ _______ _______ _____ _____    ______ ____
ROOT
ATOM      1  C   UNL     1      -4.300   0.848  -1.437  0.00  0.00    +0.216 C 
ATOM      2  O   UNL     1      -4.784   1.202  -0.384  0.00  0.00    -0.276 OA
ATOM      3  N   UNL     1      -4.947   1.096  -2.594  0.00  0.00    -0.296 N 
ATOM      4  C   UNL     1      -4.361   0.668  -3.866  0.00  0.00    +0.132 C 
ENDROOT
BRANCH   1   5
ATOM      5  C   UNL     1      -2.974   0.131  -1.454  0.00  0.00    +0.100 C 
BRANCH   5   6
ATOM      6  C   UNL     1      -2.459  -0.022  -0.022  0.00  0.00    +0.046 C 
BRANCH   6   9
ATOM      7  C   UNL     1      -0.018   1.481  -0.013  0.00  0.00    +0.041 C 
ATOM      8  C   UNL     1       0.003  -0.026  -0.034  0.00  0.00    -0.042 C 
ATOM      9  C   UNL     1      -1.134  -0.739  -0.039  0.00  0.00    -0.028 C 
ATOM     10  C   UNL     1      -1.108  -2.147  -0.058  0.00  0.00    +0.034 C 
ATOM     11  N   UNL     1      -0.015  -2.860  -0.073  0.00  0.00    -0.184 NA
ATOM     12  C   UNL     1       1.205  -2.308  -0.072  0.00  0.00    +0.257 C 
ATOM     13  O   UNL     1       2.202  -3.001  -0.087  0.00  0.00    -0.272 OA
ATOM     14  C   UNL     1       1.309  -0.797  -0.058  0.00  0.00    +0.205 C 
ATOM     15  C   UNL     1      -2.427  -2.876  -0.061  0.00  0.00    +0.063 C 
BRANCH  14  16
ATOM     16  C   UNL     1       2.087  -0.409   1.130  0.00  0.00    +0.080 C 
ATOM     17  N   UNL     1       2.688  -0.111   2.047  0.00  0.00    -0.195 NA
ENDBRANCH  14  16
ENDBRANCH   6   9
ENDBRANCH   5   6
ENDBRANCH   1   5
BRANCH   3  18
ATOM     18  C   UNL     1      -6.235   1.793  -2.577  0.00  0.00    +0.203 C 
BRANCH  18  19
ATOM     19  C   UNL     1      -6.003   3.279  -2.681  0.00  0.00    +0.235 C 
ATOM     20  O   UNL     1      -4.873   3.712  -2.761  0.00  0.00    -0.274 OA
ATOM     21  N   UNL     1      -7.052   4.125  -2.685  0.00  0.00    -0.282 N 
ATOM     22  H   UNL     1      -7.957   3.777  -2.687  0.00  0.00    +0.155 HD
BRANCH  21  23
ATOM     23  C   UNL     1      -6.834   5.510  -2.688  0.00  0.00    +0.072 A 
ATOM     24  C   UNL     1      -5.748   6.042  -3.369  0.00  0.00    +0.029 A 
ATOM     25  C   UNL     1      -5.534   7.407  -3.371  0.00  0.00    +0.043 A 
ATOM     26  C   UNL     1      -6.402   8.246  -2.694  0.00  0.00    +0.161 A 
ATOM     27  C   UNL     1      -7.488   7.720  -2.012  0.00  0.00    +0.195 A 
ATOM     28  C   UNL     1      -7.709   6.353  -2.013  0.00  0.00    +0.182 A 
ATOM     29  F   UNL     1      -8.770   5.839  -1.353  0.00  0.00    -0.200 F 
ATOM     30  F   UNL     1      -8.333   8.541  -1.351  0.00  0.00    -0.199 F 
ATOM     31  F   UNL     1      -6.190   9.581  -2.697  0.00  0.00    -0.202 F 
ENDBRANCH  21  23
ENDBRANCH  18  19
ENDBRANCH   3  18
TORSDOF 7
