REMARK  Name = ZINC39698449
REMARK  7 active torsions:
REMARK  status: ('A' for Active; 'I' for Inactive)
REMARK    1  A    between atoms: C_1  and  O_2
REMARK    2  A    between atoms: O_2  and  C_3
REMARK    3  A    between atoms: C_7  and  C_11
REMARK    4  A    between atoms: C_8  and  O_9
REMARK    5  A    between atoms: O_9  and  C_10
REMARK    6  A    between atoms: C_26  and  N_30
REMARK    7  A    between atoms: C_27  and  C_28
REMARK                            x       y       z     vdW  Elec       q    Type
REMARK                         _______ _______ _______ _____ _____    ______ ____
ROOT
ATOM      1  C   UNL     1       1.394  -4.134   2.219  0.00  0.00    +0.087 C 
ATOM      2  C   UNL     1       2.861  -4.576   2.226  0.00  0.00    +0.154 C 
ATOM      3  C   UNL     1       2.843  -6.024   2.687  0.00  0.00    +0.129 C 
ATOM      4  C   UNL     1       3.368  -6.986   1.836  0.00  0.00    +0.035 A 
ATOM      5  C   UNL     1       3.403  -8.347   2.202  0.00  0.00    +0.013 A 
ATOM      6  C   UNL     1       3.932  -9.261   1.343  0.00  0.00    +0.001 A 
ATOM      7  C   UNL     1       4.440  -8.880   0.105  0.00  0.00    +0.002 A 
ATOM      8  C   UNL     1       4.431  -7.581  -0.306  0.00  0.00    +0.024 A 
ATOM      9  C   UNL     1       3.900  -6.584   0.528  0.00  0.00    +0.044 A 
ATOM     10  N   UNL     1       3.883  -5.309   0.120  0.00  0.00    -0.284 N 
ATOM     11  C   UNL     1       3.422  -4.293   0.850  0.00  0.00    +0.229 C 
ATOM     12  O   UNL     1       3.438  -3.153   0.422  0.00  0.00    -0.275 OA
ATOM     13  O   UNL     1       2.312  -6.308   3.878  0.00  0.00    -0.444 OA
ATOM     14  C   UNL     1       1.178  -5.645   4.209  0.00  0.00    +0.198 C 
ATOM     15  C   UNL     1       0.714  -4.615   3.470  0.00  0.00    +0.095 C 
ATOM     16  H   UNL     1       4.237  -5.107  -0.760  0.00  0.00    +0.155 HD
ENDROOT
BRANCH   1  21
ATOM     17  C   UNL     1       0.626  -0.619   1.042  0.00  0.00    +0.162 A 
ATOM     18  C   UNL     1       1.202   0.137   2.051  0.00  0.00    +0.049 A 
ATOM     19  C   UNL     1       1.836  -0.490   3.108  0.00  0.00    +0.004 A 
ATOM     20  C   UNL     1       1.897  -1.870   3.161  0.00  0.00    +0.008 A 
ATOM     21  C   UNL     1       1.325  -2.630   2.158  0.00  0.00    +0.007 A 
ATOM     22  C   UNL     1       0.683  -2.008   1.099  0.00  0.00    +0.165 A 
BRANCH  17  24
ATOM     23  C   UNL     1      -0.017   1.425   0.010  0.00  0.00    +0.277 C 
ATOM     24  O   UNL     1       0.002  -0.004   0.002  0.00  0.00    -0.491 OA
ENDBRANCH  17  24
BRANCH  22  25
ATOM     25  O   UNL     1       0.115  -2.754   0.114  0.00  0.00    -0.491 OA
ATOM     26  C   UNL     1       0.940  -3.091  -1.003  0.00  0.00    +0.277 C 
ENDBRANCH  22  25
ENDBRANCH   1  21
BRANCH  14  27
ATOM     27  N   UNL     1       0.483  -6.032   5.328  0.00  0.00    -0.328 N 
ATOM     28  H   UNL     1       0.805  -6.770   5.869  0.00  0.00    +0.145 HD
ATOM     29  H   UNL     1      -0.331  -5.567   5.578  0.00  0.00    +0.145 HD
ENDBRANCH  14  27
BRANCH  15  30
ATOM     30  C   UNL     1      -0.482  -3.953   3.897  0.00  0.00    +0.100 C 
ATOM     31  N   UNL     1      -1.431  -3.428   4.236  0.00  0.00    -0.191 NA
ENDBRANCH  15  30
TORSDOF 5
