REMARK  Name = ZINC62794857
REMARK  3 active torsions:
REMARK  status: ('A' for Active; 'I' for Inactive)
REMARK    1  A    between atoms: C_3  and  S_11
REMARK    2  A    between atoms: C_6  and  C_7
REMARK    3  A    between atoms: S_11  and  C_12
REMARK                            x       y       z     vdW  Elec       q    Type
REMARK                         _______ _______ _______ _____ _____    ______ ____
ROOT
ATOM      1  C   UNL     1      -0.013   1.379  -0.115  0.00  0.00    +0.012 A 
ATOM      2  C   UNL     1       1.169   2.085  -0.123  0.00  0.00    +0.017 A 
ATOM      3  C   UNL     1       2.383   1.414  -0.012  0.00  0.00    +0.034 A 
ATOM      4  C   UNL     1       2.407   0.026   0.108  0.00  0.00    +0.055 A 
ATOM      5  C   UNL     1       1.228  -0.685   0.116  0.00  0.00    +0.032 A 
ATOM      6  C   UNL     1       0.007  -0.013   0.006  0.00  0.00    +0.014 A 
ATOM      7 CL   UNL     1       3.924  -0.806   0.245  0.00  0.00    -0.082 Cl
ENDROOT
BRANCH   6   8
ATOM      8  C   UNL     1      -1.259  -0.773   0.015  0.00  0.00    +0.094 C 
ATOM      9  N   UNL     1      -1.238  -2.101   0.130  0.00  0.00    -0.387 N 
ATOM     10  N   UNL     1      -2.422  -0.131  -0.091  0.00  0.00    -0.345 N 
ATOM     11  H   UNL     1      -0.392  -2.568   0.207  0.00  0.00    +0.157 HD
ATOM     12  H   UNL     1      -2.437   0.835  -0.174  0.00  0.00    +0.144 HD
ATOM     13  H   UNL     1      -3.254  -0.630  -0.084  0.00  0.00    +0.144 HD
ATOM     14  H   UNL     1      -2.070  -2.600   0.137  0.00  0.00    +0.157 HD
ENDBRANCH   6   8
BRANCH   3  15
ATOM     15  S   UNL     1       3.893   2.322  -0.024  0.00  0.00    -0.048 S 
BRANCH  15  16
ATOM     16  C   UNL     1       4.543   2.048  -1.638  0.00  0.00    +0.196 A 
ATOM     17  N   UNL     1       3.817   1.379  -2.522  0.00  0.00    -0.230 NA
ATOM     18  C   UNL     1       4.273   1.153  -3.745  0.00  0.00    +0.119 A 
ATOM     19  C   UNL     1       5.524   1.625  -4.098  0.00  0.00    +0.092 A 
ATOM     20  C   UNL     1       6.264   2.325  -3.146  0.00  0.00    +0.274 A 
ATOM     21  N   UNL     1       5.744   2.520  -1.940  0.00  0.00    -0.183 NA
ATOM     22  O   UNL     1       7.494   2.804  -3.450  0.00  0.00    -0.266 OA
ENDBRANCH  15  16
ENDBRANCH   3  15
TORSDOF 3
