REMARK  Name = ZINC59890311
REMARK  11 active torsions:
REMARK  status: ('A' for Active; 'I' for Inactive)
REMARK    1  A    between atoms: C_1  and  C_2
REMARK    2  A    between atoms: C_5  and  N_32
REMARK    3  A    between atoms: C_7  and  S_8
REMARK    4  A    between atoms: S_8  and  N_11
REMARK    5  A    between atoms: C_14  and  C_17
REMARK    6  A    between atoms: N_19  and  C_20
REMARK    7  A    between atoms: C_20  and  C_21
REMARK    8  A    between atoms: C_21  and  N_29
REMARK    9  A    between atoms: C_25  and  C_28
REMARK   10  A    between atoms: N_29  and  C_30
REMARK   11  A    between atoms: N_29  and  C_31
REMARK                            x       y       z     vdW  Elec       q    Type
REMARK                         _______ _______ _______ _____ _____    ______ ____
ROOT
ATOM      1  N   UNL     1       1.146   1.235   2.464  0.00  0.00    -0.177 NA
ATOM      2  C   UNL     1       2.311   0.565   3.058  0.00  0.00    +0.110 C 
ATOM      3  C   UNL     1       2.863   1.443   4.185  0.00  0.00    +0.030 C 
ATOM      4  C   UNL     1       3.154   2.843   3.640  0.00  0.00    +0.077 C 
ATOM      5  C   UNL     1       1.857   3.473   3.128  0.00  0.00    +0.030 C 
ATOM      6  C   UNL     1       1.294   2.616   1.984  0.00  0.00    +0.110 C 
ENDROOT
BRANCH   4   7
ATOM      7  C   UNL     1       3.730   3.700   4.738  0.00  0.00    +0.216 C 
ATOM      8  O   UNL     1       3.891   3.237   5.847  0.00  0.00    -0.276 OA
ATOM      9  N   UNL     1       4.065   4.981   4.487  0.00  0.00    -0.316 N 
ATOM     10  H   UNL     1       3.936   5.352   3.600  0.00  0.00    +0.149 HD
BRANCH   9  11
ATOM     11  C   UNL     1       4.625   5.814   5.554  0.00  0.00    +0.092 C 
BRANCH  11  12
ATOM     12  C   UNL     1       5.048   7.167   4.976  0.00  0.00    -0.050 C 
ATOM     13  C   UNL     1       3.811   7.921   4.486  0.00  0.00    -0.010 C 
ATOM     14  C   UNL     1       2.852   8.145   5.657  0.00  0.00    -0.001 C 
ATOM     15  C   UNL     1       3.553   8.965   6.741  0.00  0.00    +0.003 C 
ATOM     16  C   UNL     1       4.790   8.210   7.232  0.00  0.00    -0.015 C 
ATOM     17  C   UNL     1       5.749   7.987   6.061  0.00  0.00    -0.007 C 
ATOM     18  C   UNL     1       5.492   9.031   8.316  0.00  0.00    +0.007 C 
BRANCH  12  19
ATOM     19  N   UNL     1       5.969   6.952   3.852  0.00  0.00    +0.381 N 
ATOM     20  C   UNL     1       6.403   8.251   3.320  0.00  0.00    -0.096 C 
ATOM     21  C   UNL     1       7.140   6.197   4.316  0.00  0.00    -0.096 C 
ATOM     22  H   UNL     1       5.498   6.432   3.127  0.00  0.00    -0.082 HD
ENDBRANCH  12  19
ENDBRANCH  11  12
ENDBRANCH   9  11
ENDBRANCH   4   7
BRANCH   1  23
ATOM     23  S   UNL     1      -0.304   0.447   2.332  0.00  0.00    +0.061 S 
ATOM     24  O   UNL     1      -1.308   1.451   2.264  0.00  0.00    -0.153 OA
ATOM     25  O   UNL     1      -0.308  -0.567   3.327  0.00  0.00    -0.153 OA
BRANCH  23  32
ATOM     26  C   UNL     1      -0.251   1.864  -0.340  0.00  0.00    +0.046 C 
ATOM     27  C   UNL     1      -0.284   0.359  -0.396  0.00  0.00    -0.024 A 
ATOM     28  C   UNL     1      -0.282  -0.287  -1.619  0.00  0.00    +0.007 A 
ATOM     29  C   UNL     1      -0.312  -1.668  -1.670  0.00  0.00    +0.033 A 
ATOM     30  C   UNL     1      -0.343  -2.404  -0.500  0.00  0.00    +0.128 A 
ATOM     31  C   UNL     1      -0.344  -1.758   0.722  0.00  0.00    +0.061 A 
ATOM     32  C   UNL     1      -0.310  -0.376   0.774  0.00  0.00    +0.111 A 
BRANCH  30  33
ATOM     33  N   UNL     1      -0.376  -3.882  -0.555  0.00  0.00    +0.056 N 
ATOM     34  O   UNL     1      -0.376  -4.447  -1.624  0.00  0.00    -0.126 OA
ATOM     35  O   UNL     1      -0.403  -4.525   0.468  0.00  0.00    -0.126 OA
ENDBRANCH  30  33
ENDBRANCH  23  32
ENDBRANCH   1  23
TORSDOF 7
