REMARK  Name = ZINC01435421
REMARK  5 active torsions:
REMARK  status: ('A' for Active; 'I' for Inactive)
REMARK    1  A    between atoms: C_6  and  C_7
REMARK    2  A    between atoms: N_9  and  N_10
REMARK    3  A    between atoms: C_11  and  C_12
REMARK    4  A    between atoms: C_15  and  O_20
REMARK    5  A    between atoms: C_17  and  O_18
REMARK                            x       y       z     vdW  Elec       q    Type
REMARK                         _______ _______ _______ _____ _____    ______ ____
ROOT
ATOM      1  C   UNL     1      -1.264  -0.761   0.008  0.00  0.00    +0.263 C 
ATOM      2  O   UNL     1      -1.246  -1.978   0.002  0.00  0.00    -0.268 OA
ATOM      3  N   UNL     1      -2.442  -0.106   0.022  0.00  0.00    -0.203 N 
ATOM      4  H   UNL     1      -2.457   0.864   0.027  0.00  0.00    +0.178 HD
ENDROOT
BRANCH   1  10
ATOM      5  C   UNL     1      -0.017   1.393   0.010  0.00  0.00    +0.017 A 
ATOM      6  C   UNL     1       1.167   2.097   0.002  0.00  0.00    +0.050 A 
ATOM      7  C   UNL     1       2.383   1.423  -0.013  0.00  0.00    +0.162 A 
ATOM      8  C   UNL     1       2.409   0.031  -0.018  0.00  0.00    +0.163 A 
ATOM      9  C   UNL     1       1.224  -0.682  -0.012  0.00  0.00    +0.062 A 
ATOM     10  C   UNL     1       0.002  -0.004   0.002  0.00  0.00    +0.042 A 
ATOM     11  O   UNL     1       3.591  -0.644  -0.025  0.00  0.00    -0.485 OA
ATOM     12  C   UNL     1       4.754   0.100  -0.406  0.00  0.00    +0.270 C 
ATOM     13  C   UNL     1       4.733   1.440   0.342  0.00  0.00    +0.270 C 
ATOM     14  O   UNL     1       3.538   2.139  -0.024  0.00  0.00    -0.485 OA
ENDBRANCH   1  10
BRANCH   3  15
ATOM     15  N   UNL     1      -3.644  -0.825   0.028  0.00  0.00    -0.187 NA
ATOM     16  C   UNL     1      -4.778  -0.193   0.040  0.00  0.00    +0.142 C 
BRANCH  16  17
ATOM     17  C   UNL     1      -6.043  -0.949   0.047  0.00  0.00    +0.038 A 
ATOM     18  C   UNL     1      -7.265  -0.271   0.055  0.00  0.00    +0.032 A 
ATOM     19  C   UNL     1      -8.446  -0.982   0.061  0.00  0.00    +0.061 A 
ATOM     20  C   UNL     1      -8.425  -2.373   0.059  0.00  0.00    +0.148 A 
ATOM     21  C   UNL     1      -7.217  -3.054   0.051  0.00  0.00    +0.102 A 
ATOM     22  C   UNL     1      -6.024  -2.350   0.039  0.00  0.00    +0.143 A 
ATOM     23 BR   UNL     1      -7.198  -4.945   0.049  0.00  0.00    -0.043 Br
ATOM     24 BR   UNL     1     -10.099  -0.064   0.072  0.00  0.00    -0.046 Br
BRANCH  22  25
ATOM     25  O   UNL     1      -4.840  -3.016   0.025  0.00  0.00    -0.505 OA
ATOM     26  H   UNL     1      -4.490  -3.214   0.905  0.00  0.00    +0.292 HD
ENDBRANCH  22  25
BRANCH  20  27
ATOM     27  O   UNL     1      -9.594  -3.067   0.065  0.00  0.00    -0.504 OA
ATOM     28  H   UNL     1      -9.937  -3.266  -0.816  0.00  0.00    +0.292 HD
ENDBRANCH  20  27
ENDBRANCH  16  17
ENDBRANCH   3  15
TORSDOF 5
