REMARK  Name = ZINC01471265
REMARK  8 active torsions:
REMARK  status: ('A' for Active; 'I' for Inactive)
REMARK    1  A    between atoms: C_1  and  C_2
REMARK    2  A    between atoms: N_8  and  C_9
REMARK    3  A    between atoms: C_9  and  C_10
REMARK    4  A    between atoms: C_16  and  C_24
REMARK    5  A    between atoms: C_18  and  C_22
REMARK    6  A    between atoms: C_19  and  N_21
REMARK    7  A    between atoms: C_27  and  O_31
REMARK    8  A    between atoms: C_28  and  O_30
REMARK                            x       y       z     vdW  Elec       q    Type
REMARK                         _______ _______ _______ _____ _____    ______ ____
ROOT
ATOM      1  C   UNL     1       1.017   3.558   0.128  0.00  0.00    +0.064 C 
ATOM      2  C   UNL     1       1.109   2.055   0.058  0.00  0.00    +0.023 A 
ATOM      3  C   UNL     1       2.306   1.471  -0.164  0.00  0.00    +0.068 A 
ATOM      4  C   UNL     1       2.398   0.066  -0.231  0.00  0.00    +0.141 A 
ATOM      5  C   UNL     1       1.254  -0.687  -0.066  0.00  0.00    +0.072 A 
ATOM      6  C   UNL     1       0.034  -0.037   0.162  0.00  0.00    +0.259 A 
ATOM      7  O   UNL     1      -0.987  -0.691   0.310  0.00  0.00    -0.267 OA
ATOM      8  N   UNL     1      -0.014   1.307   0.219  0.00  0.00    -0.308 N 
ATOM      9  C   UNL     1       1.306  -2.189  -0.128  0.00  0.00    +0.103 C 
ATOM     10  C   UNL     1       2.593  -2.636  -0.765  0.00  0.00    +0.098 C 
ATOM     11  C   UNL     1       3.645  -1.792  -0.890  0.00  0.00    +0.199 C 
ATOM     12  O   UNL     1       3.593  -0.522  -0.453  0.00  0.00    -0.441 OA
ENDROOT
BRANCH   9  13
ATOM     13  C   UNL     1       1.222  -2.750   1.268  0.00  0.00    -0.031 A 
ATOM     14  C   UNL     1       2.188  -2.422   2.203  0.00  0.00    +0.008 A 
ATOM     15  C   UNL     1       2.112  -2.929   3.486  0.00  0.00    +0.049 A 
ATOM     16  C   UNL     1       1.073  -3.777   3.836  0.00  0.00    +0.158 A 
ATOM     17  C   UNL     1       0.105  -4.112   2.894  0.00  0.00    +0.159 A 
ATOM     18  C   UNL     1       0.183  -3.595   1.611  0.00  0.00    +0.053 A 
BRANCH  17  19
ATOM     19  O   UNL     1      -0.917  -4.943   3.233  0.00  0.00    -0.503 OA
ATOM     20  H   UNL     1      -1.682  -5.206   2.487  0.00  0.00    +0.292 HD
ENDBRANCH  17  19
BRANCH  16  21
ATOM     21  O   UNL     1       1.000  -4.282   5.097  0.00  0.00    -0.503 OA
ATOM     22  H   UNL     1       0.175  -4.955   5.373  0.00  0.00    +0.292 HD
ENDBRANCH  16  21
ENDBRANCH   9  13
BRANCH  11  23
ATOM     23  N   UNL     1       4.798  -2.248  -1.478  0.00  0.00    -0.328 N 
ATOM     24  H   UNL     1       5.662  -1.577  -1.587  0.00  0.00    +0.145 HD
ATOM     25  H   UNL     1       4.858  -3.285  -1.840  0.00  0.00    +0.145 HD
ENDBRANCH  11  23
BRANCH  10  26
ATOM     26  C   UNL     1       2.708  -3.979  -1.249  0.00  0.00    +0.101 C 
ATOM     27  N   UNL     1       2.799  -5.044  -1.633  0.00  0.00    -0.191 NA
ENDBRANCH  10  26
BRANCH   8  28
ATOM     28  C   UNL     1      -1.298   1.973   0.451  0.00  0.00    +0.161 C 
BRANCH  28  29
ATOM     29  C   UNL     1      -1.546   2.082   1.933  0.00  0.00    -0.010 A 
ATOM     30  C   UNL     1      -2.220   1.076   2.608  0.00  0.00    +0.008 A 
ATOM     31  C   UNL     1      -2.422   1.217   3.972  0.00  0.00    +0.020 A 
ATOM     32  C   UNL     1      -1.957   2.352   4.608  0.00  0.00    +0.111 A 
ATOM     33  N   UNL     1      -1.324   3.292   3.933  0.00  0.00    -0.263 NA
ATOM     34  C   UNL     1      -1.110   3.189   2.636  0.00  0.00    +0.116 A 
ENDBRANCH  28  29
ENDBRANCH   8  28
TORSDOF 7
