REMARK  Name = ZINC09360511
REMARK  9 active torsions:
REMARK  status: ('A' for Active; 'I' for Inactive)
REMARK    1  A    between atoms: C_1  and  C_2
REMARK    2  A    between atoms: C_2  and  C_3
REMARK    3  A    between atoms: N_8  and  C_9
REMARK    4  A    between atoms: C_9  and  C_11
REMARK    5  A    between atoms: C_11  and  C_12
REMARK    6  A    between atoms: C_12  and  C_13
REMARK    7  A    between atoms: C_20  and  O_21
REMARK    8  A    between atoms: C_20  and  N_53
REMARK    9  A    between atoms: O_21  and  C_22
REMARK                            x       y       z     vdW  Elec       q    Type
REMARK                         _______ _______ _______ _____ _____    ______ ____
ROOT
ATOM      1  C   UNL     1      -0.072   1.607   0.901  0.00  0.00    +0.216 C 
ATOM      2  O   UNL     1      -1.037   2.303   0.668  0.00  0.00    -0.276 OA
ATOM      3  N   UNL     1       0.231   1.276   2.172  0.00  0.00    -0.305 N 
ATOM      4  C   UNL     1       1.394   0.428   2.475  0.00  0.00    +0.089 C 
ATOM      5  C   UNL     1       2.236   1.132   3.551  0.00  0.00    -0.055 C 
ATOM      6  C   UNL     1       0.320   2.395   4.336  0.00  0.00    -0.055 C 
ATOM      7  C   UNL     1      -0.597   1.749   3.292  0.00  0.00    +0.089 C 
ATOM      8  N   UNL     1       1.369   1.423   4.714  0.00  0.00    +0.404 N 
ATOM      9  H   UNL     1       0.920   0.552   5.021  0.00  0.00    -0.077 HD
ENDROOT
BRANCH   1  10
ATOM     10  C   UNL     1       0.790   1.112  -0.232  0.00  0.00    +0.105 C 
BRANCH  10  11
ATOM     11  C   UNL     1       0.232   1.626  -1.560  0.00  0.00    +0.107 C 
BRANCH  11  12
ATOM     12  C   UNL     1       1.093   1.131  -2.693  0.00  0.00    +0.239 C 
ATOM     13  O   UNL     1       2.062   0.433  -2.460  0.00  0.00    -0.274 OA
BRANCH  12  19
ATOM     14  C   UNL     1       3.316  -0.050  -6.638  0.00  0.00    +0.101 A 
ATOM     15  N   UNL     1       2.351   0.671  -7.132  0.00  0.00    -0.170 NA
ATOM     16  N   UNL     1       1.427   1.235  -6.280  0.00  0.00    -0.256 N 
ATOM     17  H   UNL     1       0.700   1.776  -6.625  0.00  0.00    +0.191 HD
ATOM     18  C   UNL     1       1.559   1.018  -4.948  0.00  0.00    +0.181 A 
ATOM     19  N   UNL     1       0.796   1.457  -3.944  0.00  0.00    -0.155 NA
ATOM     20  S   UNL     1       2.983   0.028  -4.887  0.00  0.00    -0.036 S 
BRANCH  14  22
ATOM     21  C   UNL     1       5.633   0.178  -7.492  0.00  0.00    +0.011 C 
ATOM     22  C   UNL     1       4.432  -0.761  -7.359  0.00  0.00    +0.061 C 
ENDBRANCH  14  22
ENDBRANCH  12  19
ENDBRANCH  11  12
ENDBRANCH  10  11
ENDBRANCH   1  10
BRANCH   8  23
ATOM     23  C   UNL     1       2.180   1.963   5.825  0.00  0.00    +0.157 C 
BRANCH  23  24
ATOM     24  O   UNL     1       2.792   0.871   6.514  0.00  0.00    -0.509 OA
BRANCH  24  25
ATOM     25  C   UNL     1       2.003   0.153   7.356  0.00  0.00    +0.118 A 
ATOM     26  C   UNL     1       0.646   0.426   7.438  0.00  0.00    +0.047 A 
ATOM     27  C   UNL     1      -0.155  -0.308   8.291  0.00  0.00    +0.023 A 
ATOM     28  C   UNL     1       0.398  -1.308   9.072  0.00  0.00    +0.041 A 
ATOM     29  C   UNL     1       1.753  -1.579   8.995  0.00  0.00    +0.023 A 
ATOM     30  C   UNL     1       2.556  -0.850   8.139  0.00  0.00    +0.047 A 
ATOM     31 CL   UNL     1      -0.610  -2.225  10.148  0.00  0.00    -0.084 Cl
ENDBRANCH  24  25
ENDBRANCH  23  24
ENDBRANCH   8  23
TORSDOF 8
