REMARK  Name = ZINC44095292
REMARK  9 active torsions:
REMARK  status: ('A' for Active; 'I' for Inactive)
REMARK    1  A    between atoms: C_1  and  C_2
REMARK    2  A    between atoms: C_2  and  C_3
REMARK    3  A    between atoms: C_2  and  C_4
REMARK    4  A    between atoms: C_6  and  C_9
REMARK    5  A    between atoms: C_21  and  C_23
REMARK    6  A    between atoms: C_26  and  S_29
REMARK    7  A    between atoms: S_29  and  N_32
REMARK    8  A    between atoms: N_32  and  C_33
REMARK    9  A    between atoms: N_32  and  C_34
REMARK                            x       y       z     vdW  Elec       q    Type
REMARK                         _______ _______ _______ _____ _____    ______ ____
ROOT
ATOM      1  C   UNL     1      -4.480  -1.895  -1.777  0.00  0.00    +0.038 A 
ATOM      2  C   UNL     1      -5.729  -2.127  -1.189  0.00  0.00    +0.016 A 
ATOM      3  C   UNL     1      -6.602  -2.991  -1.819  0.00  0.00    +0.042 A 
ATOM      4  C   UNL     1      -6.214  -3.600  -3.010  0.00  0.00    +0.099 A 
ATOM      5  N   UNL     1      -5.024  -3.359  -3.540  0.00  0.00    -0.349 N 
ATOM      6  C   UNL     1      -4.165  -2.537  -2.972  0.00  0.00    +0.095 A 
ATOM      7  N   UNL     1      -7.086  -4.470  -3.650  0.00  0.00    -0.314 N 
ATOM      8  C   UNL     1      -6.755  -5.023  -4.971  0.00  0.00    +0.125 C 
ATOM      9  C   UNL     1      -6.818  -6.553  -4.891  0.00  0.00    +0.127 C 
ATOM     10  N   UNL     1      -8.087  -6.939  -4.259  0.00  0.00    -0.295 N 
ATOM     11  C   UNL     1      -8.418  -6.387  -2.938  0.00  0.00    +0.127 C 
ATOM     12  C   UNL     1      -8.352  -4.861  -3.015  0.00  0.00    +0.125 C 
ATOM     13  C   UNL     1      -8.934  -7.785  -4.880  0.00  0.00    +0.247 C 
ATOM     14  O   UNL     1     -10.023  -8.019  -4.395  0.00  0.00    -0.270 OA
ATOM     15  H   UNL     1      -4.780  -3.797  -4.370  0.00  0.00    +0.167 HD
ENDROOT
BRANCH  13  16
ATOM     16  C   UNL     1      -8.537  -8.427  -6.151  0.00  0.00    +0.037 A 
ATOM     17  C   UNL     1      -7.239  -8.913  -6.316  0.00  0.00    +0.015 A 
ATOM     18  C   UNL     1      -6.875  -9.511  -7.504  0.00  0.00    +0.029 A 
ATOM     19  C   UNL     1      -7.793  -9.630  -8.532  0.00  0.00    +0.105 A 
ATOM     20  C   UNL     1      -9.082  -9.150  -8.375  0.00  0.00    +0.029 A 
ATOM     21  C   UNL     1      -9.460  -8.555  -7.190  0.00  0.00    +0.015 A 
BRANCH  19  22
ATOM     22  S   UNL     1      -7.321 -10.396 -10.047  0.00  0.00    +0.060 S 
ATOM     23  O   UNL     1      -8.199  -9.896 -11.046  0.00  0.00    -0.153 OA
ATOM     24  O   UNL     1      -5.908 -10.270 -10.142  0.00  0.00    -0.153 OA
BRANCH  22  25
ATOM     25  N   UNL     1      -7.643 -12.013  -9.899  0.00  0.00    -0.183 NA
ATOM     26  C   UNL     1      -8.952 -12.538 -10.295  0.00  0.00    +0.131 C 
ATOM     27  C   UNL     1      -6.619 -12.919  -9.374  0.00  0.00    +0.131 C 
ENDBRANCH  22  25
ENDBRANCH  19  22
ENDBRANCH  13  16
BRANCH   1  30
ATOM     28  C   UNL     1      -2.649   0.414   0.289  0.00  0.00    +0.230 A 
ATOM     29  N   UNL     1      -3.700  -0.303   0.010  0.00  0.00    -0.191 NA
ATOM     30  C   UNL     1      -3.507  -0.976  -1.139  0.00  0.00    +0.203 A 
ATOM     31  N   UNL     1      -2.316  -0.682  -1.601  0.00  0.00    -0.056 NA
ATOM     32  O   UNL     1      -1.742   0.233  -0.679  0.00  0.00    -0.337 OA
BRANCH  28  34
ATOM     33  C   UNL     1      -1.281   0.836   2.313  0.00  0.00    +0.017 C 
ATOM     34  C   UNL     1      -2.485   1.304   1.494  0.00  0.00    +0.072 C 
ATOM     35  C   UNL     1      -2.260   2.747   1.036  0.00  0.00    +0.017 C 
ENDBRANCH  28  34
ENDBRANCH   1  30
TORSDOF 5
