REMARK  Name = ZINC35590592
REMARK  7 active torsions:
REMARK  status: ('A' for Active; 'I' for Inactive)
REMARK    1  A    between atoms: C_1  and  C_2
REMARK    2  A    between atoms: C_3  and  C_17
REMARK    3  A    between atoms: C_4  and  C_10
REMARK    4  A    between atoms: N_19  and  C_20
REMARK    5  A    between atoms: C_20  and  C_21
REMARK    6  A    between atoms: C_20  and  C_22
REMARK    7  A    between atoms: C_20  and  C_23
REMARK                            x       y       z     vdW  Elec       q    Type
REMARK                         _______ _______ _______ _____ _____    ______ ____
ROOT
ATOM      1  C   UNL     1      -0.279   1.640  -0.032  0.00  0.00    +0.061 C 
ATOM      2  C   UNL     1      -0.193   0.136  -0.083  0.00  0.00    +0.017 C 
ATOM      3  C   UNL     1      -1.326  -0.596  -0.044  0.00  0.00    +0.055 C 
ATOM      4  C   UNL     1      -1.194  -2.104  -0.098  0.00  0.00    +0.140 C 
ATOM      5  N   UNL     1       0.170  -2.651  -0.188  0.00  0.00    -0.315 N 
ATOM      6  C   UNL     1       1.206  -1.790  -0.217  0.00  0.00    +0.135 C 
ATOM      7  S   UNL     1       2.798  -2.412  -0.321  0.00  0.00    -0.019 S 
ATOM      8  N   UNL     1       1.031  -0.463  -0.172  0.00  0.00    -0.300 N 
ATOM      9  H   UNL     1       0.320  -3.609  -0.225  0.00  0.00    +0.149 HD
ATOM     10  H   UNL     1       1.817   0.104  -0.200  0.00  0.00    +0.154 HD
ENDROOT
BRANCH   4  11
ATOM     11  C   UNL     1      -1.841  -2.671   1.139  0.00  0.00    -0.004 A 
ATOM     12  C   UNL     1      -1.089  -2.876   2.281  0.00  0.00    +0.007 A 
ATOM     13  C   UNL     1      -1.682  -3.396   3.416  0.00  0.00    +0.000 A 
ATOM     14  C   UNL     1      -3.028  -3.712   3.410  0.00  0.00    +0.001 A 
ATOM     15  C   UNL     1      -3.781  -3.508   2.269  0.00  0.00    +0.020 A 
ATOM     16  C   UNL     1      -3.189  -2.982   1.135  0.00  0.00    +0.046 A 
ATOM     17 CL   UNL     1      -4.136  -2.719  -0.297  0.00  0.00    -0.083 Cl
ENDBRANCH   4  11
BRANCH   3  18
ATOM     18  C   UNL     1      -2.596   0.026   0.043  0.00  0.00    +0.244 C 
ATOM     19  O   UNL     1      -3.283   0.151  -0.955  0.00  0.00    -0.270 OA
ATOM     20  N   UNL     1      -3.045   0.477   1.231  0.00  0.00    -0.307 N 
ATOM     21  H   UNL     1      -2.473   0.436   2.013  0.00  0.00    +0.150 HD
BRANCH  20  22
ATOM     22  C   UNL     1      -4.397   1.031   1.340  0.00  0.00    +0.026 C 
ATOM     23  C   UNL     1      -5.413  -0.006   0.858  0.00  0.00    +0.031 C 
ATOM     24  C   UNL     1      -4.686   1.387   2.800  0.00  0.00    +0.031 C 
ATOM     25  C   UNL     1      -4.505   2.290   0.478  0.00  0.00    +0.031 C 
ENDBRANCH  20  22
ENDBRANCH   3  18
TORSDOF 3
