REMARK  Name = ZINC63384334
REMARK  6 active torsions:
REMARK  status: ('A' for Active; 'I' for Inactive)
REMARK    1  A    between atoms: C_1  and  N_2
REMARK    2  A    between atoms: C_5  and  C_21
REMARK    3  A    between atoms: C_7  and  O_20
REMARK    4  A    between atoms: N_9  and  C_12
REMARK    5  A    between atoms: C_15  and  O_18
REMARK    6  A    between atoms: O_18  and  C_19
REMARK                            x       y       z     vdW  Elec       q    Type
REMARK                         _______ _______ _______ _____ _____    ______ ____
ROOT
ATOM      1  C   UNL     1      -0.052   1.513   0.579  0.00  0.00    +0.143 C 
ATOM      2  N   UNL     1      -0.024   0.080   0.276  0.00  0.00    -0.228 N 
ATOM      3  C   UNL     1      -1.180  -0.575   0.064  0.00  0.00    +0.232 C 
ATOM      4  O   UNL     1      -2.238   0.001   0.204  0.00  0.00    -0.275 OA
ATOM      5  C   UNL     1      -1.160  -2.026  -0.347  0.00  0.00    +0.142 C 
ATOM      6  C   UNL     1       0.024  -2.723   0.327  0.00  0.00    +0.224 C 
ATOM      7  N   UNL     1       1.226  -1.901   0.176  0.00  0.00    -0.228 N 
ATOM      8  C   UNL     1       1.155  -0.560   0.208  0.00  0.00    +0.317 C 
ATOM      9  O   UNL     1       2.182   0.091   0.180  0.00  0.00    -0.252 OA
ENDROOT
BRANCH   5  10
ATOM     10  C   UNL     1      -1.015  -2.125  -1.867  0.00  0.00    +0.096 C 
ATOM     11  C   UNL     1      -1.022  -3.595  -2.291  0.00  0.00    +0.124 C 
ATOM     12  C   UNL     1      -0.704  -3.610  -3.782  0.00  0.00    -0.036 C 
ATOM     13  C   UNL     1      -1.679  -4.292  -4.367  0.00  0.00    -0.001 A 
ATOM     14  C   UNL     1      -1.881  -4.713  -5.763  0.00  0.00    +0.010 A 
ATOM     15  C   UNL     1      -3.025  -5.402  -6.021  0.00  0.00    +0.001 A 
ATOM     16  C   UNL     1      -3.975  -5.709  -5.043  0.00  0.00    +0.002 A 
ATOM     17  C   UNL     1      -3.868  -5.367  -3.735  0.00  0.00    +0.026 A 
ATOM     18  C   UNL     1      -2.705  -4.644  -3.338  0.00  0.00    +0.043 A 
ATOM     19  N   UNL     1      -2.338  -4.216  -2.146  0.00  0.00    -0.376 N 
ATOM     20  C   UNL     1       0.477  -2.859  -4.347  0.00  0.00    +0.048 C 
ATOM     21  C   UNL     1       0.419  -1.446  -3.738  0.00  0.00    +0.085 C 
ATOM     22  N   UNL     1       0.265  -1.529  -2.283  0.00  0.00    -0.310 NA
ATOM     23  H   UNL     1       0.400  -0.626  -1.852  0.00  0.00    +0.122 HD
ATOM     24  H   UNL     1      -2.843  -4.290  -1.321  0.00  0.00    +0.160 HD
ENDBRANCH   5  10
BRANCH   7  25
ATOM     25  C   UNL     1       2.469  -2.522  -0.009  0.00  0.00    +0.040 A 
ATOM     26  C   UNL     1       3.020  -3.291   1.008  0.00  0.00    +0.027 A 
ATOM     27  C   UNL     1       4.244  -3.903   0.824  0.00  0.00    +0.047 A 
ATOM     28  C   UNL     1       4.923  -3.750  -0.376  0.00  0.00    +0.120 A 
ATOM     29  C   UNL     1       4.373  -2.982  -1.392  0.00  0.00    +0.047 A 
ATOM     30  C   UNL     1       3.146  -2.374  -1.212  0.00  0.00    +0.027 A 
BRANCH  28  31
ATOM     31  O   UNL     1       6.129  -4.352  -0.556  0.00  0.00    -0.495 OA
ATOM     32  C   UNL     1       6.772  -4.152  -1.816  0.00  0.00    +0.277 C 
ENDBRANCH  28  31
ENDBRANCH   7  25
BRANCH   6  33
ATOM     33  O   UNL     1      -0.258  -2.903   1.717  0.00  0.00    -0.373 OA
ATOM     34  H   UNL     1       0.451  -3.340   2.208  0.00  0.00    +0.212 HD
ENDBRANCH   6  33
TORSDOF 4
