REMARK  Name = ZINC16037037
REMARK  7 active torsions:
REMARK  status: ('A' for Active; 'I' for Inactive)
REMARK    1  A    between atoms: C_1  and  C_2
REMARK    2  A    between atoms: C_13  and  O_15
REMARK    3  A    between atoms: O_15  and  C_16
REMARK    4  A    between atoms: C_16  and  C_18
REMARK    5  A    between atoms: C_18  and  C_19
REMARK    6  A    between atoms: C_19  and  N_72
REMARK    7  A    between atoms: C_33  and  C_34
REMARK                            x       y       z     vdW  Elec       q    Type
REMARK                         _______ _______ _______ _____ _____    ______ ____
ROOT
ATOM      1  C   UNL     1      -2.248   1.213  -1.095  0.00  0.00    +0.015 C 
ATOM      2  C   UNL     1      -0.772   1.601  -1.201  0.00  0.00    +0.008 C 
ATOM      3  C   UNL     1      -0.013   1.086   0.008  0.00  0.00    +0.011 C 
ATOM      4  C   UNL     1      -0.757   1.594   1.250  0.00  0.00    +0.005 C 
ATOM      5  C   UNL     1      -0.887   3.116   1.271  0.00  0.00    +0.002 C 
ATOM      6  C   UNL     1      -1.461   3.676  -0.030  0.00  0.00    -0.003 C 
ATOM      7  C   UNL     1      -0.628   3.146  -1.186  0.00  0.00    +0.002 C 
ATOM      8  C   UNL     1      -1.127   3.519  -2.587  0.00  0.00    +0.008 C 
ATOM      9  C   UNL     1      -0.490   2.425  -3.486  0.00  0.00    +0.045 C 
ATOM     10  C   UNL     1      -0.213   1.210  -2.566  0.00  0.00    +0.183 C 
ATOM     11  C   UNL     1      -1.417   5.201  -0.056  0.00  0.00    +0.008 C 
ATOM     12  C   UNL     1      -1.646   5.810   1.317  0.00  0.00    +0.032 C 
ATOM     13  C   UNL     1      -2.420   4.835   2.171  0.00  0.00    -0.060 C 
ATOM     14  C   UNL     1      -3.616   5.160   2.652  0.00  0.00    +0.046 C 
ATOM     15  C   UNL     1      -4.383   4.215   3.462  0.00  0.00    +0.156 C 
ATOM     16  O   UNL     1      -5.465   4.537   3.908  0.00  0.00    -0.293 OA
ATOM     17  C   UNL     1      -3.830   2.840   3.740  0.00  0.00    +0.080 C 
ATOM     18  C   UNL     1      -2.901   2.437   2.590  0.00  0.00    +0.019 C 
ATOM     19  C   UNL     1      -1.801   3.491   2.447  0.00  0.00    -0.007 C 
ATOM     20  C   UNL     1      -0.979   3.552   3.736  0.00  0.00    +0.016 C 
ENDROOT
BRANCH  10  21
ATOM     21  O   UNL     1      -0.895   0.032  -3.070  0.00  0.00    -0.461 OA
BRANCH  21  22
ATOM     22  C   UNL     1      -0.191  -0.784  -3.870  0.00  0.00    +0.306 C 
ATOM     23  O   UNL     1       0.957  -0.522  -4.140  0.00  0.00    -0.251 OA
BRANCH  22  24
ATOM     24  C   UNL     1      -0.832  -2.027  -4.432  0.00  0.00    +0.102 C 
BRANCH  24  25
ATOM     25  C   UNL     1       0.179  -2.773  -5.304  0.00  0.00    -0.068 C 
BRANCH  25  31
ATOM     26  C   UNL     1      -0.766  -4.940  -4.783  0.00  0.00    -0.079 C 
ATOM     27  C   UNL     1      -1.545  -6.121  -5.369  0.00  0.00    -0.019 C 
ATOM     28  C   UNL     1      -0.697  -6.799  -6.449  0.00  0.00    -0.004 C 
ATOM     29  C   UNL     1      -0.337  -5.771  -7.524  0.00  0.00    -0.019 C 
ATOM     30  C   UNL     1       0.406  -4.600  -6.876  0.00  0.00    -0.079 C 
ATOM     31  N   UNL     1      -0.472  -3.976  -5.864  0.00  0.00    +0.380 N 
ATOM     32  H   UNL     1      -1.353  -3.699  -6.313  0.00  0.00    -0.082 HD
ENDBRANCH  25  31
ENDBRANCH  24  25
ENDBRANCH  22  24
ENDBRANCH  21  22
ENDBRANCH  10  21
TORSDOF 5
