REMARK  Name = ZINC17724760
REMARK  8 active torsions:
REMARK  status: ('A' for Active; 'I' for Inactive)
REMARK    1  A    between atoms: C_1  and  N_2
REMARK    2  A    between atoms: N_2  and  C_3
REMARK    3  A    between atoms: C_4  and  C_6
REMARK    4  A    between atoms: C_6  and  C_8
REMARK    5  A    between atoms: C_6  and  S_14
REMARK    6  A    between atoms: S_14  and  C_15
REMARK    7  A    between atoms: C_18  and  C_21
REMARK    8  A    between atoms: N_19  and  N_20
REMARK                            x       y       z     vdW  Elec       q    Type
REMARK                         _______ _______ _______ _____ _____    ______ ____
ROOT
ATOM      1  C   UNL     1       3.855   5.545  -0.159  0.00  0.00    +0.210 A 
ATOM      2  N   UNL     1       4.430   4.366  -0.246  0.00  0.00    -0.121 NA
ATOM      3  N   UNL     1       3.538   3.446  -0.345  0.00  0.00    -0.127 NA
ATOM      4  C   UNL     1       2.339   3.980  -0.327  0.00  0.00    +0.183 A 
ATOM      5  N   UNL     1       2.505   5.341  -0.213  0.00  0.00    -0.224 N 
ENDROOT
BRANCH   4   6
ATOM      6  C   UNL     1       1.054   3.256  -0.419  0.00  0.00    +0.035 A 
ATOM      7  C   UNL     1       0.059   3.702  -1.291  0.00  0.00    +0.013 A 
ATOM      8  C   UNL     1      -1.139   3.022  -1.371  0.00  0.00    +0.001 A 
ATOM      9  C   UNL     1      -1.358   1.904  -0.586  0.00  0.00    +0.001 A 
ATOM     10  C   UNL     1      -0.375   1.454   0.277  0.00  0.00    +0.016 A 
ATOM     11  C   UNL     1       0.829   2.124   0.367  0.00  0.00    +0.029 A 
ATOM     12 BR   UNL     1       2.169   1.511   1.551  0.00  0.00    -0.050 Br
ENDBRANCH   4   6
BRANCH   5  13
ATOM     13  N   UNL     1       1.525   6.291  -0.163  0.00  0.00    -0.295 N 
ATOM     14  H   UNL     1       1.299   6.528   0.792  0.00  0.00    +0.163 HD
ATOM     15  H   UNL     1       1.789   7.112  -0.686  0.00  0.00    +0.163 HD
ENDBRANCH   5  13
BRANCH   1  16
ATOM     16  S   UNL     1       4.672   7.098  -0.008  0.00  0.00    -0.067 S 
BRANCH  16  17
ATOM     17  C   UNL     1       6.396   6.548  -0.015  0.00  0.00    +0.170 C 
BRANCH  17  18
ATOM     18  C   UNL     1       7.301   7.728   0.230  0.00  0.00    -0.025 A 
ATOM     19  C   UNL     1       7.321   8.781  -0.664  0.00  0.00    +0.005 A 
ATOM     20  C   UNL     1       8.148   9.866  -0.437  0.00  0.00    +0.000 A 
ATOM     21  C   UNL     1       8.962   9.892   0.680  0.00  0.00    +0.000 A 
ATOM     22  C   UNL     1       8.945   8.836   1.572  0.00  0.00    +0.000 A 
ATOM     23  C   UNL     1       8.116   7.754   1.347  0.00  0.00    +0.005 A 
ENDBRANCH  17  18
BRANCH  17  27
ATOM     24  C   UNL     1       7.953   4.344  -2.728  0.00  0.00    +0.131 C 
ATOM     25  N   UNL     1       7.709   5.022  -1.452  0.00  0.00    -0.306 N 
ATOM     26  C   UNL     1       8.538   4.708  -0.286  0.00  0.00    +0.131 C 
ATOM     27  C   UNL     1       6.723   5.934  -1.352  0.00  0.00    +0.233 C 
ATOM     28  O   UNL     1       6.097   6.262  -2.339  0.00  0.00    -0.274 OA
ENDBRANCH  17  27
ENDBRANCH  16  17
ENDBRANCH   1  16
TORSDOF 6
