REMARK  Name = ZINC32759974
REMARK  11 active torsions:
REMARK  status: ('A' for Active; 'I' for Inactive)
REMARK    1  A    between atoms: C_1  and  C_2
REMARK    2  A    between atoms: C_2  and  C_3
REMARK    3  A    between atoms: C_2  and  C_4
REMARK    4  A    between atoms: C_4  and  C_5
REMARK    5  A    between atoms: C_8  and  C_11
REMARK    6  A    between atoms: C_11  and  C_13
REMARK    7  A    between atoms: C_11  and  N_16
REMARK    8  A    between atoms: C_13  and  C_14
REMARK    9  A    between atoms: C_13  and  C_15
REMARK   10  A    between atoms: N_16  and  C_17
REMARK   11  A    between atoms: C_17  and  C_18
REMARK                            x       y       z     vdW  Elec       q    Type
REMARK                         _______ _______ _______ _____ _____    ______ ____
ROOT
ATOM      1  N   UNL     1       6.981   1.162   0.035  0.00  0.00    +0.388 N 
ATOM      2  H   UNL     1       6.741   0.219   0.302  0.00  0.00    -0.084 HD
ATOM      3  H   UNL     1       7.980   1.284   0.092  0.00  0.00    -0.084 HD
ENDROOT
BRANCH   1   4
ATOM      4  C   UNL     1       6.535   1.410  -1.343  0.00  0.00    -0.038 C 
BRANCH   4   8
ATOM      5  C   UNL     1       2.369   0.527  -1.673  0.00  0.00    -0.047 A 
ATOM      6  C   UNL     1       2.895   1.629  -2.321  0.00  0.00    +0.004 A 
ATOM      7  C   UNL     1       4.243   1.914  -2.214  0.00  0.00    +0.002 A 
ATOM      8  C   UNL     1       5.065   1.099  -1.459  0.00  0.00    -0.061 A 
ATOM      9  C   UNL     1       4.538  -0.003  -0.810  0.00  0.00    +0.002 A 
ATOM     10  C   UNL     1       3.189  -0.286  -0.914  0.00  0.00    +0.004 A 
BRANCH   5  11
ATOM     11  C   UNL     1       0.899   0.215  -1.790  0.00  0.00    +0.038 C 
BRANCH  11  13
ATOM     12  C   UNL     1       0.245   2.440  -0.860  0.00  0.00    +0.007 C 
ATOM     13  C   UNL     1       0.136   0.925  -0.670  0.00  0.00    -0.013 C 
ATOM     14  C   UNL     1      -1.336   0.511  -0.713  0.00  0.00    +0.007 C 
ENDBRANCH  11  13
ENDBRANCH   5  11
ENDBRANCH   4   8
BRANCH   4  15
ATOM     15  C   UNL     1       7.323   0.515  -2.302  0.00  0.00    -0.027 C 
ATOM     16  C   UNL     1       6.876   0.790  -3.739  0.00  0.00    +0.006 C 
ATOM     17  C   UNL     1       8.817   0.814  -2.166  0.00  0.00    +0.006 C 
ENDBRANCH   4  15
ENDBRANCH   1   4
BRANCH   1  18
ATOM     18  C   UNL     1       6.319   2.110   0.942  0.00  0.00    -0.006 C 
BRANCH  18  19
ATOM     19  C   UNL     1       6.802   1.879   2.350  0.00  0.00    +0.094 A 
ATOM     20  N   UNL     1       6.312   2.648   3.357  0.00  0.00    -0.312 N 
ATOM     21  H   UNL     1       5.657   3.334   3.155  0.00  0.00    +0.170 HD
ATOM     22  C   UNL     1       6.718   2.475   4.630  0.00  0.00    +0.260 A 
ATOM     23  O   UNL     1       6.269   3.172   5.524  0.00  0.00    -0.267 OA
ATOM     24  C   UNL     1       7.685   1.458   4.913  0.00  0.00    +0.075 A 
ATOM     25  C   UNL     1       8.266   1.096   6.215  0.00  0.00    -0.023 A 
ATOM     26  C   UNL     1       9.164   0.097   6.223  0.00  0.00    -0.004 A 
ATOM     27  S   UNL     1       9.291  -0.421   4.526  0.00  0.00    -0.073 S 
ATOM     28  C   UNL     1       8.132   0.716   3.812  0.00  0.00    +0.116 A 
ATOM     29  N   UNL     1       7.681   0.941   2.580  0.00  0.00    -0.229 NA
ATOM     30  C   UNL     1       9.693  -0.182   7.604  0.00  0.00    +0.043 C 
ATOM     31  C   UNL     1       9.321   1.075   8.422  0.00  0.00    +0.010 C 
ATOM     32  C   UNL     1       8.093   1.598   7.652  0.00  0.00    +0.037 C 
ENDBRANCH  18  19
ENDBRANCH   1  18
TORSDOF 7
