REMARK  Name = ZINC19337346
REMARK  15 active torsions:
REMARK  status: ('A' for Active; 'I' for Inactive)
REMARK    1  A    between atoms: C_1  and  C_2
REMARK    2  A    between atoms: C_2  and  N_3
REMARK    3  A    between atoms: N_3  and  C_4
REMARK    4  A    between atoms: C_4  and  C_5
REMARK    5  A    between atoms: C_6  and  C_8
REMARK    6  A    between atoms: C_8  and  O_9
REMARK    7  A    between atoms: O_9  and  C_10
REMARK    8  A    between atoms: N_13  and  C_28
REMARK    9  A    between atoms: N_17  and  C_19
REMARK   10  A    between atoms: C_19  and  C_20
REMARK   11  A    between atoms: C_23  and  O_26
REMARK   12  A    between atoms: O_26  and  C_27
REMARK   13  A    between atoms: C_28  and  C_30
REMARK   14  A    between atoms: C_28  and  C_31
REMARK   15  A    between atoms: C_31  and  O_32
REMARK                            x       y       z     vdW  Elec       q    Type
REMARK                         _______ _______ _______ _____ _____    ______ ____
ROOT
ATOM      1  C   UNL     1       1.310  -5.145  -6.944  0.00  0.00    +0.120 C 
ATOM      2  C   UNL     1       0.471  -4.524  -8.044  0.00  0.00    -0.044 C 
ATOM      3  N   UNL     1       0.961  -3.230  -8.502  0.00  0.00    +0.390 N 
ATOM      4  C   UNL     1       0.829  -2.186  -7.478  0.00  0.00    +0.019 C 
ATOM      5  C   UNL     1       2.048  -2.231  -6.580  0.00  0.00    +0.199 C 
ATOM      6  O   UNL     1       2.876  -1.347  -6.641  0.00  0.00    -0.278 OA
ATOM      7  N   UNL     1       2.214  -3.241  -5.721  0.00  0.00    -0.296 N 
ATOM      8  C   UNL     1       1.217  -4.323  -5.661  0.00  0.00    +0.137 C 
ATOM      9  H   UNL     1       2.036  -3.357  -8.699  0.00  0.00    -0.081 HD
ENDROOT
BRANCH   3  10
ATOM     10  C   UNL     1       0.299  -2.828  -9.751  0.00  0.00    -0.045 C 
ATOM     11  C   UNL     1       0.938  -1.541 -10.276  0.00  0.00    -0.011 C 
BRANCH  10  12
ATOM     12  C   UNL     1       0.459  -3.938 -10.793  0.00  0.00    +0.140 C 
BRANCH  12  13
ATOM     13  O   UNL     1       1.845  -4.115 -11.091  0.00  0.00    -0.397 OA
ATOM     14  H   UNL     1       2.158  -4.874 -11.823  0.00  0.00    +0.209 HD
ENDBRANCH  12  13
ENDBRANCH  10  12
ENDBRANCH   3  10
BRANCH   1  15
ATOM     15  O   UNL     1       0.842  -6.471  -6.687  0.00  0.00    -0.368 OA
BRANCH  15  16
ATOM     16  C   UNL     1       1.857  -7.367  -6.232  0.00  0.00    +0.256 C 
BRANCH  16  18
ATOM     17  N   UNL     1       2.031  -9.741  -5.559  0.00  0.00    -0.300 N 
ATOM     18  C   UNL     1       1.256  -8.729  -5.994  0.00  0.00    +0.241 C 
ATOM     19  O   UNL     1       0.074  -8.912  -6.195  0.00  0.00    -0.273 OA
BRANCH  17  21
ATOM     20  C   UNL     1       3.667  -9.076  -3.867  0.00  0.00    +0.024 C 
ATOM     21  C   UNL     1       3.459  -9.519  -5.317  0.00  0.00    +0.104 C 
ENDBRANCH  17  21
BRANCH  17  22
ATOM     22  C   UNL     1       1.446 -11.065  -5.328  0.00  0.00    +0.104 C 
ATOM     23  C   UNL     1       1.531 -11.891  -6.612  0.00  0.00    +0.024 C 
ENDBRANCH  17  22
ENDBRANCH  16  18
ENDBRANCH  15  16
ENDBRANCH   1  15
BRANCH   7  24
ATOM     24  C   UNL     1       3.388  -3.275  -4.846  0.00  0.00    +0.142 C 
BRANCH  24  25
ATOM     25  C   UNL     1       3.073  -2.562  -3.556  0.00  0.00    -0.030 A 
ATOM     26  C   UNL     1       2.545  -3.267  -2.490  0.00  0.00    +0.009 A 
ATOM     27  C   UNL     1       2.256  -2.616  -1.306  0.00  0.00    +0.046 A 
ATOM     28  C   UNL     1       2.496  -1.255  -1.187  0.00  0.00    +0.120 A 
ATOM     29  C   UNL     1       3.020  -0.549  -2.260  0.00  0.00    +0.046 A 
ATOM     30  C   UNL     1       3.314  -1.206  -3.440  0.00  0.00    +0.009 A 
BRANCH  28  31
ATOM     31  O   UNL     1       2.212  -0.613  -0.024  0.00  0.00    -0.495 OA
ATOM     32  C   UNL     1       2.485   0.789   0.027  0.00  0.00    +0.277 C 
ENDBRANCH  28  31
ENDBRANCH  24  25
ENDBRANCH   7  24
TORSDOF 11
