REMARK  Name = ZINC05639477
REMARK  5 active torsions:
REMARK  status: ('A' for Active; 'I' for Inactive)
REMARK    1  A    between atoms: C_1  and  C_2
REMARK    2  A    between atoms: C_4  and  C_9
REMARK    3  A    between atoms: C_4  and  C_10
REMARK    4  A    between atoms: C_10  and  C_18
REMARK    5  A    between atoms: C_12  and  C_17
REMARK                            x       y       z     vdW  Elec       q    Type
REMARK                         _______ _______ _______ _____ _____    ______ ____
ROOT
ATOM      1  C   UNL     1      -1.339   2.038   0.019  0.00  0.00    +0.060 C 
ATOM      2  C   UNL     1      -0.016   1.317   0.009  0.00  0.00    +0.007 C 
ATOM      3  C   UNL     1       0.002  -0.004   0.002  0.00  0.00    +0.019 C 
ATOM      4  C   UNL     1       1.348  -0.699  -0.015  0.00  0.00    +0.078 C 
ATOM      5  N   UNL     1       2.546   0.157  -0.021  0.00  0.00    -0.288 N 
ATOM      6  C   UNL     1       2.377   1.495  -0.013  0.00  0.00    +0.304 C 
ATOM      7  O   UNL     1       3.357   2.215  -0.018  0.00  0.00    -0.252 OA
ATOM      8  N   UNL     1       1.159   2.052   0.002  0.00  0.00    -0.274 N 
ATOM      9  C   UNL     1       1.424  -1.605   1.215  0.00  0.00    +0.039 C 
ATOM     10  H   UNL     1       3.434  -0.232  -0.032  0.00  0.00    +0.151 HD
ATOM     11  H   UNL     1       1.095   3.020   0.007  0.00  0.00    +0.156 HD
ENDROOT
BRANCH   4  12
ATOM     12  C   UNL     1       1.401  -1.591  -1.256  0.00  0.00    +0.078 C 
ATOM     13  C   UNL     1       2.693  -2.379  -1.208  0.00  0.00    +0.019 C 
ATOM     14  C   UNL     1       3.534  -2.257  -2.219  0.00  0.00    +0.007 C 
ATOM     15  N   UNL     1       3.250  -1.432  -3.295  0.00  0.00    -0.274 N 
ATOM     16  C   UNL     1       2.125  -0.711  -3.394  0.00  0.00    +0.304 C 
ATOM     17  O   UNL     1       1.954  -0.012  -4.374  0.00  0.00    -0.252 OA
ATOM     18  N   UNL     1       1.176  -0.740  -2.436  0.00  0.00    -0.288 N 
ATOM     19  C   UNL     1       4.829  -3.028  -2.200  0.00  0.00    +0.060 C 
ATOM     20  C   UNL     1       0.241  -2.585  -1.166  0.00  0.00    +0.039 C 
ATOM     21  H   UNL     1       3.898  -1.374  -4.014  0.00  0.00    +0.156 HD
ATOM     22  H   UNL     1       0.367  -0.213  -2.522  0.00  0.00    +0.151 HD
ENDBRANCH   4  12
TORSDOF 1
