REMARK  Name = ZINC12663004
REMARK  8 active torsions:
REMARK  status: ('A' for Active; 'I' for Inactive)
REMARK    1  A    between atoms: C_1  and  C_2
REMARK    2  A    between atoms: C_6  and  N_8
REMARK    3  A    between atoms: C_12  and  C_14
REMARK    4  A    between atoms: C_15  and  C_16
REMARK    5  A    between atoms: C_15  and  N_70
REMARK    6  A    between atoms: C_27  and  C_34
REMARK    7  A    between atoms: C_29  and  C_33
REMARK    8  A    between atoms: C_30  and  O_32
REMARK                            x       y       z     vdW  Elec       q    Type
REMARK                         _______ _______ _______ _____ _____    ______ ____
ROOT
ATOM      1  C   UNL     1       5.277  -3.104  -0.891  0.00  0.00    +0.090 C 
ATOM      2  C   UNL     1       6.559  -3.941  -0.829  0.00  0.00    +0.071 C 
ATOM      3  C   UNL     1       6.744  -4.390  -2.284  0.00  0.00    +0.187 C 
ATOM      4  C   UNL     1       5.913  -5.643  -2.588  0.00  0.00    +0.076 C 
ATOM      5  C   UNL     1       6.213  -6.688  -1.533  0.00  0.00    -0.061 C 
ATOM      6  C   UNL     1       6.734  -7.815  -1.915  0.00  0.00    -0.027 C 
ATOM      7  C   UNL     1       7.110  -8.908  -0.955  0.00  0.00    +0.027 C 
ATOM      8  C   UNL     1       6.207  -8.797   0.277  0.00  0.00    +0.008 C 
ATOM      9  C   UNL     1       6.362  -7.399   0.871  0.00  0.00    -0.001 C 
ATOM     10  C   UNL     1       5.904  -6.321  -0.108  0.00  0.00    +0.018 C 
ATOM     11  C   UNL     1       6.615  -5.010   0.218  0.00  0.00    +0.132 C 
ATOM     12  C   UNL     1       4.393  -6.156   0.060  0.00  0.00    +0.018 C 
ATOM     13  C   UNL     1       5.513  -7.317   2.143  0.00  0.00    +0.008 C 
ATOM     14  O   UNL     1       6.140  -3.303  -3.066  0.00  0.00    -0.460 OA
ATOM     15  C   UNL     1       5.264  -2.604  -2.330  0.00  0.00    +0.309 C 
ATOM     16  O   UNL     1       4.561  -1.706  -2.739  0.00  0.00    -0.251 OA
ENDROOT
BRANCH  11  17
ATOM     17  O   UNL     1       6.089  -4.485   1.444  0.00  0.00    -0.391 OA
ATOM     18  H   UNL     1       6.572  -3.719   1.783  0.00  0.00    +0.210 HD
ENDBRANCH  11  17
BRANCH   1  19
ATOM     19  C   UNL     1       5.359  -1.907   0.065  0.00  0.00    -0.064 C 
BRANCH  19  26
ATOM     20  N   UNL     1       1.847   0.101   1.282  0.00  0.00    -0.331 N 
ATOM     21  C   UNL     1       2.874   0.878   0.574  0.00  0.00    +0.087 C 
ATOM     22  C   UNL     1       4.214   0.143   0.659  0.00  0.00    -0.060 C 
ATOM     23  C   UNL     1       3.046  -1.974   0.779  0.00  0.00    -0.056 C 
ATOM     24  C   UNL     1       1.706  -1.239   0.695  0.00  0.00    +0.054 C 
ATOM     25  C   UNL     1       0.643  -2.025   1.466  0.00  0.00    +0.026 C 
ATOM     26  N   UNL     1       4.064  -1.194   0.045  0.00  0.00    +0.382 N 
ATOM     27  H   UNL     1       3.760  -1.081  -0.929  0.00  0.00    -0.082 HD
BRANCH  20  33
ATOM     28  C   UNL     1      -1.796   2.275  -1.198  0.00  0.00    +0.044 C 
ATOM     29  C   UNL     1      -1.166   1.842   0.100  0.00  0.00    -0.049 A 
ATOM     30  C   UNL     1      -1.798   2.113   1.300  0.00  0.00    +0.003 A 
ATOM     31  C   UNL     1      -1.220   1.722   2.494  0.00  0.00    +0.002 A 
ATOM     32  C   UNL     1      -0.011   1.055   2.491  0.00  0.00    +0.023 A 
ATOM     33  C   UNL     1       0.624   0.776   1.288  0.00  0.00    +0.030 A 
ATOM     34  C   UNL     1       0.041   1.170   0.090  0.00  0.00    +0.026 A 
ENDBRANCH  20  33
ENDBRANCH  19  26
ENDBRANCH   1  19
TORSDOF 4
