REMARK  Name = ZINC66660098
REMARK  8 active torsions:
REMARK  status: ('A' for Active; 'I' for Inactive)
REMARK    1  A    between atoms: C_1  and  C_2
REMARK    2  A    between atoms: C_2  and  C_4
REMARK    3  A    between atoms: C_2  and  N_19
REMARK    4  A    between atoms: C_4  and  C_5
REMARK    5  A    between atoms: C_11  and  C_14
REMARK    6  A    between atoms: C_14  and  C_15
REMARK    7  A    between atoms: C_15  and  C_16
REMARK    8  A    between atoms: C_20  and  C_22
REMARK                            x       y       z     vdW  Elec       q    Type
REMARK                         _______ _______ _______ _____ _____    ______ ____
ROOT
ATOM      1  C   UNL     1      -1.416  -2.035  -0.119  0.00  0.00    +0.217 C 
ATOM      2  O   UNL     1      -0.359  -2.623  -0.213  0.00  0.00    -0.276 OA
ATOM      3  N   UNL     1      -2.574  -2.724  -0.133  0.00  0.00    -0.301 N 
ATOM      4  C   UNL     1      -3.862  -2.024  -0.027  0.00  0.00    +0.108 C 
ATOM      5  C   UNL     1      -4.664  -2.640   1.124  0.00  0.00    +0.019 C 
ATOM      6  C   UNL     1      -4.785  -4.150   0.905  0.00  0.00    +0.006 C 
ATOM      7  C   UNL     1      -3.390  -4.779   0.897  0.00  0.00    +0.007 C 
ATOM      8  C   UNL     1      -2.574  -4.187  -0.261  0.00  0.00    +0.111 C 
ENDROOT
BRANCH   1   9
ATOM      9  C   UNL     1      -1.433  -0.534   0.013  0.00  0.00    +0.118 C 
BRANCH   9  11
ATOM     10  C   UNL     1      -0.019   1.526   0.010  0.00  0.00    +0.028 C 
ATOM     11  C   UNL     1       0.002  -0.004   0.002  0.00  0.00    +0.079 C 
BRANCH  11  12
ATOM     12  N   UNL     1       0.711  -0.489   1.189  0.00  0.00    -0.312 N 
ATOM     13  C   UNL     1       2.054  -0.600   1.174  0.00  0.00    +0.216 C 
ATOM     14  O   UNL     1       2.676  -0.297   0.177  0.00  0.00    -0.276 OA
ATOM     15  H   UNL     1       0.213  -0.731   1.986  0.00  0.00    +0.149 HD
BRANCH  13  16
ATOM     16  C   UNL     1       2.783  -1.099   2.395  0.00  0.00    +0.075 C 
ATOM     17  C   UNL     1       2.300  -2.510   2.736  0.00  0.00    +0.013 C 
ATOM     18  C   UNL     1       3.040  -3.017   3.975  0.00  0.00    +0.001 C 
ATOM     19  C   UNL     1       4.543  -3.046   3.695  0.00  0.00    +0.000 C 
ATOM     20  C   UNL     1       5.026  -1.635   3.354  0.00  0.00    +0.001 C 
ATOM     21  C   UNL     1       4.287  -1.129   2.114  0.00  0.00    +0.013 C 
ENDBRANCH  13  16
ENDBRANCH  11  12
ENDBRANCH   9  11
ENDBRANCH   1   9
BRANCH   7  22
ATOM     22  C   UNL     1      -3.513  -6.293   0.713  0.00  0.00    +0.014 C 
BRANCH  22  23
ATOM     23  C   UNL     1      -4.223  -6.899   1.925  0.00  0.00    +0.096 C 
BRANCH  23  24
ATOM     24  C   UNL     1      -4.345  -8.390   1.742  0.00  0.00    +0.210 C 
ATOM     25  O   UNL     1      -3.907  -8.916   0.742  0.00  0.00    -0.276 OA
ATOM     26  N   UNL     1      -4.941  -9.138   2.692  0.00  0.00    -0.329 N 
ATOM     27  H   UNL     1      -5.291  -8.717   3.492  0.00  0.00    +0.145 HD
ATOM     28  H   UNL     1      -5.019 -10.098   2.575  0.00  0.00    +0.145 HD
ENDBRANCH  23  24
ENDBRANCH  22  23
ENDBRANCH   7  22
TORSDOF 7
