REMARK  Name = ZINC23458988
REMARK  6 active torsions:
REMARK  status: ('A' for Active; 'I' for Inactive)
REMARK    1  A    between atoms: C_1  and  C_2
REMARK    2  A    between atoms: N_7  and  C_9
REMARK    3  A    between atoms: C_9  and  C_10
REMARK    4  A    between atoms: C_16  and  C_18
REMARK    5  A    between atoms: C_18  and  C_19
REMARK    6  A    between atoms: C_19  and  N_20
REMARK                            x       y       z     vdW  Elec       q    Type
REMARK                         _______ _______ _______ _____ _____    ______ ____
ROOT
ATOM      1  C   UNL     1       3.452   2.041  -0.020  0.00  0.00    +0.034 A 
ATOM      2  C   UNL     1       3.216   3.375  -0.010  0.00  0.00    +0.070 A 
ATOM      3  S   UNL     1       1.429   3.396   0.007  0.00  0.00    -0.060 S 
ATOM      4  C   UNL     1       1.183   1.677  -0.000  0.00  0.00    +0.164 A 
ATOM      5  N   UNL     1       2.420   1.220  -0.009  0.00  0.00    -0.231 NA
ATOM      6  N   UNL     1      -0.011   0.966   0.007  0.00  0.00    -0.265 N 
ATOM      7  C   UNL     1      -1.187   1.624   0.017  0.00  0.00    +0.220 C 
ATOM      8  O   UNL     1      -1.204   2.837   0.023  0.00  0.00    -0.275 OA
ATOM      9  H   UNL     1       0.004  -0.134   0.006  0.00  0.00    +0.157 HD
ENDROOT
BRANCH   1  10
ATOM     10  C   UNL     1       4.861   1.507  -0.037  0.00  0.00    -0.022 C 
BRANCH  10  16
ATOM     11  C   UNL     1       5.702   3.350   4.446  0.00  0.00    +0.005 C 
ATOM     12  C   UNL     1       5.801   2.106   3.559  0.00  0.00    -0.031 C 
ATOM     13  C   UNL     1       5.018   0.958   4.200  0.00  0.00    -0.001 C 
ATOM     14  C   UNL     1       5.074  -0.264   3.279  0.00  0.00    -0.018 C 
ATOM     15  C   UNL     1       4.506   0.110   1.908  0.00  0.00    -0.078 C 
ATOM     16  N   UNL     1       5.290   1.213   1.337  0.00  0.00    +0.384 N 
ATOM     17  C   UNL     1       5.213   2.412   2.180  0.00  0.00    -0.075 C 
ATOM     18  H   UNL     1       6.342   0.894   1.303  0.00  0.00    -0.081 HD
ENDBRANCH  10  16
ENDBRANCH   1  10
BRANCH   7  19
ATOM     19  C   UNL     1      -2.482   0.853   0.018  0.00  0.00    +0.118 C 
BRANCH  19  20
ATOM     20  C   UNL     1      -3.658   1.831   0.029  0.00  0.00    +0.135 C 
BRANCH  20  21
ATOM     21  N   UNL     1      -4.917   1.081   0.031  0.00  0.00    -0.298 N 
ATOM     22  C   UNL     1      -5.504   0.748  -1.148  0.00  0.00    +0.202 A 
ATOM     23  N   UNL     1      -6.615   0.082  -1.229  0.00  0.00    -0.237 NA
ATOM     24  C   UNL     1      -7.283  -0.326  -0.121  0.00  0.00    +0.078 A 
ATOM     25  C   UNL     1      -8.481  -1.037  -0.208  0.00  0.00    +0.029 A 
ATOM     26  C   UNL     1      -9.126  -1.431   0.943  0.00  0.00    +0.017 A 
ATOM     27  C   UNL     1      -8.600  -1.128   2.192  0.00  0.00    +0.019 A 
ATOM     28  C   UNL     1      -7.418  -0.426   2.304  0.00  0.00    +0.030 A 
ATOM     29  C   UNL     1      -6.750  -0.019   1.151  0.00  0.00    +0.066 A 
ATOM     30  C   UNL     1      -5.487   0.732   1.208  0.00  0.00    +0.262 A 
ATOM     31  O   UNL     1      -4.975   1.028   2.272  0.00  0.00    -0.267 OA
ATOM     32 BR   UNL     1      -9.511  -1.684   3.753  0.00  0.00    -0.050 Br
ENDBRANCH  20  21
ENDBRANCH  19  20
ENDBRANCH   7  19
TORSDOF 5
