REMARK  Name = ZINC24124079
REMARK  5 active torsions:
REMARK  status: ('A' for Active; 'I' for Inactive)
REMARK    1  A    between atoms: C_1  and  C_2
REMARK    2  A    between atoms: C_2  and  C_4
REMARK    3  A    between atoms: C_6  and  C_10
REMARK    4  A    between atoms: N_12  and  N_13
REMARK    5  A    between atoms: C_14  and  C_16
REMARK                            x       y       z     vdW  Elec       q    Type
REMARK                         _______ _______ _______ _____ _____    ______ ____
ROOT
ATOM      1  C   UNL     1       1.803  -1.768  -0.024  0.00  0.00    +0.276 C 
ATOM      2  O   UNL     1       1.014  -2.694  -0.021  0.00  0.00    -0.267 OA
ATOM      3  N   UNL     1       3.128  -2.011  -0.038  0.00  0.00    -0.229 N 
ATOM      4  H   UNL     1       3.841  -1.173  -0.041  0.00  0.00    +0.173 HD
ENDROOT
BRANCH   1   7
ATOM      5  C   UNL     1      -0.017   1.411   0.010  0.00  0.00    +0.035 A 
ATOM      6  C   UNL     1       0.002  -0.004   0.002  0.00  0.00    +0.043 A 
ATOM      7  C   UNL     1       1.310  -0.384  -0.013  0.00  0.00    +0.104 A 
ATOM      8  N   UNL     1       2.093   0.750  -0.014  0.00  0.00    -0.356 N 
ATOM      9  H   UNL     1       3.189   0.662  -0.025  0.00  0.00    +0.165 HD
ATOM     10  C   UNL     1       1.303   1.834  -0.001  0.00  0.00    +0.094 A 
BRANCH   5  12
ATOM     11  C   UNL     1      -1.056   3.767   0.028  0.00  0.00    +0.091 C 
ATOM     12  C   UNL     1      -1.207   2.268   0.020  0.00  0.00    +0.162 C 
ATOM     13  O   UNL     1      -2.313   1.769   0.023  0.00  0.00    -0.292 OA
ENDBRANCH   5  12
ENDBRANCH   1   7
BRANCH   3  14
ATOM     14  N   UNL     1       3.598  -3.331  -0.049  0.00  0.00    -0.229 N 
ATOM     15  C   UNL     1       4.924  -3.574  -0.063  0.00  0.00    +0.276 C 
ATOM     16  O   UNL     1       5.713  -2.647  -0.066  0.00  0.00    -0.267 OA
ATOM     17  H   UNL     1       2.885  -4.168  -0.047  0.00  0.00    +0.173 HD
BRANCH  15  18
ATOM     18  C   UNL     1       5.416  -4.956  -0.075  0.00  0.00    +0.104 A 
ATOM     19  C   UNL     1       6.737  -5.350  -0.096  0.00  0.00    +0.047 A 
ATOM     20  C   UNL     1       6.748  -6.749  -0.098  0.00  0.00    +0.036 A 
ATOM     21  C   UNL     1       5.462  -7.175  -0.087  0.00  0.00    +0.098 A 
ATOM     22  N   UNL     1       4.642  -6.095  -0.073  0.00  0.00    -0.356 N 
ATOM     23  H   UNL     1       3.545  -6.014  -0.062  0.00  0.00    +0.166 HD
ATOM     24 BR   UNL     1       8.285  -7.850  -0.120  0.00  0.00    -0.049 Br
ENDBRANCH  15  18
ENDBRANCH   3  14
TORSDOF 4
