REMARK  Name = ZINC01292081
REMARK  6 active torsions:
REMARK  status: ('A' for Active; 'I' for Inactive)
REMARK    1  A    between atoms: C_1  and  C_2
REMARK    2  A    between atoms: C_4  and  C_25
REMARK    3  A    between atoms: C_9  and  C_18
REMARK    4  A    between atoms: C_10  and  O_13
REMARK    5  A    between atoms: O_13  and  C_14
REMARK    6  A    between atoms: C_14  and  C_15
REMARK                            x       y       z     vdW  Elec       q    Type
REMARK                         _______ _______ _______ _____ _____    ______ ____
ROOT
ATOM      1  C   UNL     1       0.504  -6.343  -1.272  0.00  0.00    +0.044 C 
ATOM      2  C   UNL     1       0.233  -4.861  -1.264  0.00  0.00    -0.047 A 
ATOM      3  C   UNL     1       0.072  -4.185  -2.465  0.00  0.00    +0.007 A 
ATOM      4  C   UNL     1      -0.176  -2.830  -2.472  0.00  0.00    -0.036 A 
ATOM      5  C   UNL     1      -0.265  -2.140  -1.263  0.00  0.00    +0.071 A 
ATOM      6  C   UNL     1      -0.103  -2.823  -0.047  0.00  0.00    +0.140 A 
ATOM      7  C   UNL     1       0.147  -4.190  -0.062  0.00  0.00    +0.050 A 
ATOM      8  O   UNL     1      -0.191  -2.150   1.119  0.00  0.00    -0.451 OA
ATOM      9  C   UNL     1      -0.432  -0.829   1.170  0.00  0.00    +0.182 A 
ATOM     10  C   UNL     1      -0.605  -0.073   0.049  0.00  0.00    +0.211 A 
ATOM     11  C   UNL     1      -0.537  -0.691  -1.226  0.00  0.00    +0.235 A 
ATOM     12  O   UNL     1      -0.692  -0.048  -2.252  0.00  0.00    -0.283 OA
ATOM     13  C   UNL     1      -0.350  -2.098  -3.778  0.00  0.00    +0.044 C 
ENDROOT
BRANCH   9  14
ATOM     14  C   UNL     1      -0.513  -0.172   2.488  0.00  0.00    +0.039 A 
ATOM     15  C   UNL     1      -1.589   0.665   2.791  0.00  0.00    +0.013 A 
ATOM     16  C   UNL     1      -1.658   1.275   4.026  0.00  0.00    +0.001 A 
ATOM     17  C   UNL     1      -0.664   1.060   4.965  0.00  0.00    +0.001 A 
ATOM     18  C   UNL     1       0.405   0.233   4.673  0.00  0.00    +0.021 A 
ATOM     19  C   UNL     1       0.485  -0.390   3.443  0.00  0.00    +0.052 A 
ATOM     20 CL   UNL     1       1.824  -1.434   3.081  0.00  0.00    -0.083 Cl
ENDBRANCH   9  14
BRANCH  10  21
ATOM     21  O   UNL     1      -0.848   1.262   0.152  0.00  0.00    -0.476 OA
BRANCH  21  22
ATOM     22  C   UNL     1       0.278   2.136   0.043  0.00  0.00    +0.324 C 
BRANCH  22  23
ATOM     23  C   UNL     1      -0.166   3.558   0.275  0.00  0.00    +0.248 C 
ATOM     24  O   UNL     1      -1.310   3.790   0.603  0.00  0.00    -0.272 OA
ATOM     25  N   UNL     1       0.709   4.571   0.117  0.00  0.00    -0.327 N 
ATOM     26  H   UNL     1       1.624   4.385  -0.145  0.00  0.00    +0.145 HD
ATOM     27  H   UNL     1       0.423   5.486   0.266  0.00  0.00    +0.145 HD
ENDBRANCH  22  23
ENDBRANCH  21  22
ENDBRANCH  10  21
TORSDOF 4
