REMARK  Name = ZINC64151987
REMARK  6 active torsions:
REMARK  status: ('A' for Active; 'I' for Inactive)
REMARK    1  A    between atoms: C_4  and  O_7
REMARK    2  A    between atoms: O_7  and  C_8
REMARK    3  A    between atoms: C_8  and  C_9
REMARK    4  A    between atoms: N_18  and  C_19
REMARK    5  A    between atoms: C_25  and  C_27
REMARK    6  A    between atoms: C_27  and  C_28
REMARK                            x       y       z     vdW  Elec       q    Type
REMARK                         _______ _______ _______ _____ _____    ______ ____
ROOT
ATOM      1  C   UNL     1       5.358  -2.410   2.515  0.00  0.00    +0.078 C 
ATOM      2  C   UNL     1       5.127  -1.078   3.233  0.00  0.00    +0.041 C 
ATOM      3  C   UNL     1       4.738  -1.349   4.690  0.00  0.00    +0.109 C 
ATOM      4  N   UNL     1       5.769  -2.195   5.306  0.00  0.00    -0.301 N 
ATOM      5  C   UNL     1       6.133  -3.457   4.647  0.00  0.00    +0.109 C 
ATOM      6  C   UNL     1       6.507  -3.163   3.191  0.00  0.00    +0.041 C 
ATOM      7  C   UNL     1       6.369  -1.822   6.453  0.00  0.00    +0.220 C 
ATOM      8  O   UNL     1       6.060  -0.777   6.987  0.00  0.00    -0.275 OA
ENDROOT
BRANCH   1  17
ATOM      9  C   UNL     1       4.954  -2.624  -0.061  0.00  0.00    +0.197 C 
ATOM     10  N   UNL     1       5.685  -2.117  -1.228  0.00  0.00    -0.322 N 
ATOM     11  C   UNL     1       6.788  -1.397  -0.749  0.00  0.00    +0.050 A 
ATOM     12  C   UNL     1       7.791  -0.721  -1.433  0.00  0.00    +0.025 A 
ATOM     13  C   UNL     1       8.792  -0.073  -0.735  0.00  0.00    +0.002 A 
ATOM     14  C   UNL     1       8.801  -0.095   0.647  0.00  0.00    +0.002 A 
ATOM     15  C   UNL     1       7.808  -0.765   1.336  0.00  0.00    +0.025 A 
ATOM     16  C   UNL     1       6.797  -1.419   0.643  0.00  0.00    +0.053 A 
ATOM     17  N   UNL     1       5.699  -2.156   1.113  0.00  0.00    -0.304 N 
ATOM     18  H   UNL     1       5.449  -2.255  -2.159  0.00  0.00    +0.148 HD
BRANCH   9  19
ATOM     19  C   UNL     1       3.531  -2.060  -0.044  0.00  0.00    +0.271 C 
BRANCH  19  20
ATOM     20  O   UNL     1       3.586  -0.632  -0.037  0.00  0.00    -0.488 OA
BRANCH  20  24
ATOM     21  C   UNL     1      -0.017   1.378   0.010  0.00  0.00    +0.000 A 
ATOM     22  C   UNL     1       1.170   2.088   0.002  0.00  0.00    +0.004 A 
ATOM     23  C   UNL     1       2.377   1.417  -0.013  0.00  0.00    +0.045 A 
ATOM     24  C   UNL     1       2.399   0.030  -0.021  0.00  0.00    +0.121 A 
ATOM     25  C   UNL     1       1.207  -0.680  -0.013  0.00  0.00    +0.045 A 
ATOM     26  C   UNL     1       0.002  -0.004   0.002  0.00  0.00    +0.004 A 
ENDBRANCH  20  24
ENDBRANCH  19  20
ENDBRANCH   9  19
ENDBRANCH   1  17
BRANCH   7  27
ATOM     27  C   UNL     1       7.424  -2.701   7.072  0.00  0.00    +0.129 C 
BRANCH  27  28
ATOM     28  C   UNL     1       7.933  -2.061   8.338  0.00  0.00    -0.033 C 
ATOM     29  C   UNL     1       7.510  -2.305   9.599  0.00  0.00    -0.001 A 
ATOM     30  C   UNL     1       6.489  -3.205  10.149  0.00  0.00    +0.010 A 
ATOM     31  C   UNL     1       6.287  -3.229  11.486  0.00  0.00    +0.001 A 
ATOM     32  C   UNL     1       7.027  -2.418  12.358  0.00  0.00    +0.002 A 
ATOM     33  C   UNL     1       7.981  -1.566  11.928  0.00  0.00    +0.026 A 
ATOM     34  C   UNL     1       8.278  -1.459  10.541  0.00  0.00    +0.043 A 
ATOM     35  N   UNL     1       9.141  -0.721   9.887  0.00  0.00    -0.380 N 
ATOM     36  C   UNL     1       9.023  -1.019   8.456  0.00  0.00    +0.145 C 
ATOM     37  H   UNL     1       9.758  -0.086  10.284  0.00  0.00    +0.160 HD
ENDBRANCH  27  28
ENDBRANCH   7  27
TORSDOF 6
