REMARK  Name = ZINC67618962
REMARK  12 active torsions:
REMARK  status: ('A' for Active; 'I' for Inactive)
REMARK    1  A    between atoms: C_1  and  N_2
REMARK    2  A    between atoms: N_2  and  C_3
REMARK    3  A    between atoms: N_2  and  C_4
REMARK    4  A    between atoms: C_4  and  C_6
REMARK    5  A    between atoms: C_4  and  C_25
REMARK    6  A    between atoms: C_6  and  N_7
REMARK    7  A    between atoms: N_10  and  C_11
REMARK    8  A    between atoms: C_11  and  C_13
REMARK    9  A    between atoms: C_11  and  C_20
REMARK   10  A    between atoms: C_13  and  C_14
REMARK   11  A    between atoms: N_22  and  C_23
REMARK   12  A    between atoms: N_22  and  C_24
REMARK                            x       y       z     vdW  Elec       q    Type
REMARK                         _______ _______ _______ _____ _____    ______ ____
ROOT
ATOM      1  N   UNL     1      -1.653   1.208  -1.514  0.00  0.00    -0.301 N 
ATOM      2  C   UNL     1      -2.182   1.821  -2.592  0.00  0.00    +0.300 C 
ATOM      3  O   UNL     1      -2.917   1.208  -3.341  0.00  0.00    -0.253 OA
ATOM      4  N   UNL     1      -1.895   3.115  -2.839  0.00  0.00    -0.288 N 
ATOM      5  H   UNL     1      -1.067   1.697  -0.917  0.00  0.00    +0.150 HD
ATOM      6  H   UNL     1      -1.308   3.604  -2.241  0.00  0.00    +0.151 HD
ENDROOT
BRANCH   1   7
ATOM      7  C   UNL     1      -1.965  -0.198  -1.246  0.00  0.00    +0.091 C 
BRANCH   7   8
ATOM      8  C   UNL     1      -1.132  -0.688  -0.060  0.00  0.00    -0.049 C 
BRANCH   8   9
ATOM      9  C   UNL     1       0.339  -0.774  -0.472  0.00  0.00    -0.023 C 
ATOM     10  C   UNL     1       0.817   0.599  -0.949  0.00  0.00    +0.002 C 
ATOM     11  C   UNL     1       2.288   0.512  -1.361  0.00  0.00    +0.000 C 
ATOM     12  C   UNL     1       2.441  -0.503  -2.495  0.00  0.00    +0.000 C 
ATOM     13  C   UNL     1       1.964  -1.876  -2.018  0.00  0.00    +0.000 C 
ATOM     14  C   UNL     1       0.493  -1.790  -1.606  0.00  0.00    +0.002 C 
ENDBRANCH   8   9
BRANCH   8  16
ATOM     15  C   UNL     1      -2.693   0.395   1.404  0.00  0.00    -0.096 C 
ATOM     16  N   UNL     1      -1.272   0.253   1.059  0.00  0.00    +0.379 N 
ATOM     17  C   UNL     1      -0.535  -0.257   2.223  0.00  0.00    -0.096 C 
ATOM     18  H   UNL     1      -0.899   1.152   0.792  0.00  0.00    -0.082 HD
ENDBRANCH   8  16
ENDBRANCH   7   8
ENDBRANCH   1   7
BRANCH   4  19
ATOM     19  C   UNL     1      -2.469   3.781  -4.011  0.00  0.00    +0.165 C 
BRANCH  19  20
ATOM     20  C   UNL     1      -1.606   3.510  -5.216  0.00  0.00    +0.236 C 
ATOM     21  O   UNL     1      -0.610   2.827  -5.107  0.00  0.00    -0.274 OA
ATOM     22  N   UNL     1      -1.942   4.026  -6.415  0.00  0.00    -0.306 N 
ATOM     23  C   UNL     1      -1.103   3.762  -7.587  0.00  0.00    +0.131 C 
ATOM     24  C   UNL     1      -3.145   4.851  -6.546  0.00  0.00    +0.131 C 
ENDBRANCH  19  20
BRANCH  19  25
ATOM     25  C   UNL     1      -2.533   5.289  -3.759  0.00  0.00    +0.067 C 
BRANCH  25  26
ATOM     26  C   UNL     1      -3.492   5.570  -2.631  0.00  0.00    -0.045 A 
ATOM     27  C   UNL     1      -4.831   5.786  -2.899  0.00  0.00    +0.004 A 
ATOM     28  C   UNL     1      -5.710   6.043  -1.864  0.00  0.00    +0.000 A 
ATOM     29  C   UNL     1      -5.252   6.084  -0.561  0.00  0.00    +0.000 A 
ATOM     30  C   UNL     1      -3.913   5.867  -0.292  0.00  0.00    +0.000 A 
ATOM     31  C   UNL     1      -3.034   5.605  -1.327  0.00  0.00    +0.004 A 
ENDBRANCH  25  26
ENDBRANCH  19  25
ENDBRANCH   4  19
TORSDOF 8
