REMARK  Name = ZINC51087528
REMARK  6 active torsions:
REMARK  status: ('A' for Active; 'I' for Inactive)
REMARK    1  A    between atoms: C_8  and  C_11
REMARK    2  A    between atoms: C_11  and  N_12
REMARK    3  A    between atoms: N_12  and  S_13
REMARK    4  A    between atoms: S_13  and  C_16
REMARK    5  A    between atoms: C_19  and  C_21
REMARK    6  A    between atoms: C_21  and  N_22
REMARK                            x       y       z     vdW  Elec       q    Type
REMARK                         _______ _______ _______ _____ _____    ______ ____
ROOT
ATOM      1  S   UNL     1       6.363  -4.014   0.711  0.00  0.00    +0.065 S 
ATOM      2  O   UNL     1       7.604  -3.796   0.055  0.00  0.00    -0.153 OA
ATOM      3  O   UNL     1       6.154  -3.681   2.077  0.00  0.00    -0.153 OA
ENDROOT
BRANCH   1   4
ATOM      4  C   UNL     1       6.004  -5.732   0.552  0.00  0.00    +0.143 A 
ATOM      5  C   UNL     1       6.447  -6.614  -0.377  0.00  0.00    +0.036 A 
ATOM      6  C   UNL     1       6.029  -7.930  -0.305  0.00  0.00    +0.011 A 
ATOM      7  C   UNL     1       5.188  -8.299   0.692  0.00  0.00    -0.026 A 
ATOM      8  S   UNL     1       4.968  -6.764   1.576  0.00  0.00    -0.075 S 
BRANCH   7   9
ATOM      9  C   UNL     1       4.597  -9.655   0.982  0.00  0.00    -0.043 C 
BRANCH   9  10
ATOM     10  N   UNL     1       5.492 -10.396   1.880  0.00  0.00    +0.381 N 
ATOM     11  H   UNL     1       5.096 -11.304   2.075  0.00  0.00    -0.090 HD
ATOM     12  H   UNL     1       6.393 -10.509   1.441  0.00  0.00    -0.090 HD
ATOM     13  H   UNL     1       5.601  -9.885   2.744  0.00  0.00    -0.090 HD
ENDBRANCH   9  10
ENDBRANCH   7   9
ENDBRANCH   1   4
BRANCH   1  14
ATOM     14  N   UNL     1       5.218  -3.192  -0.157  0.00  0.00    -0.186 NA
ATOM     15  H   UNL     1       5.478  -2.679  -0.938  0.00  0.00    +0.148 HD
BRANCH  14  16
ATOM     16  C   UNL     1       3.813  -3.240   0.254  0.00  0.00    +0.150 C 
BRANCH  16  24
ATOM     17  C   UNL     1      -0.017   1.379   0.010  0.00  0.00    +0.000 A 
ATOM     18  C   UNL     1       1.174   2.082   0.002  0.00  0.00    +0.004 A 
ATOM     19  C   UNL     1       2.379   1.411  -0.009  0.00  0.00    +0.046 A 
ATOM     20  C   UNL     1       2.407   0.019  -0.013  0.00  0.00    +0.124 A 
ATOM     21  C   UNL     1       1.204  -0.676  -0.013  0.00  0.00    -0.002 A 
ATOM     22  C   UNL     1       0.002  -0.004   0.002  0.00  0.00    +0.007 A 
ATOM     23  C   UNL     1       1.545  -2.154  -0.043  0.00  0.00    +0.084 C 
ATOM     24  C   UNL     1       3.035  -2.130  -0.457  0.00  0.00    +0.193 C 
ATOM     25  O   UNL     1       3.469  -0.834  -0.012  0.00  0.00    -0.487 OA
ENDBRANCH  16  24
ENDBRANCH  14  16
ENDBRANCH   1  14
TORSDOF 6
