REMARK  Name = ZINC35361178
REMARK  8 active torsions:
REMARK  status: ('A' for Active; 'I' for Inactive)
REMARK    1  A    between atoms: C_1  and  C_2
REMARK    2  A    between atoms: C_2  and  O_4
REMARK    3  A    between atoms: O_4  and  C_5
REMARK    4  A    between atoms: C_9  and  C_36
REMARK    5  A    between atoms: C_14  and  C_35
REMARK    6  A    between atoms: C_15  and  C_28
REMARK    7  A    between atoms: C_19  and  O_27
REMARK    8  A    between atoms: C_24  and  O_26
REMARK                            x       y       z     vdW  Elec       q    Type
REMARK                         _______ _______ _______ _____ _____    ______ ____
ROOT
ATOM      1  C   UNL     1      -1.096  -2.119   0.068  0.00  0.00    +0.179 C 
ATOM      2  C   UNL     1      -1.057  -2.616  -1.378  0.00  0.00    +0.046 C 
ATOM      3  C   UNL     1      -0.956  -4.143  -1.390  0.00  0.00    +0.028 C 
ATOM      4  C   UNL     1      -2.171  -4.740  -0.677  0.00  0.00    +0.089 C 
ATOM      5  C   UNL     1      -3.449  -4.307  -1.396  0.00  0.00    +0.018 C 
ATOM      6  C   UNL     1      -3.399  -4.741  -2.857  0.00  0.00    +0.006 C 
ATOM      7  C   UNL     1      -4.711  -4.406  -3.586  0.00  0.00    +0.010 C 
ATOM      8  C   UNL     1      -5.834  -5.091  -2.834  0.00  0.00    +0.003 C 
ATOM      9  C   UNL     1      -7.244  -4.888  -3.379  0.00  0.00    +0.043 C 
ATOM     10  C   UNL     1      -8.168  -4.886  -2.135  0.00  0.00    +0.011 C 
ATOM     11  C   UNL     1      -7.236  -5.002  -0.898  0.00  0.00    +0.036 C 
ATOM     12  C   UNL     1      -5.903  -4.454  -1.419  0.00  0.00    +0.075 C 
ATOM     13  C   UNL     1      -4.663  -4.919  -0.680  0.00  0.00    +0.026 C 
ATOM     14  C   UNL     1      -4.701  -4.415   0.763  0.00  0.00    +0.009 C 
ATOM     15  C   UNL     1      -3.421  -4.842   1.485  0.00  0.00    +0.037 C 
ATOM     16  C   UNL     1      -2.207  -4.244   0.770  0.00  0.00    +0.088 C 
ATOM     17  C   UNL     1      -2.311  -2.717   0.781  0.00  0.00    +0.081 C 
ATOM     18  C   UNL     1      -5.538  -6.588  -2.713  0.00  0.00    +0.014 C 
ENDROOT
BRANCH   9  19
ATOM     19  C   UNL     1      -7.340  -3.550  -4.115  0.00  0.00    +0.204 C 
ATOM     20  C   UNL     1      -8.732  -3.362  -4.670  0.00  0.00    +0.024 C 
ATOM     21  C   UNL     1      -8.610  -3.261  -5.992  0.00  0.00    +0.091 C 
ATOM     22  C   UNL     1      -7.193  -3.374  -6.351  0.00  0.00    +0.332 C 
ATOM     23  O   UNL     1      -6.752  -3.321  -7.482  0.00  0.00    -0.246 OA
ATOM     24  O   UNL     1      -6.453  -3.543  -5.238  0.00  0.00    -0.454 OA
ENDBRANCH   9  19
BRANCH  16  25
ATOM     25  O   UNL     1      -1.012  -4.646   1.442  0.00  0.00    -0.387 OA
ATOM     26  H   UNL     1      -0.967  -4.365   2.366  0.00  0.00    +0.210 HD
ENDBRANCH  16  25
BRANCH  12  27
ATOM     27  O   UNL     1      -5.953  -3.029  -1.515  0.00  0.00    -0.388 OA
ATOM     28  H   UNL     1      -5.997  -2.579  -0.660  0.00  0.00    +0.210 HD
ENDBRANCH  12  27
BRANCH   4  29
ATOM     29  C   UNL     1      -2.074  -6.209  -0.690  0.00  0.00    +0.072 C 
ATOM     30  N   UNL     1      -2.000  -7.343  -0.699  0.00  0.00    -0.196 NA
ENDBRANCH   4  29
BRANCH   1  31
ATOM     31  O   UNL     1      -1.192  -0.693   0.079  0.00  0.00    -0.461 OA
BRANCH  31  33
ATOM     32  C   UNL     1      -0.062   1.501   0.100  0.00  0.00    +0.136 C 
ATOM     33  C   UNL     1      -0.040  -0.005   0.088  0.00  0.00    +0.304 C 
ATOM     34  O   UNL     1       1.016  -0.594   0.087  0.00  0.00    -0.251 OA
ENDBRANCH  31  33
ENDBRANCH   1  31
TORSDOF 6
