REMARK  Name = ZINC67617721
REMARK  10 active torsions:
REMARK  status: ('A' for Active; 'I' for Inactive)
REMARK    1  A    between atoms: C_1  and  C_2
REMARK    2  A    between atoms: N_7  and  C_9
REMARK    3  A    between atoms: C_9  and  C_10
REMARK    4  A    between atoms: C_13  and  C_16
REMARK    5  A    between atoms: C_16  and  N_17
REMARK    6  A    between atoms: N_20  and  C_21
REMARK    7  A    between atoms: N_20  and  C_22
REMARK    8  A    between atoms: C_22  and  C_24
REMARK    9  A    between atoms: C_22  and  C_25
REMARK   10  A    between atoms: C_29  and  O_31
REMARK                            x       y       z     vdW  Elec       q    Type
REMARK                         _______ _______ _______ _____ _____    ______ ____
ROOT
ATOM      1  C   UNL     1       2.076  -8.209   2.079  0.00  0.00    +0.141 C 
ENDROOT
BRANCH   1   5
ATOM      2  C   UNL     1       1.681  -3.962   2.313  0.00  0.00    -0.064 A 
ATOM      3  C   UNL     1       0.745  -4.778   2.921  0.00  0.00    +0.002 A 
ATOM      4  C   UNL     1       0.873  -6.152   2.845  0.00  0.00    +0.005 A 
ATOM      5  C   UNL     1       1.936  -6.711   2.161  0.00  0.00    -0.030 A 
ATOM      6  C   UNL     1       2.872  -5.895   1.552  0.00  0.00    +0.005 A 
ATOM      7  C   UNL     1       2.742  -4.521   1.624  0.00  0.00    +0.002 A 
BRANCH   2   8
ATOM      8  C   UNL     1       1.542  -2.464   2.396  0.00  0.00    -0.043 C 
BRANCH   8  14
ATOM      9  C   UNL     1      -0.082   1.522   0.062  0.00  0.00    +0.005 C 
ATOM     10  C   UNL     1      -0.053  -0.008   0.048  0.00  0.00    -0.031 C 
ATOM     11  C   UNL     1      -1.486  -0.547   0.089  0.00  0.00    -0.001 C 
ATOM     12  C   UNL     1      -1.444  -2.077   0.154  0.00  0.00    -0.018 C 
ATOM     13  C   UNL     1      -0.626  -2.508   1.374  0.00  0.00    -0.078 C 
ATOM     14  N   UNL     1       0.740  -1.983   1.262  0.00  0.00    +0.383 N 
ATOM     15  C   UNL     1       0.714  -0.516   1.271  0.00  0.00    -0.075 C 
ATOM     16  H   UNL     1       1.153  -2.305   0.400  0.00  0.00    -0.081 HD
ENDBRANCH   8  14
ENDBRANCH   2   8
ENDBRANCH   1   5
BRANCH   1  17
ATOM     17  N   UNL     1       1.371  -8.701   0.892  0.00  0.00    -0.295 N 
ATOM     18  C   UNL     1       1.361 -10.020   0.613  0.00  0.00    +0.303 C 
ATOM     19  O   UNL     1       1.935 -10.801   1.347  0.00  0.00    -0.253 OA
ATOM     20  N   UNL     1       0.712 -10.472  -0.478  0.00  0.00    -0.282 N 
ATOM     21  C   UNL     1       0.020  -9.531  -1.362  0.00  0.00    +0.134 C 
ATOM     22  H   UNL     1       0.913  -8.078   0.307  0.00  0.00    +0.151 HD
BRANCH  20  23
ATOM     23  C   UNL     1       0.701 -11.905  -0.781  0.00  0.00    +0.104 C 
ATOM     24  C   UNL     1      -0.744 -12.379  -0.949  0.00  0.00    +0.033 C 
BRANCH  23  25
ATOM     25  C   UNL     1       1.463 -12.155  -2.057  0.00  0.00    -0.024 A 
ATOM     26  C   UNL     1       2.502 -13.068  -2.074  0.00  0.00    +0.006 A 
ATOM     27  C   UNL     1       3.203 -13.299  -3.242  0.00  0.00    +0.004 A 
ATOM     28  C   UNL     1       2.867 -12.619  -4.397  0.00  0.00    +0.045 A 
ATOM     29  C   UNL     1       1.825 -11.704  -4.383  0.00  0.00    +0.117 A 
ATOM     30  C   UNL     1       1.119 -11.477  -3.210  0.00  0.00    +0.050 A 
BRANCH  29  31
ATOM     31  O   UNL     1       1.493 -11.033  -5.518  0.00  0.00    -0.507 OA
ATOM     32  H   UNL     1       0.829 -11.482  -6.059  0.00  0.00    +0.292 HD
ENDBRANCH  29  31
ENDBRANCH  23  25
ENDBRANCH  20  23
ENDBRANCH   1  17
TORSDOF 7
