REMARK  Name = ZINC36490999
REMARK  10 active torsions:
REMARK  status: ('A' for Active; 'I' for Inactive)
REMARK    1  A    between atoms: C_3  and  C_10
REMARK    2  A    between atoms: C_5  and  N_7
REMARK    3  A    between atoms: N_12  and  C_13
REMARK    4  A    between atoms: N_12  and  C_19
REMARK    5  A    between atoms: C_19  and  C_21
REMARK    6  A    between atoms: C_19  and  C_30
REMARK    7  A    between atoms: C_22  and  O_29
REMARK    8  A    between atoms: C_24  and  O_28
REMARK    9  A    between atoms: C_26  and  O_27
REMARK   10  A    between atoms: N_32  and  C_33
REMARK                            x       y       z     vdW  Elec       q    Type
REMARK                         _______ _______ _______ _____ _____    ______ ____
ROOT
ATOM      1  C   UNL     1       4.907   4.287  -0.510  0.00  0.00    +0.200 C 
ENDROOT
BRANCH   1   2
ATOM      2  C   UNL     1       4.813   5.294   0.607  0.00  0.00    +0.065 A 
ATOM      3  C   UNL     1       4.702   6.645   0.315  0.00  0.00    +0.129 A 
ATOM      4  C   UNL     1       4.616   7.572   1.343  0.00  0.00    +0.091 A 
ATOM      5  C   UNL     1       4.641   7.148   2.663  0.00  0.00    +0.124 A 
ATOM      6  C   UNL     1       4.751   5.797   2.955  0.00  0.00    +0.091 A 
ATOM      7  C   UNL     1       4.833   4.870   1.927  0.00  0.00    +0.129 A 
BRANCH   7   8
ATOM      8  O   UNL     1       4.937   3.545   2.213  0.00  0.00    -0.506 OA
ATOM      9  H   UNL     1       5.847   3.233   2.306  0.00  0.00    +0.292 HD
ENDBRANCH   7   8
BRANCH   5  10
ATOM     10  O   UNL     1       4.557   8.056   3.671  0.00  0.00    -0.507 OA
ATOM     11  H   UNL     1       3.653   8.246   3.955  0.00  0.00    +0.292 HD
ENDBRANCH   5  10
BRANCH   3  12
ATOM     12  O   UNL     1       4.677   7.061  -0.978  0.00  0.00    -0.506 OA
ATOM     13  H   UNL     1       3.787   7.194  -1.332  0.00  0.00    +0.292 HD
ENDBRANCH   3  12
ENDBRANCH   1   2
BRANCH   1  14
ATOM     14  C   UNL     1       4.676   4.978  -1.829  0.00  0.00    +0.239 C 
ATOM     15  O   UNL     1       3.579   4.947  -2.346  0.00  0.00    -0.273 OA
ATOM     16  N   UNL     1       5.689   5.628  -2.435  0.00  0.00    -0.311 N 
ATOM     17  H   UNL     1       6.582   5.594  -2.058  0.00  0.00    +0.149 HD
BRANCH  16  18
ATOM     18  C   UNL     1       5.441   6.388  -3.663  0.00  0.00    +0.073 C 
ATOM     19  C   UNL     1       5.517   5.449  -4.868  0.00  0.00    +0.022 C 
ATOM     20  C   UNL     1       5.258   6.242  -6.151  0.00  0.00    +0.002 C 
ATOM     21  C   UNL     1       6.313   7.341  -6.293  0.00  0.00    +0.000 C 
ATOM     22  C   UNL     1       6.236   8.280  -5.087  0.00  0.00    +0.002 C 
ATOM     23  C   UNL     1       6.495   7.487  -3.805  0.00  0.00    +0.022 C 
ENDBRANCH  16  18
ENDBRANCH   1  14
BRANCH   1  26
ATOM     24  C   UNL     1       4.256   1.954  -0.247  0.00  0.00    +0.248 C 
ATOM     25  O   UNL     1       5.432   1.657  -0.166  0.00  0.00    -0.270 OA
ATOM     26  N   UNL     1       3.891   3.249  -0.318  0.00  0.00    -0.279 N 
BRANCH  24  29
ATOM     27  C   UNL     1       0.918   0.234  -0.222  0.00  0.00    +0.003 A 
ATOM     28  C   UNL     1       1.874   1.228  -0.201  0.00  0.00    +0.013 A 
ATOM     29  C   UNL     1       3.227   0.893  -0.269  0.00  0.00    +0.039 A 
ATOM     30  C   UNL     1       3.603  -0.448  -0.360  0.00  0.00    +0.045 A 
ATOM     31  C   UNL     1       2.638  -1.433  -0.380  0.00  0.00    +0.127 A 
ATOM     32  C   UNL     1       1.298  -1.094  -0.311  0.00  0.00    +0.033 A 
BRANCH  31  33
ATOM     33  N   UNL     1       3.035  -2.855  -0.476  0.00  0.00    +0.056 N 
ATOM     34  O   UNL     1       4.205  -3.153  -0.536  0.00  0.00    -0.126 OA
ATOM     35  O   UNL     1       2.190  -3.720  -0.494  0.00  0.00    -0.126 OA
ENDBRANCH  31  33
ENDBRANCH  24  29
BRANCH  26  36
ATOM     36  C   UNL     1       2.478   3.619  -0.202  0.00  0.00    +0.077 C 
ATOM     37  C   UNL     1       1.739   3.216  -1.479  0.00  0.00    +0.022 C 
ATOM     38  C   UNL     1       0.264   3.602  -1.358  0.00  0.00    +0.002 C 
ATOM     39  C   UNL     1       0.147   5.115  -1.157  0.00  0.00    +0.000 C 
ATOM     40  C   UNL     1       0.887   5.518   0.120  0.00  0.00    +0.002 C 
ATOM     41  C   UNL     1       2.362   5.131  -0.001  0.00  0.00    +0.022 C 
ENDBRANCH  26  36
ENDBRANCH   1  26
TORSDOF 10
