REMARK  Name = ZINC15482227
REMARK  12 active torsions:
REMARK  status: ('A' for Active; 'I' for Inactive)
REMARK    1  A    between atoms: C_1  and  C_2
REMARK    2  A    between atoms: C_2  and  C_3
REMARK    3  A    between atoms: C_3  and  C_4
REMARK    4  A    between atoms: C_4  and  N_5
REMARK    5  A    between atoms: C_6  and  N_35
REMARK    6  A    between atoms: C_7  and  N_14
REMARK    7  A    between atoms: N_14  and  C_15
REMARK    8  A    between atoms: C_20  and  C_22
REMARK    9  A    between atoms: C_22  and  N_70
REMARK   10  A    between atoms: C_23  and  N_70
REMARK   11  A    between atoms: C_24  and  C_25
REMARK   12  A    between atoms: C_24  and  N_70
REMARK                            x       y       z     vdW  Elec       q    Type
REMARK                         _______ _______ _______ _____ _____    ______ ____
ROOT
ATOM      1  N   UNL     1       0.192  11.042   3.193  0.00  0.00    -0.263 N 
ATOM      2  C   UNL     1       0.309   9.717   2.969  0.00  0.00    +0.204 C 
ATOM      3  O   UNL     1       0.530   9.309   1.848  0.00  0.00    -0.277 OA
ENDROOT
BRANCH   1   6
ATOM      4  N   UNL     1       0.818  11.843   6.724  0.00  0.00    -0.280 N 
ATOM      5  C   UNL     1       1.016  11.364   5.450  0.00  0.00    +0.127 A 
ATOM      6  C   UNL     1       0.019  11.523   4.508  0.00  0.00    +0.140 A 
ATOM      7  C   UNL     1      -1.169  12.178   4.881  0.00  0.00    +0.277 A 
ATOM      8  O   UNL     1      -2.064  12.336   4.068  0.00  0.00    -0.266 OA
ATOM      9  N   UNL     1      -1.314  12.624   6.144  0.00  0.00    -0.273 N 
ATOM     10  H   UNL     1      -2.161  13.083   6.412  0.00  0.00    +0.173 HD
ATOM     11  C   UNL     1      -0.332  12.460   7.048  0.00  0.00    +0.331 A 
ATOM     12  O   UNL     1      -0.487  12.877   8.180  0.00  0.00    -0.246 OA
BRANCH   5  13
ATOM     13  N   UNL     1       2.191  10.734   5.118  0.00  0.00    -0.343 N 
ATOM     14  H   UNL     1       2.358  10.470   4.200  0.00  0.00    +0.144 HD
ATOM     15  H   UNL     1       2.854  10.553   5.803  0.00  0.00    +0.144 HD
ENDBRANCH   5  13
BRANCH   4  16
ATOM     16  C   UNL     1       1.867  11.680   7.733  0.00  0.00    +0.128 C 
BRANCH  16  17
ATOM     17  C   UNL     1       2.803  12.890   7.696  0.00  0.00    +0.021 C 
BRANCH  17  19
ATOM     18  C   UNL     1       4.834  13.931   8.714  0.00  0.00    +0.004 C 
ATOM     19  C   UNL     1       3.898  12.721   8.751  0.00  0.00    -0.002 C 
ENDBRANCH  17  19
ENDBRANCH  16  17
ENDBRANCH   4  16
ENDBRANCH   1   6
BRANCH   1  20
ATOM     20  C   UNL     1       0.243  11.983   2.071  0.00  0.00    +0.082 C 
ATOM     21  C   UNL     1      -0.910  11.695   1.087  0.00  0.00    +0.023 C 
ATOM     22  C   UNL     1      -0.289  11.950  -0.310  0.00  0.00    +0.002 C 
ATOM     23  C   UNL     1       1.149  11.395  -0.152  0.00  0.00    +0.002 C 
ATOM     24  C   UNL     1       1.552  11.792   1.283  0.00  0.00    +0.023 C 
ENDBRANCH   1  20
BRANCH   2  25
ATOM     25  C   UNL     1       0.165   8.744   4.110  0.00  0.00    +0.019 C 
BRANCH  25  27
ATOM     26  C   UNL     1      -0.980   7.100   2.750  0.00  0.00    -0.095 C 
ATOM     27  N   UNL     1       0.218   7.368   3.574  0.00  0.00    +0.386 N 
ATOM     28  H   UNL     1       1.055   7.271   2.987  0.00  0.00    -0.081 HD
BRANCH  27  29
ATOM     29  C   UNL     1       0.296   6.395   4.684  0.00  0.00    -0.043 C 
BRANCH  29  30
ATOM     30  C   UNL     1       0.570   5.027   4.114  0.00  0.00    -0.063 A 
ATOM     31  C   UNL     1      -0.498   4.197   3.778  0.00  0.00    +0.002 A 
ATOM     32  C   UNL     1      -0.285   2.956   3.262  0.00  0.00    +0.009 A 
ATOM     33  C   UNL     1       1.030   2.502   3.062  0.00  0.00    -0.018 A 
ATOM     34  C   UNL     1       1.290   1.228   2.530  0.00  0.00    +0.008 A 
ATOM     35  C   UNL     1       2.577   0.822   2.350  0.00  0.00    +0.001 A 
ATOM     36  C   UNL     1       3.644   1.651   2.690  0.00  0.00    +0.001 A 
ATOM     37  C   UNL     1       3.431   2.894   3.203  0.00  0.00    +0.008 A 
ATOM     38  C   UNL     1       2.116   3.347   3.402  0.00  0.00    -0.018 A 
ATOM     39  C   UNL     1       1.857   4.622   3.934  0.00  0.00    +0.010 A 
ENDBRANCH  29  30
ENDBRANCH  27  29
ENDBRANCH  25  27
ENDBRANCH   2  25
TORSDOF 10
