REMARK  Name = ZINC64164765
REMARK  8 active torsions:
REMARK  status: ('A' for Active; 'I' for Inactive)
REMARK    1  A    between atoms: C_7  and  C_10
REMARK    2  A    between atoms: C_10  and  C_11
REMARK    3  A    between atoms: C_11  and  N_12
REMARK    4  A    between atoms: C_13  and  C_15
REMARK    5  A    between atoms: C_15  and  N_26
REMARK    6  A    between atoms: C_16  and  C_17
REMARK    7  A    between atoms: C_20  and  N_23
REMARK    8  A    between atoms: C_27  and  C_29
REMARK                            x       y       z     vdW  Elec       q    Type
REMARK                         _______ _______ _______ _____ _____    ______ ____
ROOT
ATOM      1  C   UNL     1      -1.927  -6.314  -2.702  0.00  0.00    +0.097 C 
ATOM      2  C   UNL     1      -2.184  -7.130  -3.749  0.00  0.00    +0.036 C 
ENDROOT
BRANCH   2   3
ATOM      3  C   UNL     1      -1.676  -6.792  -5.087  0.00  0.00    -0.023 A 
ATOM      4  C   UNL     1      -0.377  -6.297  -5.242  0.00  0.00    +0.010 A 
ATOM      5  C   UNL     1       0.092  -5.982  -6.500  0.00  0.00    +0.033 A 
ATOM      6  C   UNL     1      -0.719  -6.155  -7.608  0.00  0.00    +0.126 A 
ATOM      7  C   UNL     1      -2.005  -6.644  -7.463  0.00  0.00    +0.033 A 
ATOM      8  C   UNL     1      -2.487  -6.970  -6.213  0.00  0.00    +0.010 A 
BRANCH   6   9
ATOM      9  N   UNL     1      -0.208  -5.814  -8.954  0.00  0.00    +0.056 N 
ATOM     10  O   UNL     1       0.916  -5.386  -9.084  0.00  0.00    -0.126 OA
ATOM     11  O   UNL     1      -0.913  -5.963  -9.925  0.00  0.00    -0.126 OA
ENDBRANCH   6   9
ENDBRANCH   2   3
BRANCH   1  13
ATOM     12  N   UNL     1      -1.025  -4.192  -1.897  0.00  0.00    -0.310 N 
ATOM     13  C   UNL     1      -1.419  -4.954  -2.937  0.00  0.00    +0.258 C 
ATOM     14  O   UNL     1      -1.353  -4.517  -4.070  0.00  0.00    -0.269 OA
ATOM     15  H   UNL     1      -1.077  -4.541  -0.993  0.00  0.00    +0.149 HD
BRANCH  12  16
ATOM     16  C   UNL     1      -0.518  -2.838  -2.131  0.00  0.00    +0.109 C 
BRANCH  16  17
ATOM     17  C   UNL     1      -0.143  -2.196  -0.795  0.00  0.00    +0.052 C 
BRANCH  17  24
ATOM     18  C   UNL     1      -2.158   1.926  -0.712  0.00  0.00    +0.001 A 
ATOM     19  C   UNL     1      -1.286   2.984  -1.003  0.00  0.00    +0.002 A 
ATOM     20  C   UNL     1       0.022   2.796  -1.279  0.00  0.00    +0.026 A 
ATOM     21  C   UNL     1       0.574   1.486  -1.285  0.00  0.00    +0.043 A 
ATOM     22  N   UNL     1       1.789   1.051  -1.519  0.00  0.00    -0.380 N 
ATOM     23  C   UNL     1       1.796  -0.410  -1.389  0.00  0.00    +0.144 C 
ATOM     24  C   UNL     1       0.379  -0.802  -1.036  0.00  0.00    -0.040 C 
ATOM     25  C   UNL     1      -0.327   0.351  -0.981  0.00  0.00    -0.001 A 
ATOM     26  C   UNL     1      -1.736   0.641  -0.691  0.00  0.00    +0.010 A 
ATOM     27  H   UNL     1       2.555   1.603  -1.740  0.00  0.00    +0.160 HD
ENDBRANCH  17  24
ENDBRANCH  16  17
ENDBRANCH  12  16
ENDBRANCH   1  13
BRANCH   1  28
ATOM     28  N   UNL     1      -2.146  -6.762  -1.396  0.00  0.00    -0.277 N 
ATOM     29  C   UNL     1      -3.006  -6.104  -0.593  0.00  0.00    +0.250 C 
ATOM     30  O   UNL     1      -3.656  -5.174  -1.030  0.00  0.00    -0.270 OA
ATOM     31  H   UNL     1      -1.679  -7.546  -1.067  0.00  0.00    +0.155 HD
BRANCH  29  32
ATOM     32  C   UNL     1      -3.159  -6.514   0.818  0.00  0.00    +0.055 A 
ATOM     33  C   UNL     1      -2.410  -7.577   1.325  0.00  0.00    +0.014 A 
ATOM     34  C   UNL     1      -2.558  -7.955   2.643  0.00  0.00    +0.001 A 
ATOM     35  C   UNL     1      -3.446  -7.282   3.465  0.00  0.00    +0.001 A 
ATOM     36  C   UNL     1      -4.192  -6.227   2.970  0.00  0.00    +0.021 A 
ATOM     37  C   UNL     1      -4.050  -5.834   1.654  0.00  0.00    +0.053 A 
ATOM     38 CL   UNL     1      -4.981  -4.506   1.036  0.00  0.00    -0.083 Cl
ENDBRANCH  29  32
ENDBRANCH   1  28
TORSDOF 8
