REMARK  Name = ZINC51146274
REMARK  6 active torsions:
REMARK  status: ('A' for Active; 'I' for Inactive)
REMARK    1  A    between atoms: C_1  and  C_2
REMARK    2  A    between atoms: C_2  and  O_3
REMARK    3  A    between atoms: O_3  and  C_4
REMARK    4  A    between atoms: N_9  and  C_11
REMARK    5  A    between atoms: C_11  and  C_12
REMARK    6  A    between atoms: N_21  and  N_22
REMARK                            x       y       z     vdW  Elec       q    Type
REMARK                         _______ _______ _______ _____ _____    ______ ____
ROOT
ATOM      1  C   UNL     1       0.720  -5.639  -4.394  0.00  0.00    +0.116 A 
ATOM      2  N   UNL     1       1.849  -6.320  -4.479  0.00  0.00    -0.218 NA
ATOM      3  C   UNL     1       1.871  -7.639  -4.578  0.00  0.00    +0.144 A 
ATOM      4  C   UNL     1       0.641  -8.354  -4.592  0.00  0.00    +0.049 A 
ATOM      5  C   UNL     1       0.397  -9.782  -4.690  0.00  0.00    +0.021 A 
ATOM      6  C   UNL     1      -0.866 -10.233  -4.684  0.00  0.00    +0.048 A 
ATOM      7  S   UNL     1      -1.839  -8.746  -4.544  0.00  0.00    -0.077 S 
ATOM      8  C   UNL     1      -0.522  -7.559  -4.497  0.00  0.00    +0.113 A 
ATOM      9  N   UNL     1      -0.451  -6.246  -4.397  0.00  0.00    -0.227 NA
ATOM     10  N   UNL     1       3.074  -8.315  -4.666  0.00  0.00    -0.267 N 
ATOM     11  H   UNL     1       3.083  -9.283  -4.738  0.00  0.00    +0.167 HD
ENDROOT
BRANCH  10  12
ATOM     12  N   UNL     1       4.250  -7.621  -4.651  0.00  0.00    -0.255 NA
ATOM     13  H   UNL     1       4.319  -7.043  -3.827  0.00  0.00    +0.140 HD
ATOM     14  H   UNL     1       5.040  -8.245  -4.722  0.00  0.00    +0.140 HD
ENDBRANCH  10  12
BRANCH   1  15
ATOM     15  C   UNL     1       0.772  -4.137  -4.284  0.00  0.00    -0.001 C 
BRANCH  15  20
ATOM     16  C   UNL     1       0.746  -1.888  -1.280  0.00  0.00    +0.102 C 
ATOM     17  C   UNL     1       2.030  -2.384  -0.610  0.00  0.00    +0.028 C 
ATOM     18  C   UNL     1       2.140  -3.900  -0.797  0.00  0.00    -0.016 C 
ATOM     19  C   UNL     1       2.101  -4.228  -2.291  0.00  0.00    -0.078 C 
ATOM     20  N   UNL     1       0.838  -3.752  -2.868  0.00  0.00    +0.386 N 
ATOM     21  C   UNL     1       0.758  -2.290  -2.756  0.00  0.00    -0.046 C 
ATOM     22  H   UNL     1       0.065  -4.168  -2.372  0.00  0.00    -0.081 HD
BRANCH  16  23
ATOM     23  O   UNL     1       0.671  -0.465  -1.174  0.00  0.00    -0.379 OA
BRANCH  23  25
ATOM     24  C   UNL     1      -0.019   1.526   0.010  0.00  0.00    +0.034 C 
ATOM     25  C   UNL     1       0.002  -0.004   0.002  0.00  0.00    +0.157 C 
ENDBRANCH  23  25
ENDBRANCH  16  23
ENDBRANCH  15  20
ENDBRANCH   1  15
TORSDOF 5
