REMARK  Name = ZINC40900657
REMARK  10 active torsions:
REMARK  status: ('A' for Active; 'I' for Inactive)
REMARK    1  A    between atoms: C_1  and  C_2
REMARK    2  A    between atoms: C_2  and  O_3
REMARK    3  A    between atoms: O_3  and  C_4
REMARK    4  A    between atoms: C_4  and  C_5
REMARK    5  A    between atoms: C_5  and  C_6
REMARK    6  A    between atoms: C_6  and  N_7
REMARK    7  A    between atoms: C_8  and  C_10
REMARK    8  A    between atoms: N_15  and  C_17
REMARK    9  A    between atoms: C_20  and  C_24
REMARK   10  A    between atoms: C_26  and  C_29
REMARK                            x       y       z     vdW  Elec       q    Type
REMARK                         _______ _______ _______ _____ _____    ______ ____
ROOT
ATOM      1  C   UNL     1       3.576  -8.550  -7.766  0.00  0.00    +0.065 A 
ATOM      2  C   UNL     1       3.785  -9.920  -7.657  0.00  0.00    +0.027 A 
ATOM      3  C   UNL     1       3.299 -10.773  -8.625  0.00  0.00    +0.013 A 
ATOM      4  C   UNL     1       2.598 -10.261  -9.715  0.00  0.00    +0.025 A 
ATOM      5  C   UNL     1       2.389  -8.887  -9.825  0.00  0.00    +0.052 A 
ATOM      6  C   UNL     1       2.872  -8.037  -8.852  0.00  0.00    +0.145 A 
ATOM      7  F   UNL     1       2.665  -6.706  -8.954  0.00  0.00    -0.204 F 
ENDROOT
BRANCH   1  12
ATOM      8  C   UNL     1       3.170  -5.820  -5.499  0.00  0.00    +0.092 C 
ATOM      9  C   UNL     1       4.585  -5.237  -5.473  0.00  0.00    +0.016 C 
ATOM     10  C   UNL     1       5.307  -5.586  -6.776  0.00  0.00    +0.020 C 
ATOM     11  C   UNL     1       5.414  -7.109  -6.904  0.00  0.00    +0.105 C 
ATOM     12  N   UNL     1       4.069  -7.689  -6.785  0.00  0.00    -0.327 N 
ATOM     13  C   UNL     1       3.252  -7.345  -5.613  0.00  0.00    +0.118 C 
BRANCH   8  15
ATOM     14  N   UNL     1       2.259  -4.151  -3.917  0.00  0.00    -0.315 N 
ATOM     15  C   UNL     1       2.449  -5.448  -4.229  0.00  0.00    +0.218 C 
ATOM     16  O   UNL     1       2.039  -6.316  -3.488  0.00  0.00    -0.275 OA
ATOM     17  H   UNL     1       2.587  -3.456  -4.510  0.00  0.00    +0.149 HD
BRANCH  14  18
ATOM     18  C   UNL     1       1.558  -3.789  -2.683  0.00  0.00    +0.106 C 
BRANCH  18  19
ATOM     19  C   UNL     1       1.478  -2.265  -2.569  0.00  0.00    +0.047 C 
BRANCH  19  20
ATOM     20  C   UNL     1       0.746  -1.888  -1.280  0.00  0.00    +0.161 C 
BRANCH  20  21
ATOM     21  O   UNL     1       0.671  -0.465  -1.174  0.00  0.00    -0.380 OA
BRANCH  21  23
ATOM     22  C   UNL     1      -0.019   1.526   0.010  0.00  0.00    +0.034 C 
ATOM     23  C   UNL     1       0.002  -0.004   0.002  0.00  0.00    +0.156 C 
ENDBRANCH  21  23
ENDBRANCH  20  21
ENDBRANCH  19  20
ENDBRANCH  18  19
ENDBRANCH  14  18
ENDBRANCH   8  15
ENDBRANCH   1  12
BRANCH   4  24
ATOM     24  C   UNL     1       2.075 -11.178 -10.758  0.00  0.00    +0.202 A 
ATOM     25  N   UNL     1       1.392 -10.807 -11.853  0.00  0.00    -0.187 NA
ATOM     26  C   UNL     1       1.079 -11.865 -12.564  0.00  0.00    +0.259 A 
ATOM     27  O   UNL     1       1.559 -12.953 -11.935  0.00  0.00    -0.332 OA
ATOM     28  N   UNL     1       2.209 -12.482 -10.764  0.00  0.00    -0.056 NA
BRANCH  26  29
ATOM     29  C   UNL     1       0.329 -11.862 -13.836  0.00  0.00    +0.043 A 
ATOM     30  C   UNL     1      -0.111 -10.656 -14.387  0.00  0.00    +0.017 A 
ATOM     31  C   UNL     1      -0.811 -10.655 -15.574  0.00  0.00    +0.050 A 
ATOM     32  C   UNL     1      -1.082 -11.850 -16.226  0.00  0.00    +0.166 A 
ATOM     33  C   UNL     1      -0.646 -13.058 -15.682  0.00  0.00    +0.167 A 
ATOM     34  C   UNL     1       0.061 -13.065 -14.494  0.00  0.00    +0.062 A 
ATOM     35  O   UNL     1      -1.036 -14.073 -16.506  0.00  0.00    -0.453 OA
ATOM     36  C   UNL     1      -2.064 -13.514 -17.345  0.00  0.00    +0.466 C 
ATOM     37  O   UNL     1      -1.743 -12.111 -17.390  0.00  0.00    -0.453 OA
ENDBRANCH  26  29
ENDBRANCH   4  24
TORSDOF 9
