REMARK  Name = ZINC18196479
REMARK  5 active torsions:
REMARK  status: ('A' for Active; 'I' for Inactive)
REMARK    1  A    between atoms: C_1  and  O_2
REMARK    2  A    between atoms: O_2  and  C_3
REMARK    3  A    between atoms: C_6  and  C_9
REMARK    4  A    between atoms: C_16  and  O_17
REMARK    5  A    between atoms: C_24  and  C_27
REMARK                            x       y       z     vdW  Elec       q    Type
REMARK                         _______ _______ _______ _____ _____    ______ ____
ROOT
ATOM      1  C   UNL     1       2.452   3.935  -0.001  0.00  0.00    +0.092 C 
ATOM      2  C   UNL     1       2.533   4.792   1.230  0.00  0.00    +0.067 A 
ATOM      3  C   UNL     1       2.369   6.150   1.192  0.00  0.00    +0.126 A 
ATOM      4  N   UNL     1       2.496   6.616   2.449  0.00  0.00    -0.260 N 
ATOM      5  H   UNL     1       2.424   7.572   2.734  0.00  0.00    +0.190 HD
ATOM      6  N   UNL     1       2.748   5.520   3.287  0.00  0.00    -0.134 NA
ATOM      7  C   UNL     1       2.769   4.429   2.553  0.00  0.00    +0.237 A 
ATOM      8  N   UNL     1       2.121   6.816  -0.002  0.00  0.00    -0.303 N 
ATOM      9  C   UNL     1       2.337   6.149  -1.182  0.00  0.00    +0.017 C 
ATOM     10  C   UNL     1       2.509   4.811  -1.235  0.00  0.00    +0.024 C 
ATOM     11  C   UNL     1       2.756   4.163  -2.458  0.00  0.00    +0.162 C 
ATOM     12  O   UNL     1       2.900   2.956  -2.473  0.00  0.00    -0.292 OA
ATOM     13  C   UNL     1       2.845   4.928  -3.749  0.00  0.00    +0.088 C 
ATOM     14  C   UNL     1       3.337   6.348  -3.450  0.00  0.00    +0.039 C 
ATOM     15  C   UNL     1       2.380   6.985  -2.441  0.00  0.00    +0.060 C 
ATOM     16  H   UNL     1       1.802   7.732  -0.002  0.00  0.00    +0.153 HD
ENDROOT
BRANCH   1  20
ATOM     17  C   UNL     1      -1.223   1.754   0.017  0.00  0.00    +0.120 A 
ATOM     18  C   UNL     1      -0.013   1.076   0.008  0.00  0.00    +0.046 A 
ATOM     19  C   UNL     1       1.174   1.783   0.000  0.00  0.00    +0.008 A 
ATOM     20  C   UNL     1       1.156   3.166   0.007  0.00  0.00    -0.035 A 
ATOM     21  C   UNL     1      -0.049   3.844   0.022  0.00  0.00    +0.008 A 
ATOM     22  C   UNL     1      -1.238   3.141   0.029  0.00  0.00    +0.046 A 
BRANCH  17  24
ATOM     23  C   UNL     1      -3.599   1.824   0.029  0.00  0.00    +0.277 C 
ATOM     24  O   UNL     1      -2.392   1.060   0.020  0.00  0.00    -0.495 OA
ENDBRANCH  17  24
ENDBRANCH   1  20
BRANCH  14  25
ATOM     25  C   UNL     1       3.349   7.159  -4.720  0.00  0.00    -0.006 A 
ATOM     26  C   UNL     1       4.392   7.777  -5.329  0.00  0.00    +0.011 A 
ATOM     27  C   UNL     1       4.167   8.470  -6.503  0.00  0.00    +0.008 A 
ATOM     28  C   UNL     1       2.910   8.521  -7.006  0.00  0.00    +0.045 A 
ATOM     29  S   UNL     1       1.994   7.563  -5.810  0.00  0.00    -0.101 S 
ENDBRANCH  14  25
BRANCH   7  30
ATOM     30  O   UNL     1       2.985   3.166   3.008  0.00  0.00    -0.491 OA
ATOM     31  H   UNL     1       3.127   3.188   3.997  0.00  0.00    +0.294 HD
ENDBRANCH   7  30
TORSDOF 4
