REMARK  Name = ZINC64870885
REMARK  7 active torsions:
REMARK  status: ('A' for Active; 'I' for Inactive)
REMARK    1  A    between atoms: C_1  and  C_2
REMARK    2  A    between atoms: C_2  and  O_3
REMARK    3  A    between atoms: O_3  and  C_4
REMARK    4  A    between atoms: C_9  and  C_10
REMARK    5  A    between atoms: C_13  and  C_17
REMARK    6  A    between atoms: N_27  and  C_30
REMARK    7  A    between atoms: C_30  and  C_31
REMARK                            x       y       z     vdW  Elec       q    Type
REMARK                         _______ _______ _______ _____ _____    ______ ____
ROOT
ATOM      1  C   UNL     1       5.447  -1.332   4.789  0.00  0.00    -0.000 A 
ATOM      2  C   UNL     1       5.992  -2.336   4.003  0.00  0.00    +0.008 A 
ATOM      3  C   UNL     1       7.307  -2.717   4.171  0.00  0.00    +0.016 A 
ATOM      4  C   UNL     1       8.086  -2.086   5.138  0.00  0.00    +0.063 A 
ATOM      5  C   UNL     1       7.532  -1.068   5.934  0.00  0.00    +0.056 A 
ATOM      6  C   UNL     1       6.210  -0.694   5.747  0.00  0.00    +0.034 A 
ATOM      7  N   UNL     1       8.332  -0.457   6.888  0.00  0.00    -0.307 N 
ATOM      8  H   UNL     1       7.963   0.247   7.445  0.00  0.00    +0.170 HD
ATOM      9  C   UNL     1       9.613  -0.830   7.049  0.00  0.00    +0.330 A 
ATOM     10  O   UNL     1      10.280  -0.270   7.897  0.00  0.00    -0.246 OA
ATOM     11  N   UNL     1      10.187  -1.795   6.314  0.00  0.00    -0.256 N 
ATOM     12  C   UNL     1       9.496  -2.454   5.359  0.00  0.00    +0.265 A 
ATOM     13  O   UNL     1      10.024  -3.327   4.697  0.00  0.00    -0.267 OA
ENDROOT
BRANCH   1  16
ATOM     14  C   UNL     1       2.055  -1.434   3.442  0.00  0.00    +0.184 C 
ATOM     15  N   UNL     1       3.205  -2.088   4.122  0.00  0.00    -0.265 NA
ATOM     16  C   UNL     1       4.008  -0.928   4.591  0.00  0.00    +0.242 C 
ATOM     17  O   UNL     1       3.899   0.046   3.537  0.00  0.00    -0.274 OA
ATOM     18  N   UNL     1       2.658  -0.243   2.798  0.00  0.00    -0.177 NA
ATOM     19  H   UNL     1       2.894  -2.650   4.900  0.00  0.00    +0.127 HD
ATOM     20  H   UNL     1       2.851  -0.418   1.823  0.00  0.00    +0.156 HD
BRANCH  14  26
ATOM     21  C   UNL     1       0.802  -1.824   1.306  0.00  0.00    +0.126 A 
ATOM     22  C   UNL     1       0.260  -2.673   0.351  0.00  0.00    +0.046 A 
ATOM     23  C   UNL     1       0.372  -4.041   0.501  0.00  0.00    +0.004 A 
ATOM     24  C   UNL     1       1.024  -4.566   1.602  0.00  0.00    +0.001 A 
ATOM     25  C   UNL     1       1.565  -3.723   2.555  0.00  0.00    +0.010 A 
ATOM     26  C   UNL     1       1.460  -2.353   2.406  0.00  0.00    +0.028 A 
BRANCH  21  27
ATOM     27  O   UNL     1       0.693  -0.477   1.160  0.00  0.00    -0.492 OA
BRANCH  27  29
ATOM     28  C   UNL     1      -0.019   1.526   0.010  0.00  0.00    +0.048 C 
ATOM     29  C   UNL     1       0.002  -0.004   0.002  0.00  0.00    +0.225 C 
ENDBRANCH  27  29
ENDBRANCH  21  27
ENDBRANCH  14  26
ENDBRANCH   1  16
BRANCH  11  30
ATOM     30  C   UNL     1      11.590  -2.142   6.554  0.00  0.00    +0.168 C 
BRANCH  30  31
ATOM     31  C   UNL     1      11.669  -3.230   7.594  0.00  0.00    +0.008 A 
ATOM     32  C   UNL     1      11.963  -2.911   8.906  0.00  0.00    +0.008 A 
ATOM     33  C   UNL     1      12.035  -3.909   9.861  0.00  0.00    +0.000 A 
ATOM     34  C   UNL     1      11.813  -5.226   9.504  0.00  0.00    +0.003 A 
ATOM     35  C   UNL     1      11.518  -5.546   8.193  0.00  0.00    +0.039 A 
ATOM     36  C   UNL     1      11.440  -4.547   7.237  0.00  0.00    +0.128 A 
ATOM     37  F   UNL     1      11.147  -4.859   5.955  0.00  0.00    -0.205 F 
ENDBRANCH  30  31
ENDBRANCH  11  30
TORSDOF 6
