REMARK  Name = ZINC22426148
REMARK  12 active torsions:
REMARK  status: ('A' for Active; 'I' for Inactive)
REMARK    1  A    between atoms: C_1  and  C_2
REMARK    2  A    between atoms: C_2  and  C_4
REMARK    3  A    between atoms: C_2  and  N_14
REMARK    4  A    between atoms: C_4  and  C_5
REMARK    5  A    between atoms: C_5  and  C_6
REMARK    6  A    between atoms: C_5  and  C_7
REMARK    7  A    between atoms: C_5  and  C_8
REMARK    8  A    between atoms: C_15  and  C_17
REMARK    9  A    between atoms: C_17  and  N_18
REMARK   10  A    between atoms: N_18  and  C_19
REMARK   11  A    between atoms: N_18  and  S_26
REMARK   12  A    between atoms: S_26  and  C_29
REMARK                            x       y       z     vdW  Elec       q    Type
REMARK                         _______ _______ _______ _____ _____    ______ ____
ROOT
ATOM      1  N   UNL     1       4.209  -0.367  -1.473  0.00  0.00    -0.194 N 
ENDROOT
BRANCH   1   2
ATOM      2  C   UNL     1       4.878   0.592  -2.238  0.00  0.00    +0.055 A 
ATOM      3  C   UNL     1       5.539   0.217  -3.402  0.00  0.00    +0.025 A 
ATOM      4  C   UNL     1       6.200   1.166  -4.156  0.00  0.00    +0.005 A 
ATOM      5  C   UNL     1       6.206   2.489  -3.756  0.00  0.00    +0.038 A 
ATOM      6  C   UNL     1       5.549   2.867  -2.597  0.00  0.00    +0.125 A 
ATOM      7  C   UNL     1       4.880   1.922  -1.839  0.00  0.00    +0.063 A 
ATOM      8  F   UNL     1       5.556   4.161  -2.208  0.00  0.00    -0.205 F 
ENDBRANCH   1   2
BRANCH   1   9
ATOM      9  S   UNL     1       3.983  -0.122   0.149  0.00  0.00    +0.075 S 
ATOM     10  O   UNL     1       4.980   0.803   0.562  0.00  0.00    -0.150 OA
ATOM     11  O   UNL     1       3.846  -1.407   0.738  0.00  0.00    -0.150 OA
BRANCH   9  12
ATOM     12  C   UNL     1       2.432   0.690   0.342  0.00  0.00    +0.112 A 
ATOM     13  C   UNL     1       1.264  -0.050   0.367  0.00  0.00    +0.032 A 
ATOM     14  C   UNL     1       0.045   0.583   0.518  0.00  0.00    +0.051 A 
ATOM     15  C   UNL     1      -0.010   1.964   0.643  0.00  0.00    +0.162 A 
ATOM     16  C   UNL     1       1.164   2.707   0.621  0.00  0.00    +0.164 A 
ATOM     17  C   UNL     1       2.384   2.065   0.469  0.00  0.00    +0.078 A 
ATOM     18  O   UNL     1       1.133   4.062   0.751  0.00  0.00    -0.485 OA
ATOM     19  C   UNL     1      -0.128   4.701   0.526  0.00  0.00    +0.270 C 
ATOM     20  C   UNL     1      -1.207   3.916   1.284  0.00  0.00    +0.270 C 
ATOM     21  O   UNL     1      -1.219   2.574   0.782  0.00  0.00    -0.485 OA
ENDBRANCH   9  12
ENDBRANCH   1   9
BRANCH   1  22
ATOM     22  C   UNL     1       3.706  -1.588  -2.107  0.00  0.00    +0.227 C 
BRANCH  22  24
ATOM     23  N   UNL     1       1.687  -2.310  -3.340  0.00  0.00    -0.311 N 
ATOM     24  C   UNL     1       2.347  -1.323  -2.701  0.00  0.00    +0.232 C 
ATOM     25  O   UNL     1       1.848  -0.222  -2.606  0.00  0.00    -0.274 OA
ATOM     26  H   UNL     1       2.140  -3.308  -3.426  0.00  0.00    +0.149 HD
BRANCH  23  28
ATOM     27  C   UNL     1       0.529  -1.456  -5.317  0.00  0.00    +0.028 C 
ATOM     28  C   UNL     1       0.366  -2.052  -3.918  0.00  0.00    +0.071 C 
BRANCH  28  29
ATOM     29  C   UNL     1      -0.415  -3.365  -4.011  0.00  0.00    +0.033 C 
BRANCH  29  30
ATOM     30  C   UNL     1      -0.714  -3.881  -2.602  0.00  0.00    -0.008 C 
ATOM     31  C   UNL     1       0.597  -4.257  -1.908  0.00  0.00    +0.016 C 
ATOM     32  C   UNL     1      -1.421  -2.789  -1.798  0.00  0.00    +0.016 C 
BRANCH  30  33
ATOM     33  C   UNL     1      -1.602  -5.095  -2.690  0.00  0.00    -0.042 A 
ATOM     34  C   UNL     1      -2.016  -5.561  -3.924  0.00  0.00    +0.004 A 
ATOM     35  C   UNL     1      -2.826  -6.678  -4.005  0.00  0.00    +0.000 A 
ATOM     36  C   UNL     1      -3.232  -7.323  -2.851  0.00  0.00    +0.000 A 
ATOM     37  C   UNL     1      -2.823  -6.854  -1.617  0.00  0.00    +0.000 A 
ATOM     38  C   UNL     1      -2.007  -5.740  -1.536  0.00  0.00    +0.004 A 
ENDBRANCH  30  33
ENDBRANCH  29  30
ENDBRANCH  28  29
ENDBRANCH  23  28
ENDBRANCH  22  24
ENDBRANCH   1  22
TORSDOF 9
