REMARK  Name = ZINC39711619
REMARK  10 active torsions:
REMARK  status: ('A' for Active; 'I' for Inactive)
REMARK    1  A    between atoms: C_1  and  O_2
REMARK    2  A    between atoms: O_2  and  C_3
REMARK    3  A    between atoms: C_3  and  C_4
REMARK    4  A    between atoms: C_4  and  N_5
REMARK    5  A    between atoms: C_6  and  C_10
REMARK    6  A    between atoms: C_10  and  C_12
REMARK    7  A    between atoms: C_10  and  N_27
REMARK    8  A    between atoms: N_30  and  C_33
REMARK    9  A    between atoms: C_38  and  O_39
REMARK   10  A    between atoms: O_39  and  C_40
REMARK                            x       y       z     vdW  Elec       q    Type
REMARK                         _______ _______ _______ _____ _____    ______ ____
ROOT
ATOM      1  C   UNL     1      -0.752  -2.832  -3.744  0.00  0.00    +0.142 C 
ENDROOT
BRANCH   1   2
ATOM      2  C   UNL     1      -1.557  -4.128  -3.868  0.00  0.00    +0.123 C 
ATOM      3  C   UNL     1      -2.957  -3.765  -4.322  0.00  0.00    -0.003 C 
ATOM      4  C   UNL     1      -3.991  -4.145  -3.525  0.00  0.00    -0.003 A 
ATOM      5  C   UNL     1      -5.373  -3.832  -3.892  0.00  0.00    +0.059 A 
ATOM      6  C   UNL     1      -6.383  -4.224  -3.072  0.00  0.00    +0.167 A 
ATOM      7  C   UNL     1      -6.123  -4.929  -1.877  0.00  0.00    +0.168 A 
ATOM      8  C   UNL     1      -4.839  -5.248  -1.487  0.00  0.00    +0.073 A 
ATOM      9  C   UNL     1      -3.739  -4.881  -2.272  0.00  0.00    +0.044 A 
ATOM     10  N   UNL     1      -2.504  -5.200  -1.876  0.00  0.00    -0.284 N 
ATOM     11  C   UNL     1      -1.423  -4.884  -2.566  0.00  0.00    +0.226 C 
ATOM     12  O   UNL     1      -0.322  -5.201  -2.154  0.00  0.00    -0.275 OA
ATOM     13  O   UNL     1      -7.316  -5.188  -1.268  0.00  0.00    -0.453 OA
ATOM     14  C   UNL     1      -8.263  -4.287  -1.868  0.00  0.00    +0.466 C 
ATOM     15  O   UNL     1      -7.735  -4.056  -3.187  0.00  0.00    -0.453 OA
ATOM     16  H   UNL     1      -2.396  -5.686  -1.044  0.00  0.00    +0.155 HD
ENDBRANCH   1   2
BRANCH   1  17
ATOM     17  N   UNL     1      -0.963  -2.009  -4.941  0.00  0.00    -0.289 NA
ATOM     18  C   UNL     1      -0.548  -2.727  -6.154  0.00  0.00    +0.104 C 
ATOM     19  C   UNL     1      -0.948  -1.912  -7.388  0.00  0.00    +0.120 C 
ATOM     20  N   UNL     1      -0.399  -0.555  -7.251  0.00  0.00    -0.325 N 
ATOM     21  C   UNL     1      -0.658   0.177  -6.002  0.00  0.00    +0.120 C 
ATOM     22  C   UNL     1      -0.269  -0.719  -4.822  0.00  0.00    +0.104 C 
BRANCH  20  23
ATOM     23  C   UNL     1       0.350   0.024  -8.282  0.00  0.00    +0.072 A 
ATOM     24  C   UNL     1      -0.281   0.772  -9.265  0.00  0.00    +0.027 A 
ATOM     25  C   UNL     1       0.461   1.343 -10.281  0.00  0.00    +0.002 A 
ATOM     26  C   UNL     1       1.833   1.172 -10.321  0.00  0.00    +0.004 A 
ATOM     27  C   UNL     1       2.469   0.428  -9.344  0.00  0.00    +0.047 A 
ATOM     28  C   UNL     1       1.733  -0.143  -8.319  0.00  0.00    +0.141 A 
BRANCH  28  29
ATOM     29  O   UNL     1       2.358  -0.871  -7.355  0.00  0.00    -0.493 OA
ATOM     30  C   UNL     1       3.778  -1.000  -7.458  0.00  0.00    +0.277 C 
ENDBRANCH  28  29
ENDBRANCH  20  23
ENDBRANCH   1  17
BRANCH   1  32
ATOM     31  N   UNL     1       1.451  -3.100  -2.487  0.00  0.00    -0.225 N 
ATOM     32  C   UNL     1       0.712  -3.161  -3.611  0.00  0.00    +0.170 A 
ATOM     33  N   UNL     1       1.514  -3.563  -4.566  0.00  0.00    -0.112 NA
ATOM     34  N   UNL     1       2.684  -3.739  -4.056  0.00  0.00    -0.023 NA
ATOM     35  N   UNL     1       2.651  -3.455  -2.801  0.00  0.00    -0.044 NA
BRANCH  31  36
ATOM     36  C   UNL     1       0.982  -2.700  -1.158  0.00  0.00    +0.175 C 
BRANCH  36  37
ATOM     37  C   UNL     1       1.147  -1.188  -0.993  0.00  0.00    +0.183 C 
BRANCH  37  39
ATOM     38  C   UNL     1       0.801   0.604   0.561  0.00  0.00    +0.194 C 
ATOM     39  O   UNL     1       0.689  -0.797   0.303  0.00  0.00    -0.381 OA
ENDBRANCH  37  39
ENDBRANCH  36  37
ENDBRANCH  31  36
ENDBRANCH   1  32
TORSDOF 8
