REMARK  Name = ZINC13063819
REMARK  9 active torsions:
REMARK  status: ('A' for Active; 'I' for Inactive)
REMARK    1  A    between atoms: C_1  and  C_2
REMARK    2  A    between atoms: C_2  and  C_3
REMARK    3  A    between atoms: C_3  and  C_5
REMARK    4  A    between atoms: C_3  and  N_66
REMARK    5  A    between atoms: N_9  and  C_10
REMARK    6  A    between atoms: C_15  and  C_16
REMARK    7  A    between atoms: C_15  and  N_66
REMARK    8  A    between atoms: C_21  and  C_28
REMARK    9  A    between atoms: C_29  and  N_66
REMARK                            x       y       z     vdW  Elec       q    Type
REMARK                         _______ _______ _______ _____ _____    ______ ____
ROOT
ATOM      1  N   UNL     1       2.749  -1.886   1.040  0.00  0.00    +0.391 N 
ATOM      2  H   UNL     1       2.740  -1.721   2.054  0.00  0.00    -0.080 HD
ENDROOT
BRANCH   1   3
ATOM      3  C   UNL     1       3.828  -1.079   0.433  0.00  0.00    -0.067 C 
ATOM      4  C   UNL     1       3.610   0.410   0.772  0.00  0.00    -0.015 C 
ATOM      5  C   UNL     1       4.069   1.161  -0.503  0.00  0.00    -0.002 C 
ATOM      6  C   UNL     1       3.573   0.237  -1.643  0.00  0.00    -0.002 C 
ATOM      7  C   UNL     1       3.805  -1.189  -1.101  0.00  0.00    -0.015 C 
ENDBRANCH   1   3
BRANCH   1   8
ATOM      8  C   UNL     1       1.442  -1.488   0.477  0.00  0.00    +0.003 C 
BRANCH   8   9
ATOM      9  C   UNL     1       1.181  -2.218  -0.815  0.00  0.00    +0.138 A 
ATOM     10  N   UNL     1       1.505  -3.458  -1.092  0.00  0.00    -0.115 NA
ATOM     11  N   UNL     1       1.114  -3.712  -2.293  0.00  0.00    -0.023 NA
ATOM     12  N   UNL     1       0.550  -2.667  -2.789  0.00  0.00    -0.044 NA
ATOM     13  N   UNL     1       0.572  -1.725  -1.909  0.00  0.00    -0.228 N 
BRANCH  13  14
ATOM     14  C   UNL     1       0.034  -0.371  -2.069  0.00  0.00    +0.111 C 
ATOM     15  C   UNL     1      -1.469  -0.437  -2.409  0.00  0.00    +0.027 C 
ATOM     16  C   UNL     1      -1.680   0.718  -3.420  0.00  0.00    +0.002 C 
ATOM     17  C   UNL     1      -0.385   0.671  -4.269  0.00  0.00    +0.002 C 
ATOM     18  C   UNL     1       0.723   0.333  -3.250  0.00  0.00    +0.027 C 
ENDBRANCH  13  14
ENDBRANCH   8   9
BRANCH   8  20
ATOM     19  C   UNL     1       0.520  -0.972   2.741  0.00  0.00    +0.002 C 
ATOM     20  C   UNL     1       0.348  -1.834   1.489  0.00  0.00    -0.011 C 
ENDBRANCH   8  20
ENDBRANCH   1   8
BRANCH   1  21
ATOM     21  C   UNL     1       2.991  -3.322   0.790  0.00  0.00    -0.036 C 
BRANCH  21  22
ATOM     22  C   UNL     1       4.051  -3.807   1.744  0.00  0.00    +0.001 A 
ATOM     23  C   UNL     1       3.692  -4.364   2.928  0.00  0.00    +0.017 A 
ATOM     24  C   UNL     1       4.746  -4.830   3.830  0.00  0.00    -0.001 A 
ATOM     25  C   UNL     1       4.437  -5.416   5.062  0.00  0.00    +0.010 A 
ATOM     26  C   UNL     1       5.444  -5.836   5.884  0.00  0.00    +0.004 A 
ATOM     27  C   UNL     1       6.772  -5.684   5.508  0.00  0.00    -0.048 A 
ATOM     28  C   UNL     1       7.100  -5.110   4.299  0.00  0.00    +0.029 A 
ATOM     29  C   UNL     1       6.091  -4.675   3.446  0.00  0.00    +0.049 A 
ATOM     30  N   UNL     1       6.390  -4.096   2.231  0.00  0.00    -0.322 N 
ATOM     31  H   UNL     1       7.318  -3.990   1.967  0.00  0.00    +0.169 HD
ATOM     32  C   UNL     1       5.415  -3.675   1.406  0.00  0.00    +0.251 A 
ATOM     33  O   UNL     1       5.717  -3.168   0.340  0.00  0.00    -0.268 OA
ATOM     34  C   UNL     1       7.867  -6.154   6.431  0.00  0.00    +0.044 C 
ENDBRANCH  21  22
ENDBRANCH   1  21
TORSDOF 7
