REMARK  Name = ZINC22766801
REMARK  10 active torsions:
REMARK  status: ('A' for Active; 'I' for Inactive)
REMARK    1  A    between atoms: C_1  and  C_2
REMARK    2  A    between atoms: C_2  and  C_3
REMARK    3  A    between atoms: C_2  and  C_4
REMARK    4  A    between atoms: C_4  and  C_5
REMARK    5  A    between atoms: C_5  and  C_7
REMARK    6  A    between atoms: C_5  and  N_25
REMARK    7  A    between atoms: N_9  and  C_10
REMARK    8  A    between atoms: C_10  and  C_11
REMARK    9  A    between atoms: C_11  and  C_13
REMARK   10  A    between atoms: C_11  and  N_20
REMARK                            x       y       z     vdW  Elec       q    Type
REMARK                         _______ _______ _______ _____ _____    ______ ____
ROOT
ATOM      1  C   UNL     1       3.739   5.197  -1.248  0.00  0.00    +0.234 C 
ATOM      2  O   UNL     1       4.183   5.988  -0.442  0.00  0.00    -0.274 OA
ATOM      3  N   UNL     1       2.888   4.232  -0.846  0.00  0.00    -0.315 N 
ATOM      4  H   UNL     1       2.485   3.515  -1.576  0.00  0.00    +0.149 HD
ENDROOT
BRANCH   1   5
ATOM      5  C   UNL     1       4.138   5.294  -2.697  0.00  0.00    +0.170 C 
BRANCH   5   6
ATOM      6  N   UNL     1       5.063   6.416  -2.876  0.00  0.00    -0.230 N 
ATOM      7  C   UNL     1       6.258   6.504  -2.237  0.00  0.00    +0.227 C 
ATOM      8  O   UNL     1       6.822   5.624  -1.624  0.00  0.00    -0.275 OA
ATOM      9  C   UNL     1       6.744   7.906  -2.445  0.00  0.00    +0.091 C 
ATOM     10  C   UNL     1       8.230   8.135  -2.618  0.00  0.00    +0.040 C 
ATOM     11  C   UNL     1       8.399   9.544  -3.147  0.00  0.00    -0.030 C 
ATOM     12  C   UNL     1       7.451  10.237  -3.703  0.00  0.00    -0.030 C 
ATOM     13  C   UNL     1       6.043   9.730  -3.931  0.00  0.00    +0.040 C 
ATOM     14  C   UNL     1       6.096   8.220  -3.829  0.00  0.00    +0.091 C 
ATOM     15  C   UNL     1       4.805   7.472  -3.691  0.00  0.00    +0.227 C 
ATOM     16  O   UNL     1       3.743   7.753  -4.203  0.00  0.00    -0.275 OA
ENDBRANCH   5   6
BRANCH   5  17
ATOM     17  C   UNL     1       4.824   3.995  -3.125  0.00  0.00    +0.035 C 
BRANCH  17  19
ATOM     18  C   UNL     1       5.912   2.801  -5.031  0.00  0.00    +0.007 C 
ATOM     19  C   UNL     1       5.117   4.044  -4.626  0.00  0.00    -0.015 C 
ATOM     20  C   UNL     1       3.799   4.080  -5.402  0.00  0.00    +0.007 C 
ENDBRANCH  17  19
ENDBRANCH   5  17
ENDBRANCH   1   5
BRANCH   3  21
ATOM     21  C   UNL     1       2.500   4.138   0.564  0.00  0.00    +0.093 C 
BRANCH  21  22
ATOM     22  C   UNL     1       1.658   2.879   0.778  0.00  0.00    -0.019 C 
BRANCH  22  23
ATOM     23  C   UNL     1       1.241   2.793   2.224  0.00  0.00    -0.041 A 
ATOM     24  C   UNL     1       2.033   2.117   3.133  0.00  0.00    +0.003 A 
ATOM     25  C   UNL     1       1.651   2.038   4.459  0.00  0.00    +0.000 A 
ATOM     26  C   UNL     1       0.477   2.636   4.877  0.00  0.00    +0.001 A 
ATOM     27  C   UNL     1      -0.316   3.313   3.970  0.00  0.00    +0.020 A 
ATOM     28  C   UNL     1       0.069   3.397   2.643  0.00  0.00    +0.043 A 
ATOM     29 CL   UNL     1      -0.922   4.253   1.504  0.00  0.00    -0.083 Cl
ENDBRANCH  22  23
BRANCH  22  30
ATOM     30  N   UNL     1       2.451   1.694   0.426  0.00  0.00    +0.385 N 
ATOM     31  C   UNL     1       2.732   1.657  -1.026  0.00  0.00    -0.078 C 
ATOM     32  C   UNL     1       2.738   0.175  -1.447  0.00  0.00    -0.020 C 
ATOM     33  C   UNL     1       2.413  -0.612  -0.157  0.00  0.00    -0.020 C 
ATOM     34  C   UNL     1       1.704   0.445   0.726  0.00  0.00    -0.078 C 
ATOM     35  H   UNL     1       3.377   1.768   1.015  0.00  0.00    -0.081 HD
ENDBRANCH  22  30
ENDBRANCH  21  22
ENDBRANCH   3  21
TORSDOF 8
