REMARK  Name = ZINC16363871
REMARK  4 active torsions:
REMARK  status: ('A' for Active; 'I' for Inactive)
REMARK    1  A    between atoms: C_1  and  N_2
REMARK    2  A    between atoms: C_6  and  C_13
REMARK    3  A    between atoms: N_9  and  C_12
REMARK    4  A    between atoms: N_18  and  C_21
REMARK                            x       y       z     vdW  Elec       q    Type
REMARK                         _______ _______ _______ _____ _____    ______ ____
ROOT
ATOM      1  C   UNL     1       3.982  -3.067  -0.052  0.00  0.00    +0.026 C 
ATOM      2  C   UNL     1       5.353  -3.156  -0.170  0.00  0.00    +0.102 C 
ATOM      3  C   UNL     1       6.165  -4.382  -0.303  0.00  0.00    +0.266 C 
ATOM      4  O   UNL     1       5.752  -5.526  -0.330  0.00  0.00    -0.268 OA
ATOM      5  N   UNL     1       7.450  -3.991  -0.389  0.00  0.00    -0.223 N 
ATOM      6  N   UNL     1       7.546  -2.601  -0.322  0.00  0.00    -0.184 N 
ATOM      7  C   UNL     1       6.325  -2.047  -0.197  0.00  0.00    +0.272 C 
ATOM      8  O   UNL     1       6.073  -0.860  -0.118  0.00  0.00    -0.268 OA
ATOM      9  H   UNL     1       8.205  -4.592  -0.484  0.00  0.00    +0.174 HD
ENDROOT
BRANCH   1  15
ATOM     10  C   UNL     1       1.629   2.979   1.702  0.00  0.00    +0.154 C 
ATOM     11  N   UNL     1       1.373   1.796   0.876  0.00  0.00    -0.295 N 
ATOM     12  C   UNL     1       2.181   0.671   0.799  0.00  0.00    +0.070 A 
ATOM     13  C   UNL     1       3.378   0.317   1.412  0.00  0.00    +0.028 A 
ATOM     14  C   UNL     1       3.960  -0.887   1.139  0.00  0.00    +0.010 A 
ATOM     15  C   UNL     1       3.354  -1.777   0.238  0.00  0.00    -0.022 A 
ATOM     16  C   UNL     1       2.148  -1.427  -0.384  0.00  0.00    +0.036 A 
ATOM     17  C   UNL     1       1.566  -0.207  -0.103  0.00  0.00    +0.070 A 
ATOM     18  N   UNL     1       0.402   0.421  -0.542  0.00  0.00    -0.295 N 
ATOM     19  C   UNL     1       0.315   1.620   0.063  0.00  0.00    +0.330 A 
ATOM     20  O   UNL     1      -0.582   2.425  -0.104  0.00  0.00    -0.246 OA
ATOM     21  C   UNL     1      -0.562  -0.130  -1.499  0.00  0.00    +0.154 C 
ENDBRANCH   1  15
BRANCH   6  22
ATOM     22  C   UNL     1       8.744  -1.882  -0.382  0.00  0.00    +0.057 A 
ATOM     23  C   UNL     1       8.728  -0.494  -0.311  0.00  0.00    +0.025 A 
ATOM     24  C   UNL     1       9.912   0.213  -0.366  0.00  0.00    +0.003 A 
ATOM     25  C   UNL     1      11.114  -0.458  -0.502  0.00  0.00    +0.015 A 
ATOM     26  C   UNL     1      11.134  -1.839  -0.579  0.00  0.00    +0.020 A 
ATOM     27  C   UNL     1       9.952  -2.553  -0.519  0.00  0.00    +0.040 A 
ATOM     28 BR   UNL     1      12.780  -2.751  -0.765  0.00  0.00    -0.050 Br
ENDBRANCH   6  22
TORSDOF 2
