REMARK  Name = ZINC14008644
REMARK  13 active torsions:
REMARK  status: ('A' for Active; 'I' for Inactive)
REMARK    1  A    between atoms: C_1  and  C_2
REMARK    2  A    between atoms: C_2  and  O_3
REMARK    3  A    between atoms: O_3  and  C_4
REMARK    4  A    between atoms: C_4  and  C_6
REMARK    5  A    between atoms: C_6  and  O_7
REMARK    6  A    between atoms: O_7  and  C_8
REMARK    7  A    between atoms: C_11  and  C_15
REMARK    8  A    between atoms: N_19  and  C_23
REMARK    9  A    between atoms: C_23  and  C_25
REMARK   10  A    between atoms: C_23  and  C_26
REMARK   11  A    between atoms: C_26  and  O_28
REMARK   12  A    between atoms: O_28  and  C_29
REMARK   13  A    between atoms: C_29  and  C_30
REMARK                            x       y       z     vdW  Elec       q    Type
REMARK                         _______ _______ _______ _____ _____    ______ ____
ROOT
ATOM      1  C   UNL     1      -0.013   1.076   0.008  0.00  0.00    +0.028 C 
ATOM      2  C   UNL     1       1.217   1.535   0.353  0.00  0.00    +0.080 C 
ATOM      3  C   UNL     1       2.485   0.796   0.519  0.00  0.00    +0.261 C 
ATOM      4  O   UNL     1       2.551  -0.407   0.346  0.00  0.00    -0.269 OA
ATOM      5  N   UNL     1       3.544   1.508   0.865  0.00  0.00    -0.215 N 
ATOM      6  C   UNL     1       3.466   2.840   1.056  0.00  0.00    +0.287 C 
ATOM      7  O   UNL     1       4.353   3.611   1.372  0.00  0.00    -0.262 OA
ATOM      8  S   UNL     1       1.749   3.200   0.724  0.00  0.00    -0.026 S 
ENDROOT
BRANCH   1  12
ATOM      9  C   UNL     1      -3.363   3.671   0.157  0.00  0.00    +0.135 A 
ATOM     10  C   UNL     1      -3.490   2.408  -0.410  0.00  0.00    +0.047 A 
ATOM     11  C   UNL     1      -2.405   1.562  -0.461  0.00  0.00    +0.011 A 
ATOM     12  C   UNL     1      -1.173   1.975   0.060  0.00  0.00    -0.023 A 
ATOM     13  C   UNL     1      -1.052   3.245   0.636  0.00  0.00    +0.027 A 
ATOM     14  C   UNL     1      -2.142   4.087   0.676  0.00  0.00    +0.060 A 
ATOM     15 BR   UNL     1      -1.979   5.806   1.446  0.00  0.00    -0.046 Br
BRANCH   9  16
ATOM     16  O   UNL     1      -4.436   4.502   0.205  0.00  0.00    -0.480 OA
BRANCH  16  17
ATOM     17  C   UNL     1      -5.661   4.012  -0.345  0.00  0.00    +0.349 C 
BRANCH  17  18
ATOM     18  C   UNL     1      -6.731   5.063  -0.204  0.00  0.00    +0.345 C 
ATOM     19  O   UNL     1      -6.472   6.123   0.315  0.00  0.00    -0.247 OA
BRANCH  18  20
ATOM     20  O   UNL     1      -7.973   4.822  -0.654  0.00  0.00    -0.463 OA
BRANCH  20  22
ATOM     21  C   UNL     1     -10.298   5.426  -1.054  0.00  0.00    +0.048 C 
ATOM     22  C   UNL     1      -8.952   5.880  -0.484  0.00  0.00    +0.229 C 
ENDBRANCH  20  22
ENDBRANCH  18  20
ENDBRANCH  17  18
ENDBRANCH  16  17
ENDBRANCH   9  16
ENDBRANCH   1  12
BRANCH   5  23
ATOM     23  C   UNL     1       4.832   0.833   1.046  0.00  0.00    +0.190 C 
ATOM     24  C   UNL     1       5.320   1.040   2.481  0.00  0.00    +0.040 C 
BRANCH  23  25
ATOM     25  C   UNL     1       5.840   1.408   0.084  0.00  0.00    +0.328 C 
ATOM     26  O   UNL     1       5.516   2.291  -0.674  0.00  0.00    -0.249 OA
BRANCH  25  27
ATOM     27  O   UNL     1       7.098   0.939   0.070  0.00  0.00    -0.464 OA
BRANCH  27  28
ATOM     28  C   UNL     1       8.015   1.540  -0.882  0.00  0.00    +0.229 C 
ATOM     29  C   UNL     1       9.389   0.881  -0.751  0.00  0.00    +0.048 C 
ENDBRANCH  27  28
ENDBRANCH  25  27
ENDBRANCH  23  25
ENDBRANCH   5  23
TORSDOF 10
