REMARK  Name = ZINC10129866
REMARK  12 active torsions:
REMARK  status: ('A' for Active; 'I' for Inactive)
REMARK    1  A    between atoms: C_1  and  C_2
REMARK    2  A    between atoms: C_2  and  O_3
REMARK    3  A    between atoms: O_3  and  C_4
REMARK    4  A    between atoms: C_9  and  N_10
REMARK    5  A    between atoms: C_11  and  C_13
REMARK    6  A    between atoms: N_15  and  C_16
REMARK    7  A    between atoms: C_16  and  C_17
REMARK    8  A    between atoms: C_17  and  C_19
REMARK    9  A    between atoms: C_17  and  N_70
REMARK   10  A    between atoms: C_22  and  N_25
REMARK   11  A    between atoms: N_25  and  C_26
REMARK   12  A    between atoms: N_25  and  C_27
REMARK                            x       y       z     vdW  Elec       q    Type
REMARK                         _______ _______ _______ _____ _____    ______ ____
ROOT
ATOM      1  C   UNL     1       2.309   0.035   1.016  0.00  0.00    -0.020 C 
ENDROOT
BRANCH   1  11
ATOM      2  C   UNL     1       1.521  -0.527   3.238  0.00  0.00    -0.073 C 
ATOM      3  C   UNL     1       0.907  -1.682   4.030  0.00  0.00    +0.017 C 
ATOM      4  C   UNL     1       1.874  -2.837   4.090  0.00  0.00    -0.048 A 
ATOM      5  C   UNL     1       1.666  -3.825   5.041  0.00  0.00    +0.004 A 
ATOM      6  C   UNL     1       2.526  -4.901   5.128  0.00  0.00    +0.000 A 
ATOM      7  C   UNL     1       3.600  -4.994   4.262  0.00  0.00    +0.000 A 
ATOM      8  C   UNL     1       3.808  -4.011   3.317  0.00  0.00    +0.002 A 
ATOM      9  C   UNL     1       2.946  -2.928   3.229  0.00  0.00    -0.061 A 
ATOM     10  C   UNL     1       3.220  -1.876   2.187  0.00  0.00    -0.042 C 
ATOM     11  N   UNL     1       2.009  -1.070   1.954  0.00  0.00    +0.388 N 
ATOM     12  H   UNL     1       1.282  -1.668   1.544  0.00  0.00    -0.080 HD
ENDBRANCH   1  11
BRANCH   1  13
ATOM     13  C   UNL     1       3.685   0.588   1.284  0.00  0.00    -0.059 A 
ATOM     14  C   UNL     1       3.973   1.157   2.511  0.00  0.00    +0.004 A 
ATOM     15  C   UNL     1       5.234   1.660   2.762  0.00  0.00    +0.023 A 
ATOM     16  C   UNL     1       6.211   1.604   1.776  0.00  0.00    +0.029 A 
ATOM     17  C   UNL     1       5.917   1.038   0.542  0.00  0.00    +0.023 A 
ATOM     18  C   UNL     1       4.655   0.532   0.300  0.00  0.00    +0.004 A 
BRANCH  16  19
ATOM     19  N   UNL     1       7.486   2.118   2.024  0.00  0.00    -0.336 N 
ATOM     20  C   UNL     1       8.473   2.182   0.944  0.00  0.00    +0.129 C 
ATOM     21  C   UNL     1       7.836   2.592   3.365  0.00  0.00    +0.129 C 
ENDBRANCH  16  19
ENDBRANCH   1  13
BRANCH   1  22
ATOM     22  C   UNL     1       1.270   1.144   1.192  0.00  0.00    +0.094 C 
BRANCH  22  25
ATOM     23  C   UNL     1      -1.137   1.427   0.937  0.00  0.00    +0.299 C 
ATOM     24  O   UNL     1      -1.029   2.534   1.422  0.00  0.00    -0.265 OA
ATOM     25  N   UNL     1      -0.047   0.650   0.781  0.00  0.00    -0.309 N 
ATOM     26  H   UNL     1      -0.133  -0.235   0.394  0.00  0.00    +0.149 HD
BRANCH  23  28
ATOM     27  N   UNL     1      -3.568   1.702   0.669  0.00  0.00    -0.275 N 
ATOM     28  C   UNL     1      -2.478   0.925   0.513  0.00  0.00    +0.303 C 
ATOM     29  O   UNL     1      -2.586  -0.182   0.028  0.00  0.00    -0.265 OA
ATOM     30  H   UNL     1      -3.472   2.617   0.977  0.00  0.00    +0.155 HD
BRANCH  27  36
ATOM     31  C   UNL     1      -5.902   2.055   0.137  0.00  0.00    +0.142 A 
ATOM     32  C   UNL     1      -7.158   1.541  -0.143  0.00  0.00    +0.047 A 
ATOM     33  C   UNL     1      -7.354   0.173  -0.174  0.00  0.00    +0.004 A 
ATOM     34  C   UNL     1      -6.300  -0.687   0.073  0.00  0.00    +0.002 A 
ATOM     35  C   UNL     1      -5.043  -0.183   0.348  0.00  0.00    +0.027 A 
ATOM     36  C   UNL     1      -4.839   1.189   0.386  0.00  0.00    +0.076 A 
BRANCH  31  37
ATOM     37  O   UNL     1      -5.708   3.400   0.167  0.00  0.00    -0.490 OA
BRANCH  37  39
ATOM     38  C   UNL     1      -6.433   5.698  -0.020  0.00  0.00    +0.048 C 
ATOM     39  C   UNL     1      -6.843   4.226  -0.098  0.00  0.00    +0.226 C 
ENDBRANCH  37  39
ENDBRANCH  31  37
ENDBRANCH  27  36
ENDBRANCH  23  28
ENDBRANCH  22  25
ENDBRANCH   1  22
TORSDOF 9
