REMARK  Name = ZINC25212659
REMARK  9 active torsions:
REMARK  status: ('A' for Active; 'I' for Inactive)
REMARK    1  A    between atoms: C_1  and  C_2
REMARK    2  A    between atoms: C_6  and  N_9
REMARK    3  A    between atoms: C_7  and  C_8
REMARK    4  A    between atoms: C_10  and  C_12
REMARK    5  A    between atoms: C_12  and  S_13
REMARK    6  A    between atoms: S_13  and  C_14
REMARK    7  A    between atoms: N_20  and  C_21
REMARK    8  A    between atoms: C_21  and  C_22
REMARK    9  A    between atoms: C_22  and  C_23
REMARK                            x       y       z     vdW  Elec       q    Type
REMARK                         _______ _______ _______ _____ _____    ______ ____
ROOT
ATOM      1  C   UNL     1      -2.106  -0.831   1.133  0.00  0.00    +0.192 A 
ATOM      2  N   UNL     1      -3.276  -1.260   0.758  0.00  0.00    -0.145 NA
ATOM      3  N   UNL     1      -3.305  -1.270  -0.644  0.00  0.00    -0.226 N 
ATOM      4  H   UNL     1      -4.210  -1.606  -1.172  0.00  0.00    +0.194 HD
ATOM      5  C   UNL     1      -2.108  -0.824  -1.076  0.00  0.00    +0.345 A 
ATOM      6  O   UNL     1      -1.764  -0.695  -2.237  0.00  0.00    -0.245 OA
ATOM      7  N   UNL     1      -1.361  -0.546   0.011  0.00  0.00    -0.270 N 
ENDROOT
BRANCH   1   8
ATOM      8  S   UNL     1      -1.567  -0.641   2.800  0.00  0.00    -0.077 S 
BRANCH   8   9
ATOM      9  C   UNL     1      -3.050  -1.198   3.675  0.00  0.00    +0.173 C 
BRANCH   9  11
ATOM     10  N   UNL     1      -3.789  -1.489   6.018  0.00  0.00    -0.285 N 
ATOM     11  C   UNL     1      -2.816  -1.121   5.162  0.00  0.00    +0.227 C 
ATOM     12  O   UNL     1      -1.750  -0.728   5.588  0.00  0.00    -0.275 OA
ATOM     13  H   UNL     1      -4.785  -1.758   5.636  0.00  0.00    +0.155 HD
BRANCH  10  19
ATOM     14  C   UNL     1      -5.455  -1.283  10.639  0.00  0.00    +0.044 C 
ATOM     15  C   UNL     1      -4.323  -1.430   9.655  0.00  0.00    -0.046 A 
ATOM     16  C   UNL     1      -3.030  -1.604  10.113  0.00  0.00    +0.004 A 
ATOM     17  C   UNL     1      -1.988  -1.740   9.213  0.00  0.00    +0.002 A 
ATOM     18  C   UNL     1      -2.236  -1.702   7.855  0.00  0.00    +0.023 A 
ATOM     19  C   UNL     1      -3.534  -1.527   7.393  0.00  0.00    +0.037 A 
ATOM     20  C   UNL     1      -4.578  -1.385   8.299  0.00  0.00    -0.026 A 
ATOM     21  C   UNL     1      -5.987  -1.189   7.802  0.00  0.00    +0.046 C 
ENDBRANCH  10  19
ENDBRANCH   9  11
ENDBRANCH   8   9
ENDBRANCH   1   8
BRANCH   7  22
ATOM     22  C   UNL     1       0.012  -0.035   0.001  0.00  0.00    +0.133 C 
BRANCH  22  23
ATOM     23  C   UNL     1      -0.013   1.495  -0.002  0.00  0.00    +0.057 C 
BRANCH  23  24
ATOM     24  C   UNL     1       1.399   2.021  -0.013  0.00  0.00    -0.046 A 
ATOM     25  C   UNL     1       2.053   2.269   1.179  0.00  0.00    +0.004 A 
ATOM     26  C   UNL     1       3.350   2.746   1.169  0.00  0.00    +0.000 A 
ATOM     27  C   UNL     1       3.990   2.986  -0.033  0.00  0.00    +0.000 A 
ATOM     28  C   UNL     1       3.333   2.742  -1.225  0.00  0.00    +0.000 A 
ATOM     29  C   UNL     1       2.038   2.260  -1.215  0.00  0.00    +0.004 A 
ENDBRANCH  23  24
ENDBRANCH  22  23
ENDBRANCH   7  22
TORSDOF 7
