REMARK  Name = ZINC08441842
REMARK  10 active torsions:
REMARK  status: ('A' for Active; 'I' for Inactive)
REMARK    1  A    between atoms: C_1  and  C_2
REMARK    2  A    between atoms: C_2  and  C_3
REMARK    3  A    between atoms: C_4  and  C_25
REMARK    4  A    between atoms: C_6  and  C_8
REMARK    5  A    between atoms: C_18  and  C_24
REMARK    6  A    between atoms: C_19  and  C_20
REMARK    7  A    between atoms: C_20  and  O_22
REMARK    8  A    between atoms: O_22  and  C_23
REMARK    9  A    between atoms: C_25  and  O_26
REMARK   10  A    between atoms: O_26  and  C_27
REMARK                            x       y       z     vdW  Elec       q    Type
REMARK                         _______ _______ _______ _____ _____    ______ ____
ROOT
ATOM      1  C   UNL     1       3.936   1.814  -0.509  0.00  0.00    +0.099 C 
ATOM      2  C   UNL     1       2.501   1.350  -0.537  0.00  0.00    +0.024 C 
ATOM      3  C   UNL     1       2.162   0.195  -1.148  0.00  0.00    +0.015 C 
ATOM      4  C   UNL     1       0.727  -0.269  -1.191  0.00  0.00    +0.051 C 
ATOM      5  C   UNL     1      -0.007   0.215   0.061  0.00  0.00    +0.014 C 
ATOM      6  C   UNL     1       0.083   1.744   0.118  0.00  0.00    +0.080 C 
ATOM      7  C   UNL     1       1.531   2.150   0.092  0.00  0.00    +0.162 C 
ATOM      8  O   UNL     1       1.869   3.189   0.624  0.00  0.00    -0.292 OA
ATOM      9  N   UNL     1       3.119  -0.584  -1.742  0.00  0.00    -0.321 N 
ATOM     10  C   UNL     1       4.437  -0.441  -1.412  0.00  0.00    +0.016 C 
ATOM     11  C   UNL     1       4.873   0.684  -0.819  0.00  0.00    +0.066 C 
ATOM     12  C   UNL     1       5.409  -1.553  -1.714  0.00  0.00    +0.061 C 
ATOM     13  H   UNL     1       2.829  -1.335  -2.492  0.00  0.00    +0.152 HD
ENDROOT
BRANCH   1  17
ATOM     14  C   UNL     1       4.321   4.536  -3.670  0.00  0.00    -0.004 A 
ATOM     15  C   UNL     1       4.623   5.024  -2.442  0.00  0.00    +0.000 A 
ATOM     16  C   UNL     1       4.517   4.190  -1.344  0.00  0.00    +0.019 A 
ATOM     17  C   UNL     1       4.123   2.906  -1.530  0.00  0.00    +0.003 A 
ATOM     18  S   UNL     1       3.875   2.848  -3.297  0.00  0.00    -0.097 S 
BRANCH  14  20
ATOM     19  C   UNL     1       5.737   5.072  -5.634  0.00  0.00    +0.009 C 
ATOM     20  C   UNL     1       4.352   5.237  -5.003  0.00  0.00    +0.039 C 
ENDBRANCH  14  20
BRANCH  15  21
ATOM     21  C   UNL     1       5.064   6.455  -2.275  0.00  0.00    +0.265 C 
BRANCH  21  22
ATOM     22  O   UNL     1       5.321   6.716  -0.893  0.00  0.00    -0.487 OA
BRANCH  22  23
ATOM     23  C   UNL     1       5.730   7.971  -0.568  0.00  0.00    +0.121 A 
ATOM     24  C   UNL     1       5.888   8.929  -1.560  0.00  0.00    +0.047 A 
ATOM     25  C   UNL     1       6.298  10.205  -1.226  0.00  0.00    +0.019 A 
ATOM     26  C   UNL     1       6.564  10.525   0.093  0.00  0.00    +0.018 A 
ATOM     27  C   UNL     1       6.413   9.569   1.082  0.00  0.00    +0.019 A 
ATOM     28  C   UNL     1       5.997   8.294   0.754  0.00  0.00    +0.047 A 
ATOM     29 BR   UNL     1       7.132  12.271   0.545  0.00  0.00    -0.050 Br
ENDBRANCH  22  23
ENDBRANCH  21  22
ENDBRANCH  15  21
ENDBRANCH   1  17
BRANCH  11  30
ATOM     30  C   UNL     1       6.242   0.805  -0.482  0.00  0.00    +0.337 C 
ATOM     31  O   UNL     1       6.991  -0.142  -0.631  0.00  0.00    -0.245 OA
BRANCH  30  32
ATOM     32  O   UNL     1       6.716   1.970   0.006  0.00  0.00    -0.465 OA
ATOM     33  C   UNL     1       8.108   2.022   0.326  0.00  0.00    +0.280 C 
ENDBRANCH  30  32
ENDBRANCH  11  30
TORSDOF 7
