REMARK  Name = ZINC40354162
REMARK  8 active torsions:
REMARK  status: ('A' for Active; 'I' for Inactive)
REMARK    1  A    between atoms: C_1  and  C_2
REMARK    2  A    between atoms: C_2  and  C_3
REMARK    3  A    between atoms: C_3  and  C_4
REMARK    4  A    between atoms: C_4  and  C_6
REMARK    5  A    between atoms: C_4  and  N_9
REMARK    6  A    between atoms: C_6  and  N_8
REMARK    7  A    between atoms: C_10  and  C_12
REMARK    8  A    between atoms: C_21  and  O_22
REMARK                            x       y       z     vdW  Elec       q    Type
REMARK                         _______ _______ _______ _____ _____    ______ ____
ROOT
ATOM      1  N   UNL     1       1.548  -2.511  -0.144  0.00  0.00    -0.303 N 
ATOM      2  C   UNL     1       1.328  -3.739   0.366  0.00  0.00    +0.248 C 
ATOM      3  O   UNL     1       0.457  -4.445  -0.104  0.00  0.00    -0.270 OA
ATOM      4  H   UNL     1       2.243  -1.947   0.231  0.00  0.00    +0.150 HD
ENDROOT
BRANCH   2   5
ATOM      5  C   UNL     1       2.142  -4.225   1.494  0.00  0.00    +0.079 A 
ATOM      6  C   UNL     1       3.145  -3.402   2.039  0.00  0.00    +0.017 A 
ATOM      7  C   UNL     1       3.908  -3.826   3.076  0.00  0.00    +0.009 A 
ATOM      8  C   UNL     1       3.705  -5.107   3.628  0.00  0.00    -0.014 A 
ATOM      9  C   UNL     1       4.485  -5.563   4.703  0.00  0.00    +0.008 A 
ATOM     10  C   UNL     1       4.266  -6.805   5.216  0.00  0.00    +0.001 A 
ATOM     11  C   UNL     1       3.278  -7.635   4.691  0.00  0.00    +0.001 A 
ATOM     12  C   UNL     1       2.503  -7.226   3.648  0.00  0.00    +0.012 A 
ATOM     13  C   UNL     1       2.700  -5.951   3.094  0.00  0.00    +0.024 A 
ATOM     14  C   UNL     1       1.911  -5.495   2.018  0.00  0.00    +0.137 A 
BRANCH  14  15
ATOM     15  O   UNL     1       0.943  -6.285   1.496  0.00  0.00    -0.505 OA
ATOM     16  H   UNL     1       1.245  -6.855   0.776  0.00  0.00    +0.292 HD
ENDBRANCH  14  15
ENDBRANCH   2   5
BRANCH   1  17
ATOM     17  C   UNL     1       0.739  -2.027  -1.265  0.00  0.00    +0.125 C 
BRANCH  17  18
ATOM     18  C   UNL     1       1.334  -2.514  -2.561  0.00  0.00    +0.067 C 
ATOM     19  S   UNL     1       2.719  -3.314  -2.555  0.00  0.00    -0.039 S 
BRANCH  18  20
ATOM     20  N   UNL     1       0.699  -2.276  -3.726  0.00  0.00    -0.354 N 
ATOM     21  H   UNL     1      -0.141  -1.791  -3.730  0.00  0.00    +0.143 HD
ATOM     22  H   UNL     1       1.082  -2.590  -4.560  0.00  0.00    +0.143 HD
ENDBRANCH  18  20
ENDBRANCH  17  18
BRANCH  17  23
ATOM     23  C   UNL     1       0.718  -0.497  -1.257  0.00  0.00    +0.028 C 
BRANCH  23  25
ATOM     24  C   UNL     1      -0.019   1.526   0.010  0.00  0.00    +0.004 C 
ATOM     25  C   UNL     1       0.002  -0.004   0.002  0.00  0.00    -0.001 C 
ENDBRANCH  23  25
ENDBRANCH  17  23
ENDBRANCH   1  17
TORSDOF 7
