REMARK  Name = ZINC38197325
REMARK  5 active torsions:
REMARK  status: ('A' for Active; 'I' for Inactive)
REMARK    1  A    between atoms: C_1  and  C_2
REMARK    2  A    between atoms: C_2  and  O_3
REMARK    3  A    between atoms: O_3  and  C_4
REMARK    4  A    between atoms: C_9  and  N_10
REMARK    5  A    between atoms: C_19  and  C_33
REMARK                            x       y       z     vdW  Elec       q    Type
REMARK                         _______ _______ _______ _____ _____    ______ ____
ROOT
ATOM      1  N   UNL     1       2.018  -1.502   3.376  0.00  0.00    -0.206 N 
ATOM      2  C   UNL     1       1.337  -1.082   4.449  0.00  0.00    +0.231 C 
ATOM      3  O   UNL     1       0.192  -1.376   4.714  0.00  0.00    -0.274 OA
ATOM      4  C   UNL     1       2.226  -0.181   5.280  0.00  0.00    +0.101 C 
ATOM      5  C   UNL     1       3.549  -0.153   4.494  0.00  0.00    +0.114 C 
ATOM      6  C   UNL     1       3.275  -1.045   3.302  0.00  0.00    +0.232 C 
ATOM      7  O   UNL     1       4.066  -1.302   2.420  0.00  0.00    -0.274 OA
ATOM      8  C   UNL     1       4.702  -0.759   5.322  0.00  0.00    +0.134 C 
ATOM      9  C   UNL     1       4.724   0.030   6.622  0.00  0.00    -0.022 A 
ATOM     10  C   UNL     1       5.802   0.724   7.094  0.00  0.00    +0.005 A 
ATOM     11  C   UNL     1       5.684   1.404   8.300  0.00  0.00    +0.000 A 
ATOM     12  C   UNL     1       4.496   1.376   9.007  0.00  0.00    +0.000 A 
ATOM     13  C   UNL     1       3.405   0.668   8.520  0.00  0.00    +0.004 A 
ATOM     14  C   UNL     1       3.527   0.003   7.334  0.00  0.00    -0.035 A 
ATOM     15  C   UNL     1       2.408  -0.816   6.675  0.00  0.00    +0.062 C 
ATOM     16  C   UNL     1       3.006  -2.191   6.421  0.00  0.00    -0.035 A 
ATOM     17  C   UNL     1       4.232  -2.152   5.711  0.00  0.00    -0.022 A 
ATOM     18  C   UNL     1       4.893  -3.309   5.411  0.00  0.00    +0.005 A 
ATOM     19  C   UNL     1       4.349  -4.517   5.829  0.00  0.00    +0.000 A 
ATOM     20  C   UNL     1       3.160  -4.544   6.534  0.00  0.00    +0.000 A 
ATOM     21  C   UNL     1       2.450  -3.370   6.827  0.00  0.00    +0.004 A 
ENDROOT
BRANCH   1  27
ATOM     22  C   UNL     1       0.802  -1.825   1.306  0.00  0.00    +0.142 A 
ATOM     23  C   UNL     1       0.261  -2.673   0.353  0.00  0.00    +0.047 A 
ATOM     24  C   UNL     1       0.372  -4.042   0.502  0.00  0.00    +0.004 A 
ATOM     25  C   UNL     1       1.024  -4.570   1.602  0.00  0.00    +0.002 A 
ATOM     26  C   UNL     1       1.566  -3.731   2.557  0.00  0.00    +0.027 A 
ATOM     27  C   UNL     1       1.463  -2.356   2.410  0.00  0.00    +0.085 A 
BRANCH  22  28
ATOM     28  O   UNL     1       0.693  -0.477   1.160  0.00  0.00    -0.490 OA
BRANCH  28  30
ATOM     29  C   UNL     1      -0.019   1.526   0.010  0.00  0.00    +0.048 C 
ATOM     30  C   UNL     1       0.002  -0.004   0.002  0.00  0.00    +0.226 C 
ENDBRANCH  28  30
ENDBRANCH  22  28
ENDBRANCH   1  27
BRANCH   8  31
ATOM     31  C   UNL     1       6.018  -0.762   4.588  0.00  0.00    +0.371 C 
ATOM     32  O   UNL     1       7.063  -0.675   5.210  0.00  0.00    -0.245 OA
ATOM     33  O   UNL     1       6.038  -0.852   3.373  0.00  0.00    -0.245 OA
ENDBRANCH   8  31
TORSDOF 4
