REMARK  Name = ZINC43713362
REMARK  6 active torsions:
REMARK  status: ('A' for Active; 'I' for Inactive)
REMARK    1  A    between atoms: C_1  and  N_2
REMARK    2  A    between atoms: N_2  and  C_3
REMARK    3  A    between atoms: C_3  and  C_4
REMARK    4  A    between atoms: N_11  and  C_12
REMARK    5  A    between atoms: C_12  and  C_14
REMARK    6  A    between atoms: C_12  and  C_20
REMARK                            x       y       z     vdW  Elec       q    Type
REMARK                         _______ _______ _______ _____ _____    ______ ____
ROOT
ATOM      1  C   UNL     1      -0.022  -0.717  -3.605  0.00  0.00    +0.135 C 
ENDROOT
BRANCH   1   2
ATOM      2  C   UNL     1      -0.645   0.144  -4.673  0.00  0.00    -0.023 A 
ATOM      3  C   UNL     1      -0.366   1.498  -4.719  0.00  0.00    +0.007 A 
ATOM      4  C   UNL     1      -0.937   2.288  -5.699  0.00  0.00    +0.020 A 
ATOM      5  C   UNL     1      -1.787   1.725  -6.634  0.00  0.00    +0.041 A 
ATOM      6  C   UNL     1      -2.065   0.371  -6.587  0.00  0.00    +0.020 A 
ATOM      7  C   UNL     1      -1.490  -0.420  -5.611  0.00  0.00    +0.007 A 
ATOM      8 CL   UNL     1      -2.504   2.718  -7.864  0.00  0.00    -0.084 Cl
ENDBRANCH   1   2
BRANCH   1  13
ATOM      9  C   UNL     1      -0.018   1.461   0.010  0.00  0.00    +0.134 C 
ATOM     10  N   UNL     1       0.002  -0.004   0.002  0.00  0.00    -0.281 N 
ATOM     11  C   UNL     1       0.000  -0.672  -1.169  0.00  0.00    +0.303 C 
ATOM     12  O   UNL     1       0.017  -1.887  -1.175  0.00  0.00    -0.253 OA
ATOM     13  N   UNL     1      -0.020   0.009  -2.332  0.00  0.00    -0.288 N 
ATOM     14  H   UNL     1      -0.033   0.978  -2.327  0.00  0.00    +0.151 HD
BRANCH  10  15
ATOM     15  C   UNL     1       0.024  -0.743   1.267  0.00  0.00    +0.183 C 
BRANCH  15  16
ATOM     16  C   UNL     1      -1.389  -1.016   1.714  0.00  0.00    +0.122 A 
ATOM     17  C   UNL     1      -2.117  -2.103   1.401  0.00  0.00    +0.046 A 
ATOM     18  C   UNL     1      -3.375  -1.948   2.027  0.00  0.00    +0.041 A 
ATOM     19  C   UNL     1      -3.340  -0.775   2.686  0.00  0.00    +0.195 A 
ATOM     20  O   UNL     1      -2.133  -0.218   2.497  0.00  0.00    -0.466 OA
ENDBRANCH  15  16
ENDBRANCH  10  15
ENDBRANCH   1  13
BRANCH   1  21
ATOM     21  C   UNL     1       1.394  -1.054  -3.993  0.00  0.00    -0.023 A 
ATOM     22  C   UNL     1       2.405  -0.135  -3.785  0.00  0.00    +0.006 A 
ATOM     23  C   UNL     1       3.705  -0.444  -4.141  0.00  0.00    +0.000 A 
ATOM     24  C   UNL     1       3.993  -1.673  -4.706  0.00  0.00    +0.000 A 
ATOM     25  C   UNL     1       2.982  -2.592  -4.913  0.00  0.00    +0.000 A 
ATOM     26  C   UNL     1       1.683  -2.285  -4.553  0.00  0.00    +0.006 A 
ENDBRANCH   1  21
TORSDOF 5
