REMARK  Name = ZINC39674495
REMARK  7 active torsions:
REMARK  status: ('A' for Active; 'I' for Inactive)
REMARK    1  A    between atoms: C_1  and  C_2
REMARK    2  A    between atoms: C_4  and  C_9
REMARK    3  A    between atoms: C_5  and  C_8
REMARK    4  A    between atoms: C_9  and  C_11
REMARK    5  A    between atoms: C_9  and  N_12
REMARK    6  A    between atoms: C_13  and  C_15
REMARK    7  A    between atoms: C_26  and  C_28
REMARK                            x       y       z     vdW  Elec       q    Type
REMARK                         _______ _______ _______ _____ _____    ______ ____
ROOT
ATOM      1  C   UNL     1      -3.603   0.406  -5.193  0.00  0.00    +0.100 C 
ATOM      2  C   UNL     1      -3.785  -1.122  -5.062  0.00  0.00    +0.121 C 
ATOM      3  N   UNL     1      -4.498  -1.522  -6.298  0.00  0.00    -0.300 N 
ATOM      4  C   UNL     1      -3.881  -0.694  -7.363  0.00  0.00    +0.115 C 
ATOM      5  C   UNL     1      -3.665   0.683  -6.704  0.00  0.00    -0.004 C 
ATOM      6  C   UNL     1      -4.834   1.610  -7.024  0.00  0.00    -0.010 C 
ATOM      7  C   UNL     1      -4.842   1.916  -8.524  0.00  0.00    -0.082 C 
ATOM      8  N   UNL     1      -3.572   2.549  -8.902  0.00  0.00    +0.379 N 
ATOM      9  C   UNL     1      -2.461   1.616  -8.678  0.00  0.00    -0.082 C 
ATOM     10  C   UNL     1      -2.353   1.297  -7.184  0.00  0.00    -0.010 C 
ATOM     11  C   UNL     1      -5.483  -2.432  -6.427  0.00  0.00    +0.219 C 
ATOM     12  O   UNL     1      -5.941  -2.972  -5.443  0.00  0.00    -0.275 OA
ATOM     13  H   UNL     1      -3.603   2.805  -9.878  0.00  0.00    -0.086 HD
ATOM     14  H   UNL     1      -3.432   3.378  -8.344  0.00  0.00    -0.086 HD
ENDROOT
BRANCH  11  15
ATOM     15  C   UNL     1      -6.016  -2.777  -7.793  0.00  0.00    +0.079 C 
ATOM     16  C   UNL     1      -7.486  -3.202  -7.681  0.00  0.00    +0.017 C 
ATOM     17  C   UNL     1      -8.049  -3.374  -9.094  0.00  0.00    +0.027 C 
ATOM     18  C   UNL     1      -7.129  -4.227  -9.917  0.00  0.00    -0.031 C 
ATOM     19  C   UNL     1      -5.896  -4.472  -9.607  0.00  0.00    -0.030 C 
ATOM     20  C   UNL     1      -5.215  -3.942  -8.379  0.00  0.00    +0.039 C 
ENDBRANCH  11  15
BRANCH   1  22
ATOM     21  N   UNL     1      -2.122   2.037  -4.066  0.00  0.00    -0.309 N 
ATOM     22  C   UNL     1      -2.265   0.824  -4.638  0.00  0.00    +0.219 C 
ATOM     23  O   UNL     1      -1.318   0.070  -4.705  0.00  0.00    -0.275 OA
ATOM     24  H   UNL     1      -2.879   2.640  -4.012  0.00  0.00    +0.149 HD
BRANCH  21  25
ATOM     25  C   UNL     1      -0.822   2.443  -3.527  0.00  0.00    +0.100 C 
ATOM     26  C   UNL     1       0.034   3.033  -4.649  0.00  0.00    +0.033 C 
BRANCH  25  29
ATOM     27  C   UNL     1      -1.167   5.706  -3.598  0.00  0.00    +0.039 C 
ATOM     28  C   UNL     1      -1.792   4.787  -2.546  0.00  0.00    +0.154 C 
ATOM     29  C   UNL     1      -1.026   3.479  -2.452  0.00  0.00    -0.001 C 
ATOM     30  C   UNL     1      -0.575   3.461  -1.196  0.00  0.00    +0.063 C 
ATOM     31  N   UNL     1      -0.964   4.571  -0.530  0.00  0.00    -0.159 NA
ATOM     32  N   UNL     1      -1.644   5.360  -1.198  0.00  0.00    -0.180 NA
ATOM     33  C   UNL     1       0.256   2.354  -0.601  0.00  0.00    +0.067 C 
ENDBRANCH  25  29
ENDBRANCH  21  25
ENDBRANCH   1  22
TORSDOF 4
