REMARK  Name = ZINC31776246
REMARK  8 active torsions:
REMARK  status: ('A' for Active; 'I' for Inactive)
REMARK    1  A    between atoms: C_1  and  C_2
REMARK    2  A    between atoms: C_2  and  O_3
REMARK    3  A    between atoms: O_3  and  C_4
REMARK    4  A    between atoms: C_4  and  C_6
REMARK    5  A    between atoms: C_7  and  C_25
REMARK    6  A    between atoms: N_9  and  C_13
REMARK    7  A    between atoms: C_10  and  N_12
REMARK    8  A    between atoms: C_16  and  C_20
REMARK                            x       y       z     vdW  Elec       q    Type
REMARK                         _______ _______ _______ _____ _____    ______ ____
ROOT
ATOM      1  C   UNL     1       4.438   0.589  -0.468  0.00  0.00    +0.099 C 
ATOM      2  C   UNL     1       4.171   0.780   0.839  0.00  0.00    +0.138 C 
ATOM      3  N   UNL     1       3.014   1.467   1.020  0.00  0.00    -0.258 N 
ATOM      4  N   UNL     1       2.416   1.774  -0.209  0.00  0.00    -0.229 N 
ATOM      5  C   UNL     1       3.307   1.226  -1.246  0.00  0.00    +0.198 C 
ATOM      6  H   UNL     1       2.535   1.782   1.959  0.00  0.00    +0.170 HD
ENDROOT
BRANCH   4   7
ATOM      7  C   UNL     1       1.218   2.466  -0.410  0.00  0.00    +0.086 A 
ATOM      8  C   UNL     1       1.227   3.850  -0.540  0.00  0.00    +0.065 A 
ATOM      9  C   UNL     1       0.041   4.531  -0.740  0.00  0.00    +0.034 A 
ATOM     10  C   UNL     1      -1.153   3.837  -0.810  0.00  0.00    +0.058 A 
ATOM     11  C   UNL     1      -1.165   2.460  -0.688  0.00  0.00    +0.034 A 
ATOM     12  C   UNL     1       0.017   1.772  -0.482  0.00  0.00    +0.065 A 
ATOM     13 CL   UNL     1      -0.000   0.044  -0.321  0.00  0.00    -0.082 Cl
ATOM     14 CL   UNL     1       2.725   4.722  -0.452  0.00  0.00    -0.082 Cl
BRANCH  10  15
ATOM     15  C   UNL     1      -2.445   4.583  -1.027  0.00  0.00    +0.418 C 
ATOM     16  F   UNL     1      -2.696   4.691  -2.399  0.00  0.00    -0.166 F 
ATOM     17  F   UNL     1      -3.493   3.889  -0.414  0.00  0.00    -0.166 F 
ATOM     18  F   UNL     1      -2.343   5.862  -0.470  0.00  0.00    -0.166 F 
ENDBRANCH  10  15
ENDBRANCH   4   7
BRANCH   2  19
ATOM     19  C   UNL     1       5.053   0.297   1.962  0.00  0.00    +0.432 C 
ATOM     20  F   UNL     1       6.227  -0.247   1.432  0.00  0.00    -0.165 F 
ATOM     21  F   UNL     1       5.373   1.372   2.799  0.00  0.00    -0.165 F 
ATOM     22  F   UNL     1       4.376  -0.681   2.698  0.00  0.00    -0.165 F 
ENDBRANCH   2  19
BRANCH   5  23
ATOM     23  N   UNL     1       2.603   0.217  -2.047  0.00  0.00    -0.307 NA
ATOM     24  H   UNL     1       1.785   0.697  -2.605  0.00  0.00    +0.120 HD
ATOM     25  H   UNL     1       3.306  -0.246  -2.755  0.00  0.00    +0.120 HD
ENDBRANCH   5  23
BRANCH   1  26
ATOM     26  C   UNL     1       5.559  -0.079  -1.008  0.00  0.00    +0.340 C 
ATOM     27  O   UNL     1       6.467   0.561  -1.505  0.00  0.00    -0.245 OA
BRANCH  26  28
ATOM     28  O   UNL     1       5.623  -1.426  -0.974  0.00  0.00    -0.462 OA
BRANCH  28  30
ATOM     29  C   UNL     1       6.680  -3.556  -1.408  0.00  0.00    +0.048 C 
ATOM     30  C   UNL     1       6.786  -2.035  -1.538  0.00  0.00    +0.229 C 
ENDBRANCH  28  30
ENDBRANCH  26  28
ENDBRANCH   1  26
TORSDOF 7
