REMARK  Name = ZINC39325112
REMARK  6 active torsions:
REMARK  status: ('A' for Active; 'I' for Inactive)
REMARK    1  A    between atoms: C_4  and  C_7
REMARK    2  A    between atoms: C_7  and  N_8
REMARK    3  A    between atoms: N_8  and  C_9
REMARK    4  A    between atoms: N_8  and  S_26
REMARK    5  A    between atoms: C_9  and  C_10
REMARK    6  A    between atoms: S_26  and  C_29
REMARK                            x       y       z     vdW  Elec       q    Type
REMARK                         _______ _______ _______ _____ _____    ______ ____
ROOT
ATOM      1  N   UNL     1       4.298  -1.027   1.488  0.00  0.00    -0.171 NA
ENDROOT
BRANCH   1   2
ATOM      2  S   UNL     1       5.056   0.254   2.214  0.00  0.00    +0.061 S 
ATOM      3  O   UNL     1       5.568  -0.224   3.450  0.00  0.00    -0.153 OA
ATOM      4  O   UNL     1       5.885   0.849   1.225  0.00  0.00    -0.153 OA
BRANCH   2   5
ATOM      5  C   UNL     1       3.814   1.440   2.608  0.00  0.00    +0.109 A 
ATOM      6  C   UNL     1       3.542   2.473   1.730  0.00  0.00    +0.032 A 
ATOM      7  C   UNL     1       2.569   3.406   2.036  0.00  0.00    +0.051 A 
ATOM      8  C   UNL     1       1.862   3.307   3.225  0.00  0.00    +0.162 A 
ATOM      9  C   UNL     1       2.133   2.268   4.107  0.00  0.00    +0.164 A 
ATOM     10  C   UNL     1       3.109   1.333   3.792  0.00  0.00    +0.078 A 
ATOM     11  O   UNL     1       1.446   2.148   5.275  0.00  0.00    -0.485 OA
ATOM     12  C   UNL     1       0.735   3.307   5.725  0.00  0.00    +0.270 C 
ATOM     13  C   UNL     1      -0.035   3.891   4.534  0.00  0.00    +0.270 C 
ATOM     14  O   UNL     1       0.909   4.235   3.514  0.00  0.00    -0.485 OA
ENDBRANCH   2   5
ENDBRANCH   1   2
BRANCH   1  15
ATOM     15  C   UNL     1       4.086  -1.028   0.039  0.00  0.00    +0.144 C 
BRANCH  15  19
ATOM     16  C   UNL     1       0.090   0.214  -0.821  0.00  0.00    +0.000 A 
ATOM     17  C   UNL     1       1.122   1.134  -0.852  0.00  0.00    +0.000 A 
ATOM     18  C   UNL     1       2.415   0.732  -0.574  0.00  0.00    +0.005 A 
ATOM     19  C   UNL     1       2.676  -0.589  -0.264  0.00  0.00    -0.032 A 
ATOM     20  C   UNL     1       1.645  -1.509  -0.232  0.00  0.00    +0.005 A 
ATOM     21  C   UNL     1       0.352  -1.108  -0.512  0.00  0.00    +0.000 A 
ENDBRANCH  15  19
ENDBRANCH   1  15
BRANCH   1  22
ATOM     22  C   UNL     1       3.838  -2.159   2.296  0.00  0.00    +0.126 C 
BRANCH  22  23
ATOM     23  C   UNL     1       4.626  -3.413   1.913  0.00  0.00    +0.114 C 
ATOM     24  C   UNL     1       3.910  -4.611   2.503  0.00  0.00    -0.003 C 
ATOM     25  C   UNL     1       4.616  -5.405   3.353  0.00  0.00    -0.003 A 
ATOM     26  C   UNL     1       3.998  -6.580   3.967  0.00  0.00    +0.059 A 
ATOM     27  C   UNL     1       4.731  -7.355   4.812  0.00  0.00    +0.163 A 
ATOM     28  C   UNL     1       6.075  -7.046   5.103  0.00  0.00    +0.164 A 
ATOM     29  C   UNL     1       6.702  -5.947   4.551  0.00  0.00    +0.073 A 
ATOM     30  C   UNL     1       6.022  -5.095   3.672  0.00  0.00    +0.044 A 
ATOM     31  N   UNL     1       6.649  -4.038   3.150  0.00  0.00    -0.284 N 
ATOM     32  C   UNL     1       6.067  -3.196   2.316  0.00  0.00    +0.225 C 
ATOM     33  O   UNL     1       6.690  -2.249   1.872  0.00  0.00    -0.275 OA
ATOM     34  O   UNL     1       6.793  -7.839   5.942  0.00  0.00    -0.485 OA
ATOM     35  C   UNL     1       6.053  -8.722   6.790  0.00  0.00    +0.270 C 
ATOM     36  C   UNL     1       4.996  -9.435   5.938  0.00  0.00    +0.270 C 
ATOM     37  O   UNL     1       4.132  -8.443   5.375  0.00  0.00    -0.485 OA
ATOM     38  H   UNL     1       7.574  -3.881   3.396  0.00  0.00    +0.155 HD
ENDBRANCH  22  23
ENDBRANCH   1  22
TORSDOF 6
