REMARK  Name = ZINC67245778
REMARK  5 active torsions:
REMARK  status: ('A' for Active; 'I' for Inactive)
REMARK    1  A    between atoms: C_4  and  N_7
REMARK    2  A    between atoms: N_7  and  C_8
REMARK    3  A    between atoms: N_7  and  S_16
REMARK    4  A    between atoms: C_8  and  C_9
REMARK    5  A    between atoms: S_16  and  C_19
REMARK                            x       y       z     vdW  Elec       q    Type
REMARK                         _______ _______ _______ _____ _____    ______ ____
ROOT
ATOM      1  N   UNL     1       3.620  -0.649  -0.036  0.00  0.00    -0.199 N 
ENDROOT
BRANCH   1   5
ATOM      2  C   UNL     1      -0.022   1.368   0.041  0.00  0.00    +0.000 A 
ATOM      3  C   UNL     1       1.012   1.842  -0.746  0.00  0.00    +0.002 A 
ATOM      4  C   UNL     1       2.222   1.175  -0.773  0.00  0.00    +0.025 A 
ATOM      5  C   UNL     1       2.398   0.028  -0.010  0.00  0.00    +0.052 A 
ATOM      6  C   UNL     1       1.357  -0.445   0.778  0.00  0.00    +0.025 A 
ATOM      7  C   UNL     1       0.150   0.226   0.801  0.00  0.00    +0.002 A 
ENDBRANCH   1   5
BRANCH   1   8
ATOM      8  S   UNL     1       3.682  -2.227  -0.536  0.00  0.00    +0.076 S 
ATOM      9  O   UNL     1       4.770  -2.828   0.151  0.00  0.00    -0.150 OA
ATOM     10  O   UNL     1       2.356  -2.732  -0.452  0.00  0.00    -0.150 OA
BRANCH   8  11
ATOM     11  C   UNL     1       4.109  -2.216  -2.245  0.00  0.00    +0.125 A 
ATOM     12  C   UNL     1       3.186  -1.745  -3.194  0.00  0.00    +0.034 A 
ATOM     13  C   UNL     1       3.518  -1.736  -4.513  0.00  0.00    +0.050 A 
ATOM     14  C   UNL     1       4.787  -2.202  -4.905  0.00  0.00    +0.161 A 
ATOM     15  N   UNL     1       5.392  -2.319  -6.076  0.00  0.00    -0.130 NA
ATOM     16  N   UNL     1       6.569  -2.808  -5.904  0.00  0.00    -0.137 NA
ATOM     17  C   UNL     1       6.787  -3.031  -4.634  0.00  0.00    +0.229 A 
ATOM     18  N   UNL     1       5.669  -2.656  -3.955  0.00  0.00    -0.287 N 
ATOM     19  C   UNL     1       5.325  -2.654  -2.635  0.00  0.00    +0.123 A 
ENDBRANCH   8  11
ENDBRANCH   1   8
BRANCH   1  20
ATOM     20  C   UNL     1       4.846   0.036   0.378  0.00  0.00    +0.166 C 
BRANCH  20  21
ATOM     21  C   UNL     1       4.991  -0.056   1.875  0.00  0.00    -0.028 A 
ATOM     22  C   UNL     1       4.441   0.921   2.685  0.00  0.00    +0.006 A 
ATOM     23  C   UNL     1       4.574   0.837   4.058  0.00  0.00    +0.020 A 
ATOM     24  C   UNL     1       5.258  -0.225   4.622  0.00  0.00    +0.041 A 
ATOM     25  C   UNL     1       5.809  -1.202   3.812  0.00  0.00    +0.020 A 
ATOM     26  C   UNL     1       5.671  -1.119   2.440  0.00  0.00    +0.006 A 
ATOM     27 CL   UNL     1       5.426  -0.331   6.347  0.00  0.00    -0.084 Cl
ENDBRANCH  20  21
ENDBRANCH   1  20
TORSDOF 5
