REMARK  Name = ZINC29131861
REMARK  11 active torsions:
REMARK  status: ('A' for Active; 'I' for Inactive)
REMARK    1  A    between atoms: C_1  and  C_2
REMARK    2  A    between atoms: C_7  and  C_16
REMARK    3  A    between atoms: C_8  and  C_10
REMARK    4  A    between atoms: C_17  and  C_28
REMARK    5  A    between atoms: C_18  and  C_27
REMARK    6  A    between atoms: C_20  and  C_26
REMARK    7  A    between atoms: C_21  and  C_22
REMARK    8  A    between atoms: C_22  and  O_24
REMARK    9  A    between atoms: O_24  and  C_25
REMARK   10  A    between atoms: C_28  and  O_30
REMARK   11  A    between atoms: O_30  and  C_31
REMARK                            x       y       z     vdW  Elec       q    Type
REMARK                         _______ _______ _______ _____ _____    ______ ____
ROOT
ATOM      1  C   UNL     1      -0.805   2.366  -0.590  0.00  0.00    +0.115 C 
ATOM      2  C   UNL     1      -0.915   3.215   0.644  0.00  0.00    +0.067 C 
ATOM      3  C   UNL     1      -2.097   3.420   1.251  0.00  0.00    +0.016 C 
ATOM      4  N   UNL     1      -3.243   2.851   0.764  0.00  0.00    -0.321 N 
ATOM      5  C   UNL     1      -3.175   1.800  -0.110  0.00  0.00    +0.016 C 
ATOM      6  C   UNL     1      -2.037   1.525  -0.769  0.00  0.00    +0.067 C 
ATOM      7  C   UNL     1      -4.391   0.938  -0.332  0.00  0.00    +0.061 C 
ATOM      8  C   UNL     1      -2.162   4.286   2.482  0.00  0.00    +0.061 C 
ATOM      9  H   UNL     1      -4.224   3.239   1.075  0.00  0.00    +0.152 HD
ENDROOT
BRANCH   1  16
ATOM     10  C   UNL     1      -3.795   3.131  -1.464  0.00  0.00    +0.064 C 
ATOM     11  C   UNL     1      -3.034   3.892  -2.519  0.00  0.00    +0.029 A 
ATOM     12  C   UNL     1      -3.701   4.598  -3.431  0.00  0.00    +0.070 A 
ATOM     13  S   UNL     1      -2.374   5.282  -4.412  0.00  0.00    -0.057 S 
ATOM     14  C   UNL     1      -1.021   4.559  -3.513  0.00  0.00    +0.178 A 
ATOM     15  N   UNL     1      -1.657   3.843  -2.533  0.00  0.00    -0.293 N 
ATOM     16  C   UNL     1      -0.635   3.259  -1.793  0.00  0.00    +0.064 A 
ATOM     17  C   UNL     1       0.541   3.633  -2.352  0.00  0.00    +0.094 A 
ATOM     18  N   UNL     1       0.270   4.431  -3.405  0.00  0.00    -0.221 NA
BRANCH  17  19
ATOM     19  C   UNL     1       1.893   3.235  -1.886  0.00  0.00    +0.002 A 
ATOM     20  C   UNL     1       2.076   2.777  -0.583  0.00  0.00    +0.010 A 
ATOM     21  C   UNL     1       3.335   2.403  -0.157  0.00  0.00    +0.001 A 
ATOM     22  C   UNL     1       4.414   2.494  -1.016  0.00  0.00    +0.000 A 
ATOM     23  C   UNL     1       4.239   2.953  -2.309  0.00  0.00    +0.001 A 
ATOM     24  C   UNL     1       2.984   3.324  -2.748  0.00  0.00    +0.010 A 
ENDBRANCH  17  19
ENDBRANCH   1  16
BRANCH   6  25
ATOM     25  C   UNL     1      -2.000   0.423  -1.655  0.00  0.00    +0.337 C 
ATOM     26  O   UNL     1      -2.947  -0.338  -1.719  0.00  0.00    -0.245 OA
BRANCH  25  27
ATOM     27  O   UNL     1      -0.916   0.219  -2.433  0.00  0.00    -0.465 OA
ATOM     28  C   UNL     1      -0.949  -0.910  -3.308  0.00  0.00    +0.280 C 
ENDBRANCH  25  27
ENDBRANCH   6  25
BRANCH   2  29
ATOM     29  C   UNL     1       0.249   3.813   1.179  0.00  0.00    +0.337 C 
ATOM     30  O   UNL     1       0.732   4.793   0.643  0.00  0.00    -0.245 OA
BRANCH  29  31
ATOM     31  O   UNL     1       0.826   3.296   2.285  0.00  0.00    -0.465 OA
ATOM     32  C   UNL     1       2.000   3.951   2.770  0.00  0.00    +0.280 C 
ENDBRANCH  29  31
ENDBRANCH   2  29
TORSDOF 6
