REMARK  Name = ZINC03251685
REMARK  6 active torsions:
REMARK  status: ('A' for Active; 'I' for Inactive)
REMARK    1  A    between atoms: C_3  and  C_21
REMARK    2  A    between atoms: C_5  and  C_11
REMARK    3  A    between atoms: C_16  and  O_17
REMARK    4  A    between atoms: O_17  and  C_18
REMARK    5  A    between atoms: N_23  and  C_24
REMARK    6  A    between atoms: C_29  and  C_30
REMARK                            x       y       z     vdW  Elec       q    Type
REMARK                         _______ _______ _______ _____ _____    ______ ____
ROOT
ATOM      1  C   UNL     1      -1.032  -0.683   0.441  0.00  0.00    +0.029 C 
ATOM      2  C   UNL     1      -0.006   0.016  -0.006  0.00  0.00    +0.016 C 
ATOM      3  C   UNL     1       1.240  -0.662  -0.539  0.00  0.00    +0.143 C 
ATOM      4  C   UNL     1       2.451   0.005   0.126  0.00  0.00    +0.123 C 
ATOM      5  N   UNL     1       2.332   1.458   0.008  0.00  0.00    -0.318 N 
ATOM      6  C   UNL     1       1.147   2.083  -0.015  0.00  0.00    +0.135 C 
ATOM      7  S   UNL     1       1.117   3.794  -0.057  0.00  0.00    -0.019 S 
ATOM      8  N   UNL     1      -0.022   1.415  -0.008  0.00  0.00    -0.300 N 
ATOM      9  H   UNL     1       3.141   1.989  -0.056  0.00  0.00    +0.148 HD
ATOM     10  H   UNL     1      -0.863   1.897  -0.007  0.00  0.00    +0.154 HD
ENDROOT
BRANCH   4  11
ATOM     11  C   UNL     1       2.499  -0.378   1.583  0.00  0.00    +0.016 A 
ATOM     12  C   UNL     1       1.941   0.453   2.535  0.00  0.00    +0.009 A 
ATOM     13  C   UNL     1       1.980   0.099   3.871  0.00  0.00    +0.001 A 
ATOM     14  C   UNL     1       2.588  -1.081   4.259  0.00  0.00    +0.004 A 
ATOM     15  C   UNL     1       3.152  -1.912   3.311  0.00  0.00    +0.046 A 
ATOM     16  C   UNL     1       3.109  -1.562   1.969  0.00  0.00    +0.132 A 
BRANCH  16  17
ATOM     17  O   UNL     1       3.662  -2.379   1.034  0.00  0.00    -0.434 OA
BRANCH  17  18
ATOM     18  C   UNL     1       4.273  -3.583   1.504  0.00  0.00    +0.541 C 
ATOM     19  F   UNL     1       5.310  -3.265   2.388  0.00  0.00    -0.166 F 
ATOM     20  F   UNL     1       3.318  -4.362   2.167  0.00  0.00    -0.166 F 
ENDBRANCH  17  18
ENDBRANCH  16  17
ENDBRANCH   4  11
BRANCH   3  21
ATOM     21  C   UNL     1       1.317  -0.489  -2.034  0.00  0.00    +0.228 C 
ATOM     22  O   UNL     1       2.266   0.081  -2.530  0.00  0.00    -0.275 OA
ATOM     23  N   UNL     1       0.332  -0.967  -2.819  0.00  0.00    -0.284 N 
ATOM     24  H   UNL     1      -0.386  -1.492  -2.432  0.00  0.00    +0.155 HD
BRANCH  23  25
ATOM     25  C   UNL     1       0.344  -0.706  -4.194  0.00  0.00    +0.045 A 
ATOM     26  C   UNL     1       1.011   0.410  -4.685  0.00  0.00    +0.024 A 
ATOM     27  C   UNL     1       1.021   0.665  -6.042  0.00  0.00    +0.002 A 
ATOM     28  C   UNL     1       0.369  -0.190  -6.912  0.00  0.00    +0.001 A 
ATOM     29  C   UNL     1      -0.295  -1.301  -6.427  0.00  0.00    +0.014 A 
ATOM     30  C   UNL     1      -0.304  -1.565  -5.071  0.00  0.00    +0.076 A 
BRANCH  30  31
ATOM     31  C   UNL     1      -1.023  -2.780  -4.544  0.00  0.00    +0.419 C 
ATOM     32  F   UNL     1      -1.594  -3.483  -5.610  0.00  0.00    -0.166 F 
ATOM     33  F   UNL     1      -0.113  -3.605  -3.874  0.00  0.00    -0.166 F 
ATOM     34  F   UNL     1      -2.029  -2.379  -3.658  0.00  0.00    -0.166 F 
ENDBRANCH  30  31
ENDBRANCH  23  25
ENDBRANCH   3  21
TORSDOF 6
