REMARK  Name = ZINC16010348
REMARK  4 active torsions:
REMARK  status: ('A' for Active; 'I' for Inactive)
REMARK    1  A    between atoms: C_1  and  C_2
REMARK    2  A    between atoms: C_2  and  C_3
REMARK    3  A    between atoms: N_25  and  C_28
REMARK    4  A    between atoms: C_33  and  C_34
REMARK                            x       y       z     vdW  Elec       q    Type
REMARK                         _______ _______ _______ _____ _____    ______ ____
ROOT
ATOM      1  C   UNL     1      -5.788   3.329   1.291  0.00  0.00    -0.026 A 
ATOM      2  C   UNL     1      -5.945   4.056   0.129  0.00  0.00    +0.005 A 
ATOM      3  C   UNL     1      -4.853   4.338  -0.672  0.00  0.00    +0.001 A 
ATOM      4  C   UNL     1      -3.596   3.888  -0.306  0.00  0.00    +0.004 A 
ATOM      5  C   UNL     1      -3.436   3.163   0.853  0.00  0.00    -0.027 A 
ATOM      6  C   UNL     1      -4.527   2.873   1.667  0.00  0.00    +0.039 A 
ATOM      7  N   UNL     1      -4.118   2.131   2.777  0.00  0.00    -0.286 N 
ATOM      8  C   UNL     1      -2.792   1.895   2.769  0.00  0.00    +0.212 C 
ATOM      9  O   UNL     1      -2.161   1.279   3.603  0.00  0.00    -0.277 OA
ATOM     10  C   UNL     1      -2.243   2.542   1.527  0.00  0.00    +0.053 C 
ATOM     11  C   UNL     1      -1.183   3.596   1.866  0.00  0.00    +0.089 C 
ATOM     12  C   UNL     1       0.175   2.876   1.641  0.00  0.00    +0.074 C 
ATOM     13  C   UNL     1      -0.193   1.451   1.191  0.00  0.00    -0.054 C 
ATOM     14  N   UNL     1      -1.585   1.557   0.652  0.00  0.00    +0.395 N 
ATOM     15  C   UNL     1      -1.419   2.123  -0.708  0.00  0.00    -0.076 C 
ATOM     16  C   UNL     1      -0.133   1.477  -1.262  0.00  0.00    -0.020 C 
ATOM     17  C   UNL     1       0.674   1.056  -0.018  0.00  0.00    -0.016 C 
ATOM     18  C   UNL     1       0.770   3.646   0.464  0.00  0.00    +0.228 C 
ATOM     19  O   UNL     1       1.840   3.412  -0.054  0.00  0.00    -0.275 OA
ATOM     20  N   UNL     1      -0.069   4.623   0.099  0.00  0.00    -0.209 N 
ATOM     21  C   UNL     1      -1.195   4.686   0.819  0.00  0.00    +0.229 C 
ATOM     22  O   UNL     1      -2.086   5.492   0.657  0.00  0.00    -0.275 OA
ATOM     23  H   UNL     1      -4.855   1.813   3.528  0.00  0.00    +0.155 HD
ATOM     24  H   UNL     1      -2.165   0.624   0.617  0.00  0.00    -0.079 HD
ENDROOT
BRANCH  20  25
ATOM     25  C   UNL     1       0.209   5.507  -0.953  0.00  0.00    +0.056 A 
ATOM     26  C   UNL     1      -0.189   5.197  -2.246  0.00  0.00    +0.024 A 
ATOM     27  C   UNL     1       0.082   6.072  -3.280  0.00  0.00    +0.002 A 
ATOM     28  C   UNL     1       0.759   7.252  -3.029  0.00  0.00    +0.001 A 
ATOM     29  C   UNL     1       1.161   7.561  -1.743  0.00  0.00    +0.014 A 
ATOM     30  C   UNL     1       0.888   6.692  -0.704  0.00  0.00    +0.077 A 
BRANCH  30  31
ATOM     31  C   UNL     1       1.328   7.030   0.697  0.00  0.00    +0.419 C 
ATOM     32  F   UNL     1       1.981   8.267   0.696  0.00  0.00    -0.166 F 
ATOM     33  F   UNL     1       0.208   7.094   1.534  0.00  0.00    -0.166 F 
ATOM     34  F   UNL     1       2.202   6.042   1.163  0.00  0.00    -0.166 F 
ENDBRANCH  30  31
ENDBRANCH  20  25
BRANCH   1  36
ATOM     35  C   UNL     1      -7.094   4.079   3.260  0.00  0.00    +0.009 C 
ATOM     36  C   UNL     1      -6.984   3.027   2.155  0.00  0.00    +0.033 C 
ENDBRANCH   1  36
TORSDOF 3
