REMARK  Name = ZINC39440968
REMARK  7 active torsions:
REMARK  status: ('A' for Active; 'I' for Inactive)
REMARK    1  A    between atoms: C_1  and  C_2
REMARK    2  A    between atoms: C_6  and  N_9
REMARK    3  A    between atoms: C_7  and  C_8
REMARK    4  A    between atoms: C_13  and  S_15
REMARK    5  A    between atoms: S_15  and  C_16
REMARK    6  A    between atoms: C_16  and  C_18
REMARK    7  A    between atoms: C_16  and  C_19
REMARK                            x       y       z     vdW  Elec       q    Type
REMARK                         _______ _______ _______ _____ _____    ______ ____
ROOT
ATOM      1  S   UNL     1      -0.319  -8.574   3.503  0.00  0.00    -0.084 S 
ENDROOT
BRANCH   1   6
ATOM      2  N   UNL     1       0.503  -2.871   2.862  0.00  0.00    -0.292 N 
ATOM      3  C   UNL     1       0.335  -4.248   2.773  0.00  0.00    +0.187 A 
ATOM      4  N   UNL     1       0.362  -5.026   1.709  0.00  0.00    -0.125 NA
ATOM      5  N   UNL     1       0.168  -6.381   1.846  0.00  0.00    -0.133 NA
ATOM      6  C   UNL     1      -0.043  -6.896   3.042  0.00  0.00    +0.161 A 
ATOM      7  S   UNL     1       0.030  -5.438   4.071  0.00  0.00    -0.024 S 
ATOM      8  H   UNL     1       0.535  -2.441   3.731  0.00  0.00    +0.154 HD
BRANCH   2  14
ATOM      9  C   UNL     1       0.824   1.538   0.714  0.00  0.00    +0.044 C 
ATOM     10  C   UNL     1       0.786   0.034   0.629  0.00  0.00    -0.046 A 
ATOM     11  C   UNL     1       0.875  -0.591  -0.602  0.00  0.00    +0.004 A 
ATOM     12  C   UNL     1       0.840  -1.970  -0.685  0.00  0.00    +0.002 A 
ATOM     13  C   UNL     1       0.717  -2.730   0.462  0.00  0.00    +0.023 A 
ATOM     14  C   UNL     1       0.628  -2.106   1.700  0.00  0.00    +0.036 A 
ATOM     15  C   UNL     1       0.669  -0.719   1.780  0.00  0.00    -0.026 A 
ATOM     16  C   UNL     1       0.579  -0.038   3.121  0.00  0.00    +0.046 C 
ENDBRANCH   2  14
ENDBRANCH   1   6
BRANCH   1  17
ATOM     17  C   UNL     1      -0.247  -9.478   1.932  0.00  0.00    +0.136 C 
ATOM     18  C   UNL     1      -1.410  -9.041   1.039  0.00  0.00    +0.029 C 
BRANCH  17  19
ATOM     19  C   UNL     1      -0.348 -10.958   2.199  0.00  0.00    +0.230 C 
ATOM     20  O   UNL     1      -0.892 -11.357   3.206  0.00  0.00    -0.274 OA
ATOM     21  N   UNL     1       0.168 -11.838   1.318  0.00  0.00    -0.285 N 
ATOM     22  C   UNL     1       1.058 -12.727   1.717  0.00  0.00    +0.036 C 
ATOM     23  C   UNL     1       1.580 -12.677   3.088  0.00  0.00    +0.025 C 
ATOM     24  C   UNL     1       2.489 -13.582   3.502  0.00  0.00    +0.032 C 
ATOM     25  C   UNL     1       2.961 -14.623   2.585  0.00  0.00    +0.095 C 
ATOM     26  N   UNL     1       3.818 -15.620   2.689  0.00  0.00    -0.190 NA
ATOM     27  C   UNL     1       3.876 -16.279   1.519  0.00  0.00    +0.369 C 
ATOM     28  O   UNL     1       4.662 -17.358   1.290  0.00  0.00    -0.243 OA
ATOM     29  N   UNL     1       3.074 -15.746   0.627  0.00  0.00    -0.190 NA
ATOM     30  C   UNL     1       2.443 -14.683   1.205  0.00  0.00    +0.097 C 
ATOM     31  C   UNL     1       1.523 -13.777   0.785  0.00  0.00    +0.053 C 
ATOM     32  H   UNL     1      -0.115 -11.818   0.390  0.00  0.00    +0.155 HD
ENDBRANCH  17  19
ENDBRANCH   1  17
TORSDOF 4
