REMARK  Name = ZINC65531637
REMARK  5 active torsions:
REMARK  status: ('A' for Active; 'I' for Inactive)
REMARK    1  A    between atoms: C_1  and  O_2
REMARK    2  A    between atoms: O_2  and  C_3
REMARK    3  A    between atoms: C_3  and  C_5
REMARK    4  A    between atoms: C_15  and  C_17
REMARK    5  A    between atoms: C_20  and  C_22
REMARK                            x       y       z     vdW  Elec       q    Type
REMARK                         _______ _______ _______ _____ _____    ______ ____
ROOT
ATOM      1  C   UNL     1       1.797  -2.628  -0.950  0.00  0.00    +0.169 A 
ATOM      2  C   UNL     1       2.098  -3.374  -2.118  0.00  0.00    +0.061 A 
ATOM      3  C   UNL     1       1.718  -4.631  -1.836  0.00  0.00    +0.057 A 
ATOM      4  N   UNL     1       1.199  -4.646  -0.590  0.00  0.00    -0.266 N 
ATOM      5  N   UNL     1       1.275  -3.470  -0.078  0.00  0.00    -0.164 NA
ATOM      6  C   UNL     1       0.620  -5.840   0.053  0.00  0.00    +0.145 C 
ATOM      7  C   UNL     1      -0.634  -6.235  -0.736  0.00  0.00    +0.042 C 
ATOM      8  C   UNL     1      -0.273  -7.063  -1.954  0.00  0.00    +0.110 C 
ATOM      9  N   UNL     1       0.462  -6.335  -2.975  0.00  0.00    -0.291 N 
ATOM     10  C   UNL     1       1.833  -5.862  -2.717  0.00  0.00    +0.163 C 
ATOM     11  C   UNL     1      -0.116  -6.091  -4.168  0.00  0.00    +0.254 C 
ATOM     12  O   UNL     1      -1.197  -6.583  -4.433  0.00  0.00    -0.269 OA
ENDROOT
BRANCH  11  13
ATOM     13  C   UNL     1       0.557  -5.232  -5.146  0.00  0.00    +0.074 A 
ATOM     14  C   UNL     1       0.219  -4.980  -6.467  0.00  0.00    +0.021 A 
ATOM     15  C   UNL     1       1.052  -4.121  -7.143  0.00  0.00    +0.010 A 
ATOM     16  C   UNL     1       2.118  -3.590  -6.495  0.00  0.00    -0.023 A 
ATOM     17  S   UNL     1       2.021  -4.234  -4.947  0.00  0.00    -0.090 S 
BRANCH  16  18
ATOM     18  C   UNL     1       3.150  -2.636  -7.038  0.00  0.00    -0.034 C 
ATOM     19  C   UNL     1       4.445  -3.402  -7.380  0.00  0.00    -0.013 C 
ATOM     20  C   UNL     1       5.561  -2.414  -6.948  0.00  0.00    -0.020 C 
ATOM     21  C   UNL     1       4.931  -1.762  -5.692  0.00  0.00    -0.082 C 
ATOM     22  N   UNL     1       3.491  -1.631  -6.015  0.00  0.00    +0.384 N 
ATOM     23  H   UNL     1       3.304  -0.706  -6.372  0.00  0.00    -0.085 HD
ATOM     24  H   UNL     1       2.940  -1.791  -5.184  0.00  0.00    -0.085 HD
ENDBRANCH  16  18
ENDBRANCH  11  13
BRANCH   1  25
ATOM     25  C   UNL     1       2.030  -1.185  -0.746  0.00  0.00    +0.359 C 
ATOM     26  O   UNL     1       2.522  -0.517  -1.635  0.00  0.00    -0.243 OA
BRANCH  25  28
ATOM     27  C   UNL     1       1.952   0.793   0.553  0.00  0.00    +0.280 C 
ATOM     28  O   UNL     1       1.698  -0.608   0.425  0.00  0.00    -0.463 OA
ENDBRANCH  25  28
ENDBRANCH   1  25
TORSDOF 4
