REMARK  Name = ZINC24091849
REMARK  6 active torsions:
REMARK  status: ('A' for Active; 'I' for Inactive)
REMARK    1  A    between atoms: C_1  and  C_2
REMARK    2  A    between atoms: C_15  and  C_17
REMARK    3  A    between atoms: C_17  and  O_18
REMARK    4  A    between atoms: O_18  and  C_19
REMARK    5  A    between atoms: C_19  and  C_21
REMARK    6  A    between atoms: C_21  and  C_22
REMARK                            x       y       z     vdW  Elec       q    Type
REMARK                         _______ _______ _______ _____ _____    ______ ____
ROOT
ATOM      1  C   UNL     1       4.790   4.313   2.525  0.00  0.00    +0.328 C 
ENDROOT
BRANCH   1  15
ATOM      2  C   UNL     1       8.190   4.642   5.652  0.00  0.00    +0.029 C 
ATOM      3  C   UNL     1       6.968   5.536   5.430  0.00  0.00    +0.087 C 
ATOM      4  C   UNL     1       7.379   7.003   5.576  0.00  0.00    +0.118 C 
ATOM      5  C   UNL     1       6.321   7.898   4.986  0.00  0.00    +0.219 C 
ATOM      6  O   UNL     1       5.575   8.511   5.719  0.00  0.00    -0.275 OA
ATOM      7  N   UNL     1       6.197   8.023   3.646  0.00  0.00    -0.284 N 
ATOM      8  C   UNL     1       6.990   7.256   2.784  0.00  0.00    +0.055 A 
ATOM      9  C   UNL     1       7.670   7.844   1.730  0.00  0.00    +0.025 A 
ATOM     10  C   UNL     1       8.421   7.060   0.874  0.00  0.00    +0.002 A 
ATOM     11  C   UNL     1       8.494   5.692   1.066  0.00  0.00    +0.002 A 
ATOM     12  C   UNL     1       7.829   5.100   2.124  0.00  0.00    +0.025 A 
ATOM     13  C   UNL     1       7.088   5.876   2.993  0.00  0.00    +0.058 A 
ATOM     14  N   UNL     1       6.431   5.302   4.090  0.00  0.00    -0.264 N 
ATOM     15  C   UNL     1       5.330   4.544   3.912  0.00  0.00    +0.258 C 
ATOM     16  O   UNL     1       4.774   4.049   4.870  0.00  0.00    -0.271 OA
ATOM     17  H   UNL     1       5.469   8.731   3.224  0.00  0.00    +0.155 HD
ENDBRANCH   1  15
BRANCH   1  18
ATOM     18  O   UNL     1       3.609   3.472   2.599  0.00  0.00    -0.455 OA
BRANCH  18  19
ATOM     19  C   UNL     1       3.003   3.169   1.440  0.00  0.00    +0.312 C 
ATOM     20  O   UNL     1       3.445   3.593   0.398  0.00  0.00    -0.251 OA
BRANCH  19  21
ATOM     21  C   UNL     1       1.772   2.300   1.439  0.00  0.00    +0.174 C 
BRANCH  21  22
ATOM     22  C   UNL     1       1.283   2.111   0.001  0.00  0.00    +0.269 C 
ATOM     23  C   UNL     1      -0.016   1.345   0.009  0.00  0.00    +0.259 C 
ATOM     24  O   UNL     1      -1.073   1.940   0.018  0.00  0.00    -0.271 OA
ATOM     25  N   UNL     1       0.002  -0.004   0.002  0.00  0.00    -0.280 N 
ATOM     26  C   UNL     1       1.227  -0.671  -0.133  0.00  0.00    +0.076 A 
ATOM     27  C   UNL     1       1.312  -2.039   0.069  0.00  0.00    +0.027 A 
ATOM     28  C   UNL     1       2.531  -2.680  -0.060  0.00  0.00    +0.002 A 
ATOM     29  C   UNL     1       3.662  -1.960  -0.397  0.00  0.00    +0.004 A 
ATOM     30  C   UNL     1       3.581  -0.597  -0.616  0.00  0.00    +0.047 A 
ATOM     31  C   UNL     1       2.364   0.050  -0.494  0.00  0.00    +0.143 A 
ATOM     32  O   UNL     1       2.264   1.384  -0.743  0.00  0.00    -0.477 OA
ATOM     33  H   UNL     1      -0.938  -0.567   0.101  0.00  0.00    +0.155 HD
ENDBRANCH  21  22
ENDBRANCH  19  21
ENDBRANCH  18  19
ENDBRANCH   1  18
TORSDOF 5
