REMARK  Name = ZINC00664409
REMARK  5 active torsions:
REMARK  status: ('A' for Active; 'I' for Inactive)
REMARK    1  A    between atoms: C_1  and  C_2
REMARK    2  A    between atoms: C_5  and  C_8
REMARK    3  A    between atoms: C_15  and  N_27
REMARK    4  A    between atoms: C_16  and  C_25
REMARK    5  A    between atoms: C_17  and  C_19
REMARK                            x       y       z     vdW  Elec       q    Type
REMARK                         _______ _______ _______ _____ _____    ______ ____
ROOT
ATOM      1  C   UNL     1       0.056  -4.247  -0.022  0.00  0.00    +0.074 A 
ATOM      2  C   UNL     1      -0.632  -5.067   0.809  0.00  0.00    +0.054 A 
ATOM      3  C   UNL     1      -0.330  -6.398   0.460  0.00  0.00    +0.245 A 
ATOM      4  N   UNL     1       0.506  -6.380  -0.539  0.00  0.00    -0.135 NA
ATOM      5  N   UNL     1       0.769  -5.042  -0.875  0.00  0.00    -0.273 N 
ATOM      6  H   UNL     1       1.355  -4.736  -1.584  0.00  0.00    +0.189 HD
ATOM      7  O   UNL     1      -0.876  -7.457   1.117  0.00  0.00    -0.421 OA
ATOM      8  C   UNL     1      -1.920  -7.211   1.933  0.00  0.00    +0.201 C 
ATOM      9  C   UNL     1      -2.296  -5.981   2.343  0.00  0.00    +0.099 C 
ATOM     10  C   UNL     1      -1.575  -4.722   1.933  0.00  0.00    +0.108 C 
ENDROOT
BRANCH   1  15
ATOM     11  C   UNL     1      -0.028   1.508   0.018  0.00  0.00    +0.044 C 
ATOM     12  C   UNL     1      -0.006   0.001   0.007  0.00  0.00    -0.050 A 
ATOM     13  C   UNL     1      -1.194  -0.706   0.070  0.00  0.00    +0.004 A 
ATOM     14  C   UNL     1      -1.180  -2.086   0.061  0.00  0.00    +0.010 A 
ATOM     15  C   UNL     1       0.034  -2.768  -0.012  0.00  0.00    +0.000 A 
ATOM     16  C   UNL     1       1.229  -2.050  -0.075  0.00  0.00    +0.010 A 
ATOM     17  C   UNL     1       1.202  -0.670  -0.071  0.00  0.00    +0.004 A 
ENDBRANCH   1  15
BRANCH  10  18
ATOM     18  C   UNL     1      -0.795  -4.178   3.102  0.00  0.00    +0.004 A 
ATOM     19  C   UNL     1      -0.953  -3.005   3.762  0.00  0.00    +0.013 A 
ATOM     20  C   UNL     1      -0.111  -2.711   4.818  0.00  0.00    +0.023 A 
ATOM     21  C   UNL     1       0.848  -3.606   5.163  0.00  0.00    +0.055 A 
ATOM     22  S   UNL     1       0.572  -4.916   3.982  0.00  0.00    -0.085 S 
ATOM     23 BR   UNL     1       2.137  -3.498   6.542  0.00  0.00    -0.043 Br
ENDBRANCH  10  18
BRANCH   8  24
ATOM     24  N   UNL     1      -2.651  -8.284   2.376  0.00  0.00    -0.328 N 
ATOM     25  H   UNL     1      -2.409  -9.182   2.101  0.00  0.00    +0.145 HD
ATOM     26  H   UNL     1      -3.409  -8.145   2.965  0.00  0.00    +0.145 HD
ENDBRANCH   8  24
BRANCH   9  27
ATOM     27  C   UNL     1      -3.432  -5.868   3.208  0.00  0.00    +0.101 C 
ATOM     28  N   UNL     1      -4.333  -5.777   3.894  0.00  0.00    -0.191 NA
ENDBRANCH   9  27
TORSDOF 4
