REMARK  Name = ZINC02928991
REMARK  10 active torsions:
REMARK  status: ('A' for Active; 'I' for Inactive)
REMARK    1  A    between atoms: C_1  and  C_2
REMARK    2  A    between atoms: C_12  and  C_14
REMARK    3  A    between atoms: C_14  and  C_16
REMARK    4  A    between atoms: C_14  and  N_20
REMARK    5  A    between atoms: C_16  and  C_17
REMARK    6  A    between atoms: C_17  and  S_18
REMARK    7  A    between atoms: S_18  and  C_19
REMARK    8  A    between atoms: N_20  and  S_21
REMARK    9  A    between atoms: S_21  and  C_24
REMARK   10  A    between atoms: N_33  and  C_34
REMARK                            x       y       z     vdW  Elec       q    Type
REMARK                         _______ _______ _______ _____ _____    ______ ____
ROOT
ATOM      1  C   UNL     1      -0.938  -0.178   2.501  0.00  0.00    +0.163 C 
ENDROOT
BRANCH   1  13
ATOM      2  C   UNL     1      -2.677  -6.413  10.159  0.00  0.00    +0.044 C 
ATOM      3  C   UNL     1      -2.308  -5.560   8.973  0.00  0.00    -0.049 A 
ATOM      4  C   UNL     1      -1.235  -5.908   8.166  0.00  0.00    +0.005 A 
ATOM      5  C   UNL     1      -0.878  -5.150   7.082  0.00  0.00    +0.029 A 
ATOM      6  C   UNL     1      -1.600  -3.979   6.750  0.00  0.00    +0.080 A 
ATOM      7  C   UNL     1      -2.686  -3.656   7.594  0.00  0.00    +0.041 A 
ATOM      8  C   UNL     1      -3.036  -4.421   8.678  0.00  0.00    +0.020 A 
ATOM      9  S   UNL     1      -3.302  -2.159   6.861  0.00  0.00    -0.052 S 
ATOM     10  C   UNL     1      -2.125  -2.066   5.518  0.00  0.00    +0.165 A 
ATOM     11  N   UNL     1      -1.381  -3.128   5.724  0.00  0.00    -0.225 NA
ATOM     12  N   UNL     1      -2.021  -1.113   4.519  0.00  0.00    -0.263 N 
ATOM     13  C   UNL     1      -1.051  -1.215   3.589  0.00  0.00    +0.237 C 
ATOM     14  O   UNL     1      -0.269  -2.141   3.627  0.00  0.00    -0.274 OA
ATOM     15  H   UNL     1      -2.647  -0.372   4.488  0.00  0.00    +0.157 HD
ENDBRANCH   1  13
BRANCH   1  16
ATOM     16  N   UNL     1       0.188  -0.511   1.624  0.00  0.00    -0.178 NA
ATOM     17  H   UNL     1       1.087  -0.237   1.863  0.00  0.00    +0.149 HD
BRANCH  16  18
ATOM     18  S   UNL     1      -0.076  -1.357   0.225  0.00  0.00    +0.059 S 
ATOM     19  O   UNL     1      -0.852  -2.494   0.577  0.00  0.00    -0.153 OA
ATOM     20  O   UNL     1       1.182  -1.466  -0.427  0.00  0.00    -0.153 OA
BRANCH  18  21
ATOM     21  C   UNL     1      -1.093  -0.354  -0.807  0.00  0.00    +0.109 A 
ATOM     22  C   UNL     1      -0.515   0.612  -1.613  0.00  0.00    +0.031 A 
ATOM     23  C   UNL     1      -1.306   1.403  -2.424  0.00  0.00    +0.031 A 
ATOM     24  C   UNL     1      -2.681   1.227  -2.430  0.00  0.00    +0.090 A 
ATOM     25  C   UNL     1      -3.263   0.254  -1.618  0.00  0.00    +0.159 A 
ATOM     26  C   UNL     1      -2.461  -0.539  -0.811  0.00  0.00    +0.077 A 
ATOM     27  O   UNL     1      -4.602   0.305  -1.825  0.00  0.00    -0.407 OA
ATOM     28  C   UNL     1      -4.872   1.263  -2.726  0.00  0.00    +0.421 A 
ATOM     29  O   UNL     1      -5.982   1.558  -3.126  0.00  0.00    -0.223 OA
ATOM     30  N   UNL     1      -3.723   1.848  -3.118  0.00  0.00    -0.277 N 
ATOM     31  C   UNL     1      -3.592   2.938  -4.088  0.00  0.00    +0.156 C 
ENDBRANCH  18  21
ENDBRANCH  16  18
ENDBRANCH   1  16
BRANCH   1  32
ATOM     32  C   UNL     1      -0.704   1.197   3.130  0.00  0.00    +0.040 C 
BRANCH  32  33
ATOM     33  C   UNL     1      -0.724   2.268   2.037  0.00  0.00    +0.071 C 
BRANCH  33  34
ATOM     34  S   UNL     1      -0.316   3.880   2.762  0.00  0.00    -0.164 S 
ATOM     35  C   UNL     1      -0.529   5.045   1.388  0.00  0.00    +0.084 C 
ENDBRANCH  33  34
ENDBRANCH  32  33
ENDBRANCH   1  32
TORSDOF 7
