REMARK  Name = ZINC63531200
REMARK  9 active torsions:
REMARK  status: ('A' for Active; 'I' for Inactive)
REMARK    1  A    between atoms: C_1  and  C_2
REMARK    2  A    between atoms: C_5  and  S_8
REMARK    3  A    between atoms: S_8  and  C_9
REMARK    4  A    between atoms: C_13  and  O_30
REMARK    5  A    between atoms: C_17  and  C_19
REMARK    6  A    between atoms: N_21  and  C_22
REMARK    7  A    between atoms: C_22  and  C_23
REMARK    8  A    between atoms: C_23  and  C_24
REMARK    9  A    between atoms: O_30  and  C_31
REMARK                            x       y       z     vdW  Elec       q    Type
REMARK                         _______ _______ _______ _____ _____    ______ ____
ROOT
ATOM      1  C   UNL     1       0.008  -5.060   1.550  0.00  0.00    +0.030 C 
ATOM      2  C   UNL     1      -0.113  -4.279   2.692  0.00  0.00    +0.010 A 
ATOM      3  C   UNL     1      -0.221  -2.882   2.883  0.00  0.00    +0.014 A 
ATOM      4  C   UNL     1      -0.329  -2.380   4.138  0.00  0.00    +0.046 A 
ATOM      5  C   UNL     1      -0.336  -3.216   5.263  0.00  0.00    +0.122 A 
ATOM      6  C   UNL     1      -0.236  -4.571   5.149  0.00  0.00    +0.071 A 
ATOM      7  C   UNL     1      -0.121  -5.162   3.869  0.00  0.00    +0.048 A 
ATOM      8  N   UNL     1      -0.012  -6.426   3.498  0.00  0.00    -0.369 N 
ATOM      9  C   UNL     1       0.072  -6.491   2.036  0.00  0.00    +0.204 C 
ATOM     10  H   UNL     1       0.006  -7.188   4.098  0.00  0.00    +0.161 HD
ENDROOT
BRANCH   9  11
ATOM     11  C   UNL     1      -1.086  -7.279   1.482  0.00  0.00    +0.240 C 
ATOM     12  O   UNL     1      -2.062  -7.491   2.171  0.00  0.00    -0.273 OA
ATOM     13  N   UNL     1      -1.038  -7.750   0.220  0.00  0.00    -0.313 N 
ATOM     14  H   UNL     1      -0.259  -7.581  -0.332  0.00  0.00    +0.149 HD
BRANCH  13  15
ATOM     15  C   UNL     1      -2.164  -8.517  -0.319  0.00  0.00    +0.109 C 
BRANCH  15  16
ATOM     16  C   UNL     1      -1.857  -8.930  -1.760  0.00  0.00    +0.054 C 
BRANCH  16  17
ATOM     17  C   UNL     1      -3.015  -9.718  -2.315  0.00  0.00    -0.046 A 
ATOM     18  C   UNL     1      -3.050 -11.092  -2.167  0.00  0.00    +0.004 A 
ATOM     19  C   UNL     1      -4.112 -11.816  -2.676  0.00  0.00    +0.000 A 
ATOM     20  C   UNL     1      -5.141 -11.165  -3.332  0.00  0.00    +0.000 A 
ATOM     21  C   UNL     1      -5.107  -9.791  -3.478  0.00  0.00    +0.000 A 
ATOM     22  C   UNL     1      -4.046  -9.067  -2.966  0.00  0.00    +0.004 A 
ENDBRANCH  16  17
ENDBRANCH  15  16
ENDBRANCH  13  15
ENDBRANCH   9  11
BRANCH   5  23
ATOM     23  O   UNL     1      -0.446  -2.663   6.497  0.00  0.00    -0.495 OA
ATOM     24  C   UNL     1      -0.547  -1.239   6.563  0.00  0.00    +0.277 C 
ENDBRANCH   5  23
BRANCH   1  25
ATOM     25  S   UNL     1       0.063  -4.533  -0.023  0.00  0.00    -0.091 S 
BRANCH  25  30
ATOM     26  C   UNL     1       5.714  -5.739  -1.769  0.00  0.00    +0.044 C 
ATOM     27  C   UNL     1       4.303  -5.438  -1.333  0.00  0.00    -0.050 A 
ATOM     28  C   UNL     1       3.385  -4.962  -2.251  0.00  0.00    +0.004 A 
ATOM     29  C   UNL     1       2.091  -4.685  -1.855  0.00  0.00    +0.015 A 
ATOM     30  C   UNL     1       1.713  -4.886  -0.533  0.00  0.00    +0.013 A 
ATOM     31  C   UNL     1       2.638  -5.365   0.386  0.00  0.00    +0.015 A 
ATOM     32  C   UNL     1       3.929  -5.644  -0.018  0.00  0.00    +0.004 A 
ENDBRANCH  25  30
ENDBRANCH   1  25
TORSDOF 7
