REMARK  Name = ZINC09503464
REMARK  5 active torsions:
REMARK  status: ('A' for Active; 'I' for Inactive)
REMARK    1  A    between atoms: C_1  and  C_2
REMARK    2  A    between atoms: C_8  and  C_14
REMARK    3  A    between atoms: C_11  and  C_13
REMARK    4  A    between atoms: N_16  and  N_17
REMARK    5  A    between atoms: C_18  and  C_20
REMARK                            x       y       z     vdW  Elec       q    Type
REMARK                         _______ _______ _______ _____ _____    ______ ____
ROOT
ATOM      1  C   UNL     1       0.414   0.715   5.412  0.00  0.00    +0.264 C 
ATOM      2  O   UNL     1       0.559  -0.269   4.712  0.00  0.00    -0.269 OA
ATOM      3  N   UNL     1       0.595   0.626   6.744  0.00  0.00    -0.230 N 
ATOM      4  H   UNL     1       0.479   1.411   7.303  0.00  0.00    +0.173 HD
ENDROOT
BRANCH   1  11
ATOM      5  C   UNL     1       0.567   3.661   0.624  0.00  0.00    +0.016 C 
ATOM      6  C   UNL     1      -0.654   3.121   1.371  0.00  0.00    +0.060 C 
ATOM      7  C   UNL     1      -0.508   3.325   2.867  0.00  0.00    +0.001 A 
ATOM      8  C   UNL     1      -0.667   4.434   3.668  0.00  0.00    +0.007 A 
ATOM      9  C   UNL     1      -0.478   4.341   5.038  0.00  0.00    +0.001 A 
ATOM     10  C   UNL     1      -0.128   3.134   5.604  0.00  0.00    +0.017 A 
ATOM     11  C   UNL     1       0.040   2.006   4.802  0.00  0.00    +0.080 A 
ATOM     12  C   UNL     1      -0.150   2.099   3.411  0.00  0.00    +0.137 A 
ATOM     13  O   UNL     1      -0.036   1.146   2.450  0.00  0.00    -0.487 OA
ATOM     14  C   UNL     1      -0.729   1.579   1.267  0.00  0.00    +0.178 C 
ATOM     15  C   UNL     1      -0.013   1.086   0.008  0.00  0.00    +0.052 C 
ENDBRANCH   1  11
BRANCH   3  16
ATOM     16  N   UNL     1       0.950  -0.599   7.323  0.00  0.00    -0.229 N 
ATOM     17  C   UNL     1       1.131  -0.688   8.656  0.00  0.00    +0.276 C 
ATOM     18  O   UNL     1       0.986   0.297   9.356  0.00  0.00    -0.267 OA
ATOM     19  H   UNL     1       1.066  -1.384   6.765  0.00  0.00    +0.173 HD
BRANCH  17  20
ATOM     20  C   UNL     1       1.503  -1.970   9.261  0.00  0.00    +0.103 A 
ATOM     21  C   UNL     1       1.725  -2.205  10.602  0.00  0.00    +0.032 A 
ATOM     22  C   UNL     1       2.050  -3.558  10.734  0.00  0.00    +0.020 A 
ATOM     23  C   UNL     1       2.031  -4.113   9.498  0.00  0.00    +0.083 A 
ATOM     24  N   UNL     1       1.700  -3.159   8.595  0.00  0.00    -0.357 N 
ATOM     25  H   UNL     1       1.615  -3.291   7.638  0.00  0.00    +0.165 HD
ENDBRANCH  17  20
ENDBRANCH   3  16
TORSDOF 3
