REMARK  Name = ZINC12420384
REMARK  11 active torsions:
REMARK  status: ('A' for Active; 'I' for Inactive)
REMARK    1  A    between atoms: C_1  and  C_2
REMARK    2  A    between atoms: C_2  and  C_24
REMARK    3  A    between atoms: C_4  and  O_23
REMARK    4  A    between atoms: C_6  and  C_21
REMARK    5  A    between atoms: C_6  and  C_22
REMARK    6  A    between atoms: C_7  and  C_8
REMARK    7  A    between atoms: C_7  and  N_51
REMARK    8  A    between atoms: C_8  and  C_10
REMARK    9  A    between atoms: C_8  and  O_20
REMARK   10  A    between atoms: C_10  and  O_11
REMARK   11  A    between atoms: O_11  and  C_12
REMARK                            x       y       z     vdW  Elec       q    Type
REMARK                         _______ _______ _______ _____ _____    ______ ____
ROOT
ATOM      1  C   UNL     1       4.466  -2.811   0.633  0.00  0.00    -0.042 C 
ENDROOT
BRANCH   1  11
ATOM      2  C   UNL     1       4.560  -2.152  -2.124  0.00  0.00    -0.010 C 
ATOM      3  C   UNL     1       5.827  -2.169  -1.262  0.00  0.00    -0.068 C 
ATOM      4  C   UNL     1       7.036  -2.491  -2.138  0.00  0.00    +0.019 C 
ATOM      5  C   UNL     1       7.054  -3.977  -2.494  0.00  0.00    +0.112 C 
ATOM      6  C   UNL     1       7.136  -4.786  -1.200  0.00  0.00    +0.019 C 
ATOM      7  C   UNL     1       5.930  -4.491  -0.312  0.00  0.00    -0.068 C 
ATOM      8  C   UNL     1       6.216  -5.102   1.078  0.00  0.00    -0.010 C 
ATOM      9  C   UNL     1       4.693  -5.203  -0.873  0.00  0.00    -0.010 C 
ATOM     10  C   UNL     1       6.022  -0.741  -0.707  0.00  0.00    -0.010 C 
ATOM     11  N   UNL     1       5.742  -3.037  -0.042  0.00  0.00    +0.388 N 
ATOM     12  H   UNL     1       6.495  -2.746   0.593  0.00  0.00    -0.080 HD
BRANCH   5  13
ATOM     13  O   UNL     1       8.207  -4.255  -3.298  0.00  0.00    -0.392 OA
ATOM     14  H   UNL     1       8.225  -3.776  -4.138  0.00  0.00    +0.210 HD
ENDBRANCH   5  13
ENDBRANCH   1  11
BRANCH   1  15
ATOM     15  C   UNL     1       4.146  -1.316   0.588  0.00  0.00    +0.135 C 
BRANCH  15  16
ATOM     16  O   UNL     1       5.250  -0.576   1.114  0.00  0.00    -0.390 OA
ATOM     17  H   UNL     1       5.468  -0.794   2.031  0.00  0.00    +0.210 HD
ENDBRANCH  15  16
BRANCH  15  18
ATOM     18  C   UNL     1       2.898  -1.036   1.428  0.00  0.00    +0.258 C 
BRANCH  18  19
ATOM     19  O   UNL     1       2.531   0.339   1.292  0.00  0.00    -0.488 OA
BRANCH  19  20
ATOM     20  C   UNL     1       1.435   0.756   1.980  0.00  0.00    +0.135 A 
ATOM     21  C   UNL     1       0.727  -0.140   2.768  0.00  0.00    +0.048 A 
ATOM     22  C   UNL     1      -0.390   0.284   3.461  0.00  0.00    +0.019 A 
ATOM     23  C   UNL     1      -0.798   1.604   3.378  0.00  0.00    +0.019 A 
ATOM     24  C   UNL     1      -0.094   2.499   2.592  0.00  0.00    +0.034 A 
ATOM     25  C   UNL     1       1.022   2.078   1.893  0.00  0.00    +0.061 A 
ATOM     26 BR   UNL     1       1.984   3.302   0.820  0.00  0.00    -0.046 Br
ATOM     27 BR   UNL     1      -2.323   2.183   4.333  0.00  0.00    -0.050 Br
ENDBRANCH  19  20
ENDBRANCH  18  19
ENDBRANCH  15  18
ENDBRANCH   1  15
TORSDOF 7
