REMARK  Name = ZINC05510684
REMARK  6 active torsions:
REMARK  status: ('A' for Active; 'I' for Inactive)
REMARK    1  A    between atoms: C_1  and  O_2
REMARK    2  A    between atoms: O_2  and  C_3
REMARK    3  A    between atoms: C_3  and  C_5
REMARK    4  A    between atoms: C_6  and  N_29
REMARK    5  A    between atoms: C_18  and  C_20
REMARK    6  A    between atoms: C_24  and  N_26
REMARK                            x       y       z     vdW  Elec       q    Type
REMARK                         _______ _______ _______ _____ _____    ______ ____
ROOT
ATOM      1  C   UNL     1      -0.743   5.649  -1.159  0.00  0.00    +0.105 C 
ATOM      2  C   UNL     1      -1.848   6.439  -1.162  0.00  0.00    +0.195 C 
ATOM      3  O   UNL     1      -2.550   6.665  -0.041  0.00  0.00    -0.441 OA
ATOM      4  C   UNL     1      -1.979   6.458   1.170  0.00  0.00    +0.142 A 
ATOM      5  C   UNL     1      -2.538   7.077   2.311  0.00  0.00    +0.025 A 
ATOM      6  C   UNL     1      -3.670   7.902   2.208  0.00  0.00    +0.012 A 
ATOM      7  C   UNL     1      -4.185   8.481   3.327  0.00  0.00    +0.001 A 
ATOM      8  C   UNL     1      -3.605   8.270   4.576  0.00  0.00    +0.001 A 
ATOM      9  C   UNL     1      -2.507   7.478   4.713  0.00  0.00    +0.008 A 
ATOM     10  C   UNL     1      -1.948   6.863   3.580  0.00  0.00    -0.014 A 
ATOM     11  C   UNL     1      -0.813   6.040   3.680  0.00  0.00    +0.009 A 
ATOM     12  C   UNL     1      -0.301   5.460   2.562  0.00  0.00    +0.009 A 
ATOM     13  C   UNL     1      -0.877   5.665   1.307  0.00  0.00    +0.008 A 
ATOM     14  C   UNL     1      -0.263   4.994   0.105  0.00  0.00    +0.094 C 
ENDROOT
BRANCH  14  15
ATOM     15  C   UNL     1      -0.654   3.538   0.092  0.00  0.00    -0.033 A 
ATOM     16  C   UNL     1      -1.989   3.182   0.032  0.00  0.00    +0.005 A 
ATOM     17  C   UNL     1      -2.347   1.847   0.017  0.00  0.00    +0.003 A 
ATOM     18  C   UNL     1      -1.372   0.868   0.071  0.00  0.00    +0.033 A 
ATOM     19  C   UNL     1      -0.038   1.225   0.131  0.00  0.00    +0.126 A 
ATOM     20  C   UNL     1       0.321   2.560   0.142  0.00  0.00    +0.037 A 
BRANCH  19  21
ATOM     21  N   UNL     1       1.006   0.177   0.184  0.00  0.00    +0.056 N 
ATOM     22  O   UNL     1       0.690  -0.999   0.174  0.00  0.00    -0.126 OA
ATOM     23  O   UNL     1       2.182   0.492   0.236  0.00  0.00    -0.126 OA
ENDBRANCH  19  21
ENDBRANCH  14  15
BRANCH   2  24
ATOM     24  N   UNL     1      -2.254   7.018  -2.335  0.00  0.00    -0.329 N 
ATOM     25  H   UNL     1      -1.598   7.390  -2.944  0.00  0.00    +0.145 HD
ATOM     26  H   UNL     1      -3.198   7.055  -2.556  0.00  0.00    +0.145 HD
ENDBRANCH   2  24
BRANCH   1  27
ATOM     27  C   UNL     1      -0.039   5.441  -2.354  0.00  0.00    +0.341 C 
ATOM     28  O   UNL     1      -0.483   5.868  -3.405  0.00  0.00    -0.245 OA
BRANCH  27  30
ATOM     29  C   UNL     1       1.794   4.591  -3.594  0.00  0.00    +0.280 C 
ATOM     30  O   UNL     1       1.131   4.766  -2.340  0.00  0.00    -0.465 OA
ENDBRANCH  27  30
ENDBRANCH   1  27
TORSDOF 5
