REMARK  Name = ZINC39760980
REMARK  13 active torsions:
REMARK  status: ('A' for Active; 'I' for Inactive)
REMARK    1  A    between atoms: C_1  and  C_2
REMARK    2  A    between atoms: C_5  and  C_11
REMARK    3  A    between atoms: C_7  and  N_8
REMARK    4  A    between atoms: C_11  and  C_13
REMARK    5  A    between atoms: C_13  and  S_14
REMARK    6  A    between atoms: S_14  and  C_15
REMARK    7  A    between atoms: C_18  and  C_23
REMARK    8  A    between atoms: N_19  and  C_20
REMARK    9  A    between atoms: C_20  and  C_21
REMARK   10  A    between atoms: C_23  and  C_24
REMARK   11  A    between atoms: N_26  and  C_27
REMARK   12  A    between atoms: C_29  and  C_34
REMARK   13  A    between atoms: C_31  and  C_33
REMARK                            x       y       z     vdW  Elec       q    Type
REMARK                         _______ _______ _______ _____ _____    ______ ____
ROOT
ATOM      1  C   UNL     1      -0.665  -7.147  -2.613  0.00  0.00    +0.192 A 
ATOM      2  N   UNL     1      -0.838  -6.833  -3.876  0.00  0.00    -0.122 NA
ATOM      3  N   UNL     1      -0.488  -7.819  -4.622  0.00  0.00    -0.133 NA
ATOM      4  C   UNL     1      -0.076  -8.812  -3.887  0.00  0.00    +0.143 A 
ATOM      5  N   UNL     1      -0.168  -8.418  -2.581  0.00  0.00    -0.302 N 
ENDROOT
BRANCH   1   6
ATOM      6  S   UNL     1      -1.004  -6.119  -1.222  0.00  0.00    -0.078 S 
BRANCH   6   7
ATOM      7  C   UNL     1      -1.635  -4.584  -1.954  0.00  0.00    +0.157 C 
BRANCH   7   8
ATOM      8  C   UNL     1      -1.968  -3.605  -0.858  0.00  0.00    +0.173 C 
ATOM      9  O   UNL     1      -1.796  -3.912   0.303  0.00  0.00    -0.291 OA
BRANCH   8  14
ATOM     10  C   UNL     1      -4.052   1.588  -2.178  0.00  0.00    +0.046 C 
ATOM     11  C   UNL     1      -3.505   0.227  -1.831  0.00  0.00    -0.020 A 
ATOM     12  C   UNL     1      -3.200  -0.670  -2.841  0.00  0.00    +0.006 A 
ATOM     13  C   UNL     1      -2.700  -1.917  -2.533  0.00  0.00    +0.012 A 
ATOM     14  C   UNL     1      -2.501  -2.276  -1.196  0.00  0.00    +0.020 A 
ATOM     15  C   UNL     1      -2.811  -1.364  -0.181  0.00  0.00    +0.044 A 
ATOM     16  C   UNL     1      -3.306  -0.119  -0.506  0.00  0.00    +0.130 A 
BRANCH  16  17
ATOM     17  N   UNL     1      -3.629   0.850   0.565  0.00  0.00    +0.057 N 
ATOM     18  O   UNL     1      -3.415   2.028   0.400  0.00  0.00    -0.126 OA
ATOM     19  O   UNL     1      -4.107   0.463   1.606  0.00  0.00    -0.126 OA
ENDBRANCH  16  17
ENDBRANCH   8  14
ENDBRANCH   7   8
ENDBRANCH   6   7
ENDBRANCH   1   6
BRANCH   5  20
ATOM     20  C   UNL     1       0.189  -9.199  -1.394  0.00  0.00    +0.152 C 
BRANCH  20  21
ATOM     21  C   UNL     1      -1.011  -9.983  -0.928  0.00  0.00    -0.013 C 
ATOM     22  C   UNL     1      -0.928 -11.282  -0.781  0.00  0.00    +0.005 C 
ENDBRANCH  20  21
ENDBRANCH   5  20
BRANCH   4  23
ATOM     23  C   UNL     1       0.417 -10.147  -4.385  0.00  0.00    +0.172 C 
BRANCH  23  24
ATOM     24  C   UNL     1       1.907 -10.082  -4.604  0.00  0.00    +0.225 C 
ATOM     25  O   UNL     1       2.509  -9.053  -4.378  0.00  0.00    -0.275 OA
ATOM     26  N   UNL     1       2.570 -11.167  -5.050  0.00  0.00    -0.285 N 
ATOM     27  H   UNL     1       2.080 -11.965  -5.303  0.00  0.00    +0.155 HD
BRANCH  26  28
ATOM     28  C   UNL     1       3.965 -11.142  -5.151  0.00  0.00    +0.034 A 
ATOM     29  C   UNL     1       4.603 -11.846  -6.163  0.00  0.00    +0.026 A 
ATOM     30  C   UNL     1       5.981 -11.819  -6.259  0.00  0.00    -0.048 A 
ATOM     31  C   UNL     1       6.725 -11.092  -5.348  0.00  0.00    +0.006 A 
ATOM     32  C   UNL     1       6.093 -10.389  -4.339  0.00  0.00    -0.048 A 
ATOM     33  C   UNL     1       4.715 -10.407  -4.241  0.00  0.00    +0.026 A 
ATOM     34  C   UNL     1       6.907  -9.598  -3.348  0.00  0.00    +0.044 C 
ATOM     35  C   UNL     1       6.674 -12.584  -7.357  0.00  0.00    +0.044 C 
ENDBRANCH  26  28
ENDBRANCH  23  24
ENDBRANCH   4  23
TORSDOF 10
