REMARK  Name = ZINC57202432
REMARK  14 active torsions:
REMARK  status: ('A' for Active; 'I' for Inactive)
REMARK    1  A    between atoms: C_1  and  C_2
REMARK    2  A    between atoms: C_4  and  C_29
REMARK    3  A    between atoms: N_5  and  C_7
REMARK    4  A    between atoms: C_7  and  C_8
REMARK    5  A    between atoms: C_8  and  C_10
REMARK    6  A    between atoms: C_8  and  C_11
REMARK    7  A    between atoms: C_11  and  N_12
REMARK    8  A    between atoms: N_15  and  C_16
REMARK    9  A    between atoms: C_16  and  C_18
REMARK   10  A    between atoms: C_16  and  C_25
REMARK   11  A    between atoms: C_18  and  C_19
REMARK   12  A    between atoms: C_25  and  N_26
REMARK   13  A    between atoms: N_26  and  C_27
REMARK   14  A    between atoms: N_26  and  C_28
REMARK                            x       y       z     vdW  Elec       q    Type
REMARK                         _______ _______ _______ _____ _____    ______ ____
ROOT
ATOM      1  N   UNL     1       3.311  -5.101   2.882  0.00  0.00    -0.299 N 
ATOM      2  C   UNL     1       3.532  -6.165   3.679  0.00  0.00    +0.300 C 
ATOM      3  O   UNL     1       2.735  -7.083   3.703  0.00  0.00    -0.253 OA
ATOM      4  N   UNL     1       4.636  -6.211   4.451  0.00  0.00    -0.298 N 
ATOM      5  H   UNL     1       3.946  -4.369   2.863  0.00  0.00    +0.150 HD
ATOM      6  H   UNL     1       5.311  -5.519   4.373  0.00  0.00    +0.150 HD
ENDROOT
BRANCH   1   7
ATOM      7  C   UNL     1       2.110  -5.051   2.044  0.00  0.00    +0.110 C 
BRANCH   7   8
ATOM      8  C   UNL     1       2.102  -3.747   1.243  0.00  0.00    +0.024 C 
ATOM      9  C   UNL     1       3.279  -3.741   0.266  0.00  0.00    +0.011 C 
BRANCH   8  10
ATOM     10  C   UNL     1       0.790  -3.636   0.463  0.00  0.00    +0.148 C 
BRANCH  10  15
ATOM     11  C   UNL     1      -0.127   1.222  -0.408  0.00  0.00    +0.067 C 
ATOM     12  C   UNL     1       0.319  -0.209  -0.568  0.00  0.00    +0.060 A 
ATOM     13  C   UNL     1       0.941  -0.752  -1.697  0.00  0.00    +0.047 A 
ATOM     14  C   UNL     1       1.183  -2.061  -1.450  0.00  0.00    +0.036 A 
ATOM     15  N   UNL     1       0.730  -2.335  -0.209  0.00  0.00    -0.268 N 
ATOM     16  N   UNL     1       0.197  -1.155   0.327  0.00  0.00    -0.176 NA
ATOM     17  C   UNL     1       1.840  -3.036  -2.392  0.00  0.00    +0.065 C 
ENDBRANCH  10  15
ENDBRANCH   8  10
ENDBRANCH   7   8
ENDBRANCH   1   7
BRANCH   4  18
ATOM     18  C   UNL     1       4.817  -7.308   5.405  0.00  0.00    +0.062 C 
BRANCH  18  19
ATOM     19  C   UNL     1       6.254  -7.825   5.322  0.00  0.00    +0.055 C 
BRANCH  19  20
ATOM     20  C   UNL     1       6.490  -8.436   3.964  0.00  0.00    -0.046 A 
ATOM     21  C   UNL     1       6.234  -9.778   3.757  0.00  0.00    +0.004 A 
ATOM     22  C   UNL     1       6.450 -10.339   2.512  0.00  0.00    +0.000 A 
ATOM     23  C   UNL     1       6.922  -9.556   1.474  0.00  0.00    +0.000 A 
ATOM     24  C   UNL     1       7.177  -8.214   1.681  0.00  0.00    +0.000 A 
ATOM     25  C   UNL     1       6.956  -7.652   2.925  0.00  0.00    +0.004 A 
ENDBRANCH  19  20
ENDBRANCH  18  19
BRANCH  18  26
ATOM     26  C   UNL     1       4.539  -6.801   6.822  0.00  0.00    -0.057 C 
BRANCH  26  27
ATOM     27  N   UNL     1       3.150  -6.330   6.910  0.00  0.00    +0.377 N 
ATOM     28  C   UNL     1       2.236  -7.469   6.749  0.00  0.00    -0.097 C 
ATOM     29  C   UNL     1       2.927  -5.705   8.221  0.00  0.00    -0.097 C 
ATOM     30  H   UNL     1       2.977  -5.654   6.181  0.00  0.00    -0.083 HD
ENDBRANCH  26  27
ENDBRANCH  18  26
ENDBRANCH   4  18
TORSDOF 9
