REMARK  Name = ZINC14461093
REMARK  6 active torsions:
REMARK  status: ('A' for Active; 'I' for Inactive)
REMARK    1  A    between atoms: C_1  and  C_2
REMARK    2  A    between atoms: C_2  and  C_3
REMARK    3  A    between atoms: C_2  and  N_4
REMARK    4  A    between atoms: C_5  and  C_7
REMARK    5  A    between atoms: C_14  and  C_23
REMARK    6  A    between atoms: C_28  and  O_29
REMARK                            x       y       z     vdW  Elec       q    Type
REMARK                         _______ _______ _______ _____ _____    ______ ____
ROOT
ATOM      1  C   UNL     1      -2.090   3.812   2.825  0.00  0.00    +0.058 A 
ATOM      2  C   UNL     1      -2.299   3.084   3.997  0.00  0.00    +0.015 A 
ATOM      3  C   UNL     1      -2.998   3.656   5.038  0.00  0.00    +0.001 A 
ATOM      4  C   UNL     1      -3.490   4.944   4.922  0.00  0.00    +0.006 A 
ATOM      5  C   UNL     1      -3.294   5.682   3.764  0.00  0.00    -0.019 A 
ATOM      6  C   UNL     1      -2.587   5.125   2.714  0.00  0.00    +0.044 A 
ATOM      7  N   UNL     1      -2.347   5.814   1.535  0.00  0.00    -0.336 N 
ATOM      8  C   UNL     1      -3.390   6.805   1.264  0.00  0.00    +0.108 C 
ATOM      9  C   UNL     1      -3.473   7.798   2.413  0.00  0.00    +0.029 C 
ATOM     10  C   UNL     1      -3.868   7.073   3.717  0.00  0.00    +0.049 C 
ATOM     11  C   UNL     1      -3.160   7.904   4.790  0.00  0.00    -0.023 C 
ATOM     12  C   UNL     1      -2.171   8.586   4.271  0.00  0.00    -0.030 C 
ATOM     13  C   UNL     1      -2.061   8.315   2.782  0.00  0.00    +0.033 C 
ATOM     14  H   UNL     1      -2.243   5.178   0.759  0.00  0.00    +0.147 HD
ENDROOT
BRANCH   8  15
ATOM     15  C   UNL     1      -4.716   6.106   1.109  0.00  0.00    +0.015 A 
ATOM     16  C   UNL     1      -5.833   6.591   1.761  0.00  0.00    +0.024 A 
ATOM     17  C   UNL     1      -7.052   5.953   1.616  0.00  0.00    +0.018 A 
ATOM     18  C   UNL     1      -7.152   4.822   0.825  0.00  0.00    +0.019 A 
ATOM     19  C   UNL     1      -6.036   4.330   0.176  0.00  0.00    +0.047 A 
ATOM     20  C   UNL     1      -4.814   4.972   0.317  0.00  0.00    +0.122 A 
ATOM     21 BR   UNL     1      -8.581   6.623   2.504  0.00  0.00    -0.050 Br
BRANCH  20  22
ATOM     22  O   UNL     1      -3.715   4.490  -0.321  0.00  0.00    -0.506 OA
ATOM     23  H   UNL     1      -3.212   3.845   0.195  0.00  0.00    +0.292 HD
ENDBRANCH  20  22
ENDBRANCH   8  15
BRANCH   1  25
ATOM     24  N   UNL     1      -1.405   1.879   1.493  0.00  0.00    -0.309 N 
ATOM     25  C   UNL     1      -1.343   3.208   1.706  0.00  0.00    +0.246 C 
ATOM     26  O   UNL     1      -0.672   3.910   0.974  0.00  0.00    -0.270 OA
ATOM     27  H   UNL     1      -1.941   1.319   2.077  0.00  0.00    +0.149 HD
BRANCH  24  29
ATOM     28  C   UNL     1      -1.338  -0.029  -0.035  0.00  0.00    +0.027 C 
ATOM     29  C   UNL     1      -0.663   1.279   0.381  0.00  0.00    +0.067 C 
ATOM     30  C   UNL     1       0.774   0.994   0.822  0.00  0.00    +0.027 C 
ENDBRANCH  24  29
ENDBRANCH   1  25
TORSDOF 4
