REMARK  Name = ZINC40799023
REMARK  6 active torsions:
REMARK  status: ('A' for Active; 'I' for Inactive)
REMARK    1  A    between atoms: C_4  and  C_7
REMARK    2  A    between atoms: C_7  and  N_8
REMARK    3  A    between atoms: C_16  and  N_30
REMARK    4  A    between atoms: C_17  and  N_21
REMARK    5  A    between atoms: N_21  and  C_22
REMARK    6  A    between atoms: C_22  and  C_23
REMARK                            x       y       z     vdW  Elec       q    Type
REMARK                         _______ _______ _______ _____ _____    ______ ____
ROOT
ATOM      1  N   UNL     1       4.134  -0.952   1.352  0.00  0.00    -0.264 N 
ATOM      2  C   UNL     1       2.748  -0.885   1.461  0.00  0.00    +0.127 A 
ATOM      3  C   UNL     1       1.960  -1.831   0.812  0.00  0.00    +0.044 A 
ATOM      4  C   UNL     1       0.584  -1.753   0.929  0.00  0.00    +0.005 A 
ATOM      5  C   UNL     1       0.040  -0.729   1.693  0.00  0.00    +0.020 A 
ATOM      6  C   UNL     1       0.882   0.175   2.309  0.00  0.00    +0.113 A 
ATOM      7  N   UNL     1       2.192   0.074   2.184  0.00  0.00    -0.240 NA
ATOM      8  C   UNL     1       4.933  -0.125   2.135  0.00  0.00    +0.153 A 
ATOM      9  C   UNL     1       5.446  -0.580   3.352  0.00  0.00    +0.106 A 
ATOM     10  C   UNL     1       6.243   0.291   4.098  0.00  0.00    +0.145 A 
ATOM     11  N   UNL     1       6.481   1.512   3.624  0.00  0.00    -0.219 NA
ATOM     12  C   UNL     1       5.978   1.901   2.471  0.00  0.00    +0.225 A 
ATOM     13  N   UNL     1       5.225   1.110   1.734  0.00  0.00    -0.218 NA
ENDROOT
BRANCH   9  14
ATOM     14  N   UNL     1       5.167  -1.876   3.812  0.00  0.00    -0.353 N 
ATOM     15  H   UNL     1       4.680  -2.497   3.248  0.00  0.00    +0.143 HD
ATOM     16  H   UNL     1       5.462  -2.151   4.694  0.00  0.00    +0.143 HD
ENDBRANCH   9  14
BRANCH  10  17
ATOM     17  N   UNL     1       6.778  -0.111   5.316  0.00  0.00    -0.323 N 
ATOM     18  H   UNL     1       6.599  -1.002   5.653  0.00  0.00    +0.148 HD
BRANCH  17  19
ATOM     19  C   UNL     1       7.612   0.811   6.089  0.00  0.00    +0.139 C 
BRANCH  19  20
ATOM     20  C   UNL     1       8.063   0.137   7.359  0.00  0.00    -0.012 A 
ATOM     21  C   UNL     1       7.410   0.398   8.549  0.00  0.00    +0.006 A 
ATOM     22  C   UNL     1       7.824  -0.221   9.714  0.00  0.00    +0.000 A 
ATOM     23  C   UNL     1       8.890  -1.101   9.690  0.00  0.00    +0.001 A 
ATOM     24  C   UNL     1       9.543  -1.363   8.500  0.00  0.00    +0.020 A 
ATOM     25  C   UNL     1       9.126  -0.748   7.333  0.00  0.00    +0.046 A 
ATOM     26 CL   UNL     1       9.942  -1.081   5.837  0.00  0.00    -0.083 Cl
ENDBRANCH  19  20
ENDBRANCH  17  19
ENDBRANCH  10  17
BRANCH   1  27
ATOM     27  C   UNL     1       4.751  -1.892   0.414  0.00  0.00    +0.149 C 
BRANCH  27  31
ATOM     28  C   UNL     1       5.262   0.006  -3.379  0.00  0.00    +0.000 A 
ATOM     29  C   UNL     1       6.264   0.077  -2.429  0.00  0.00    +0.000 A 
ATOM     30  C   UNL     1       6.099  -0.537  -1.202  0.00  0.00    +0.005 A 
ATOM     31  C   UNL     1       4.931  -1.222  -0.924  0.00  0.00    -0.030 A 
ATOM     32  C   UNL     1       3.928  -1.293  -1.873  0.00  0.00    +0.005 A 
ATOM     33  C   UNL     1       4.094  -0.680  -3.101  0.00  0.00    +0.000 A 
ENDBRANCH  27  31
ENDBRANCH   1  27
TORSDOF 6
