REMARK  Name = ZINC12498136
REMARK  10 active torsions:
REMARK  status: ('A' for Active; 'I' for Inactive)
REMARK    1  A    between atoms: C_4  and  C_7
REMARK    2  A    between atoms: C_7  and  O_8
REMARK    3  A    between atoms: O_8  and  C_9
REMARK    4  A    between atoms: C_13  and  C_15
REMARK    5  A    between atoms: C_15  and  N_17
REMARK    6  A    between atoms: C_15  and  O_38
REMARK    7  A    between atoms: N_17  and  C_18
REMARK    8  A    between atoms: C_20  and  S_29
REMARK    9  A    between atoms: C_23  and  N_24
REMARK   10  A    between atoms: S_29  and  N_32
REMARK                            x       y       z     vdW  Elec       q    Type
REMARK                         _______ _______ _______ _____ _____    ______ ____
ROOT
ATOM      1  C   UNL     1      -0.161   1.530  -3.521  0.00  0.00    +0.052 A 
ATOM      2  C   UNL     1      -0.103   0.864  -4.736  0.00  0.00    +0.053 A 
ATOM      3  C   UNL     1      -0.578  -0.430  -4.838  0.00  0.00    +0.107 A 
ATOM      4  C   UNL     1      -1.109  -1.066  -3.731  0.00  0.00    +0.030 A 
ATOM      5  C   UNL     1      -1.166  -0.411  -2.514  0.00  0.00    +0.027 A 
ATOM      6  C   UNL     1      -0.691   0.887  -2.403  0.00  0.00    +0.051 A 
ENDROOT
BRANCH   6   7
ATOM      7  N   UNL     1      -0.748   1.552  -1.172  0.00  0.00    -0.328 N 
ATOM      8  C   UNL     1       0.028   0.823  -0.136  0.00  0.00    +0.105 C 
ATOM      9  C   UNL     1      -0.543   1.325   1.207  0.00  0.00    +0.020 C 
ATOM     10  C   UNL     1      -1.970   1.818   0.874  0.00  0.00    +0.020 C 
ATOM     11  C   UNL     1      -2.136   1.572  -0.641  0.00  0.00    +0.105 C 
ENDBRANCH   6   7
BRANCH   3  12
ATOM     12  S   UNL     1      -0.509  -1.272  -6.385  0.00  0.00    +0.061 S 
ATOM     13  O   UNL     1       0.530  -0.657  -7.135  0.00  0.00    -0.153 OA
ATOM     14  O   UNL     1      -0.516  -2.662  -6.091  0.00  0.00    -0.153 OA
BRANCH  12  15
ATOM     15  N   UNL     1      -1.924  -0.949  -7.182  0.00  0.00    -0.172 NA
ATOM     16  C   UNL     1      -3.099  -1.821  -7.022  0.00  0.00    +0.137 C 
ATOM     17  C   UNL     1      -4.309  -0.936  -6.681  0.00  0.00    +0.177 C 
ATOM     18  O   UNL     1      -4.418   0.105  -7.655  0.00  0.00    -0.377 OA
ATOM     19  C   UNL     1      -3.301   0.997  -7.687  0.00  0.00    +0.177 C 
ATOM     20  C   UNL     1      -2.042   0.214  -8.075  0.00  0.00    +0.137 C 
ENDBRANCH  12  15
ENDBRANCH   3  12
BRANCH   1  21
ATOM     21  N   UNL     1       0.315   2.843  -3.417  0.00  0.00    -0.314 N 
ATOM     22  H   UNL     1       0.197   3.337  -2.590  0.00  0.00    +0.149 HD
BRANCH  21  23
ATOM     23  C   UNL     1       0.991   3.470  -4.555  0.00  0.00    +0.232 C 
BRANCH  23  28
ATOM     24  C   UNL     1       4.196   5.460  -4.349  0.00  0.00    +0.121 A 
ATOM     25  C   UNL     1       4.050   6.090  -3.122  0.00  0.00    +0.045 A 
ATOM     26  C   UNL     1       2.916   5.869  -2.365  0.00  0.00    +0.004 A 
ATOM     27  C   UNL     1       1.927   5.021  -2.829  0.00  0.00    +0.008 A 
ATOM     28  C   UNL     1       2.071   4.393  -4.052  0.00  0.00    +0.002 A 
ATOM     29  C   UNL     1       3.205   4.606  -4.811  0.00  0.00    +0.053 A 
BRANCH  24  30
ATOM     30  O   UNL     1       5.311   5.676  -5.097  0.00  0.00    -0.487 OA
BRANCH  30  31
ATOM     31  C   UNL     1       6.292   6.563  -4.557  0.00  0.00    +0.264 C 
BRANCH  31  35
ATOM     32  C   UNL     1       9.568   6.891  -7.279  0.00  0.00    +0.000 A 
ATOM     33  C   UNL     1       8.498   7.761  -7.376  0.00  0.00    +0.000 A 
ATOM     34  C   UNL     1       7.438   7.655  -6.496  0.00  0.00    +0.007 A 
ATOM     35  C   UNL     1       7.448   6.679  -5.517  0.00  0.00    -0.010 A 
ATOM     36  C   UNL     1       8.520   5.812  -5.416  0.00  0.00    +0.007 A 
ATOM     37  C   UNL     1       9.577   5.914  -6.300  0.00  0.00    +0.000 A 
ENDBRANCH  31  35
ENDBRANCH  30  31
ENDBRANCH  24  30
ENDBRANCH  23  28
BRANCH  23  38
ATOM     38  O   UNL     1       0.043   4.218  -5.319  0.00  0.00    -0.370 OA
ATOM     39  H   UNL     1      -0.394   4.923  -4.823  0.00  0.00    +0.212 HD
ENDBRANCH  23  38
ENDBRANCH  21  23
ENDBRANCH   1  21
TORSDOF 10
