REMARK  Name = ZINC40320165
REMARK  6 active torsions:
REMARK  status: ('A' for Active; 'I' for Inactive)
REMARK    1  A    between atoms: C_1  and  O_2
REMARK    2  A    between atoms: O_2  and  C_3
REMARK    3  A    between atoms: C_3  and  C_5
REMARK    4  A    between atoms: C_12  and  C_14
REMARK    5  A    between atoms: C_16  and  N_21
REMARK    6  A    between atoms: C_18  and  N_20
REMARK                            x       y       z     vdW  Elec       q    Type
REMARK                         _______ _______ _______ _____ _____    ______ ____
ROOT
ATOM      1  C   UNL     1       0.262  -2.151   1.435  0.00  0.00    +0.185 C 
ATOM      2  C   UNL     1       0.437  -3.232   0.364  0.00  0.00    +0.034 C 
ATOM      3  C   UNL     1       0.116  -4.600   0.970  0.00  0.00    +0.004 C 
ATOM      4  C   UNL     1       1.087  -4.894   2.115  0.00  0.00    +0.019 C 
ATOM      5  C   UNL     1       0.920  -3.831   3.206  0.00  0.00    +0.109 C 
ATOM      6  N   UNL     1       1.082  -2.501   2.603  0.00  0.00    -0.284 N 
ATOM      7  C   UNL     1       1.968  -1.620   3.110  0.00  0.00    +0.247 C 
ATOM      8  O   UNL     1       2.008  -0.484   2.680  0.00  0.00    -0.270 OA
ENDROOT
BRANCH   7   9
ATOM      9  C   UNL     1       2.890  -2.036   4.189  0.00  0.00    +0.040 A 
ATOM     10  C   UNL     1       3.370  -3.345   4.231  0.00  0.00    +0.036 A 
ATOM     11  C   UNL     1       4.236  -3.732   5.244  0.00  0.00    +0.027 A 
ATOM     12  C   UNL     1       4.623  -2.818   6.215  0.00  0.00    +0.045 A 
ATOM     13  C   UNL     1       4.146  -1.514   6.176  0.00  0.00    +0.027 A 
ATOM     14  C   UNL     1       3.285  -1.119   5.162  0.00  0.00    +0.036 A 
BRANCH  13  15
ATOM     15  N   UNL     1       4.538  -0.598   7.155  0.00  0.00    -0.358 N 
ATOM     16  H   UNL     1       5.144  -0.873   7.862  0.00  0.00    +0.142 HD
ATOM     17  H   UNL     1       4.205   0.312   7.128  0.00  0.00    +0.142 HD
ENDBRANCH  13  15
BRANCH  11  18
ATOM     18  N   UNL     1       4.717  -5.043   5.288  0.00  0.00    -0.358 N 
ATOM     19  H   UNL     1       4.446  -5.682   4.610  0.00  0.00    +0.142 HD
ATOM     20  H   UNL     1       5.322  -5.314   5.996  0.00  0.00    +0.142 HD
ENDBRANCH  11  18
ENDBRANCH   7   9
BRANCH   1  21
ATOM     21  C   UNL     1       0.708  -0.820   0.887  0.00  0.00    +0.328 C 
ATOM     22  O   UNL     1       1.838  -0.679   0.485  0.00  0.00    -0.249 OA
BRANCH  21  24
ATOM     23  C   UNL     1       0.337   1.443   0.312  0.00  0.00    +0.280 C 
ATOM     24  O   UNL     1      -0.152   0.210   0.844  0.00  0.00    -0.467 OA
ENDBRANCH  21  24
ENDBRANCH   1  21
TORSDOF 5
