REMARK  Name = ZINC23358848
REMARK  10 active torsions:
REMARK  status: ('A' for Active; 'I' for Inactive)
REMARK    1  A    between atoms: C_1  and  C_2
REMARK    2  A    between atoms: C_2  and  C_3
REMARK    3  A    between atoms: C_3  and  N_4
REMARK    4  A    between atoms: C_7  and  N_10
REMARK    5  A    between atoms: C_12  and  N_23
REMARK    6  A    between atoms: C_15  and  C_17
REMARK    7  A    between atoms: N_19  and  C_20
REMARK    8  A    between atoms: C_20  and  C_21
REMARK    9  A    between atoms: C_20  and  C_22
REMARK   10  A    between atoms: N_23  and  C_24
REMARK                            x       y       z     vdW  Elec       q    Type
REMARK                         _______ _______ _______ _____ _____    ______ ____
ROOT
ATOM      1  N   UNL     1      -2.018  -6.069   0.950  0.00  0.00    -0.290 NA
ATOM      2  C   UNL     1      -1.303  -6.459  -0.279  0.00  0.00    +0.070 C 
ATOM      3  C   UNL     1      -2.245  -7.379  -1.084  0.00  0.00    -0.055 C 
ATOM      4  C   UNL     1      -3.218  -7.915  -0.001  0.00  0.00    +0.014 C 
ATOM      5  C   UNL     1      -3.361  -6.685   0.928  0.00  0.00    +0.142 C 
ENDROOT
BRANCH   1   9
ATOM      6  N   UNL     1      -1.413  -2.002   0.005  0.00  0.00    +0.380 N 
ATOM      7  C   UNL     1      -0.802  -2.489   1.247  0.00  0.00    -0.077 C 
ATOM      8  C   UNL     1      -0.705  -4.016   1.209  0.00  0.00    +0.000 C 
ATOM      9  C   UNL     1      -2.110  -4.607   1.064  0.00  0.00    +0.054 C 
ATOM     10  C   UNL     1      -2.766  -4.036  -0.196  0.00  0.00    +0.000 C 
ATOM     11  C   UNL     1      -2.787  -2.508  -0.105  0.00  0.00    -0.077 C 
ATOM     12  H   UNL     1      -0.873  -2.326  -0.783  0.00  0.00    -0.082 HD
BRANCH   6  13
ATOM     13  C   UNL     1      -1.433  -0.534   0.013  0.00  0.00    -0.079 C 
BRANCH  13  15
ATOM     14  C   UNL     1      -0.019   1.526   0.010  0.00  0.00    +0.002 C 
ATOM     15  C   UNL     1       0.002  -0.004   0.002  0.00  0.00    -0.022 C 
ENDBRANCH  13  15
ENDBRANCH   6  13
ENDBRANCH   1   9
BRANCH   5  16
ATOM     16  C   UNL     1      -3.763  -7.118   2.315  0.00  0.00    +0.230 C 
ATOM     17  O   UNL     1      -3.009  -6.938   3.248  0.00  0.00    -0.274 OA
ATOM     18  N   UNL     1      -4.958  -7.706   2.518  0.00  0.00    -0.312 N 
ATOM     19  H   UNL     1      -5.561  -7.849   1.771  0.00  0.00    +0.149 HD
BRANCH  18  20
ATOM     20  C   UNL     1      -5.348  -8.127   3.865  0.00  0.00    +0.067 C 
ATOM     21  C   UNL     1      -6.874  -8.168   3.965  0.00  0.00    +0.027 C 
ATOM     22  C   UNL     1      -4.781  -9.520   4.148  0.00  0.00    +0.027 C 
ENDBRANCH  18  20
ENDBRANCH   5  16
BRANCH   3  23
ATOM     23  N   UNL     1      -1.493  -8.479  -1.703  0.00  0.00    +0.384 N 
ATOM     24  H   UNL     1      -0.957  -8.959  -0.997  0.00  0.00    -0.085 HD
ATOM     25  H   UNL     1      -2.137  -9.125  -2.134  0.00  0.00    -0.085 HD
BRANCH  23  26
ATOM     26  C   UNL     1      -0.586  -7.938  -2.724  0.00  0.00    -0.071 C 
ATOM     27  C   UNL     1      -1.405  -7.318  -3.858  0.00  0.00    -0.016 C 
ATOM     28  C   UNL     1      -0.502  -6.420  -4.707  0.00  0.00    -0.002 C 
ATOM     29  C   UNL     1       0.380  -5.570  -3.790  0.00  0.00    -0.000 C 
ATOM     30  C   UNL     1       1.841  -5.996  -3.949  0.00  0.00    -0.000 C 
ATOM     31  C   UNL     1       2.069  -7.317  -3.212  0.00  0.00    -0.000 C 
ATOM     32  C   UNL     1       1.477  -8.467  -4.030  0.00  0.00    -0.002 C 
ATOM     33  C   UNL     1       0.285  -9.066  -3.281  0.00  0.00    -0.016 C 
ENDBRANCH  23  26
ENDBRANCH   3  23
TORSDOF 7
