REMARK  Name = ZINC20867080
REMARK  8 active torsions:
REMARK  status: ('A' for Active; 'I' for Inactive)
REMARK    1  A    between atoms: C_1  and  C_2
REMARK    2  A    between atoms: C_3  and  C_8
REMARK    3  A    between atoms: C_8  and  N_9
REMARK    4  A    between atoms: C_11  and  O_25
REMARK    5  A    between atoms: N_14  and  C_18
REMARK    6  A    between atoms: C_18  and  C_19
REMARK    7  A    between atoms: O_25  and  C_26
REMARK    8  A    between atoms: C_26  and  C_27
REMARK                            x       y       z     vdW  Elec       q    Type
REMARK                         _______ _______ _______ _____ _____    ______ ____
ROOT
ATOM      1  N   UNL     1       1.330   0.370  -3.408  0.00  0.00    -0.286 NA
ATOM      2  C   UNL     1       1.512   0.919  -4.746  0.00  0.00    +0.118 C 
ATOM      3  C   UNL     1       2.893   1.496  -4.992  0.00  0.00    +0.150 C 
ATOM      4  C   UNL     1       3.953   0.391  -4.978  0.00  0.00    +0.140 C 
ATOM      5  N   UNL     1       4.367   0.161  -3.584  0.00  0.00    -0.298 N 
ATOM      6  C   UNL     1       3.520  -0.411  -2.724  0.00  0.00    +0.230 C 
ATOM      7  O   UNL     1       3.857  -0.591  -1.573  0.00  0.00    -0.274 OA
ATOM      8  C   UNL     1       2.140  -0.834  -3.181  0.00  0.00    +0.181 C 
ENDROOT
BRANCH   1   9
ATOM      9  C   UNL     1      -0.090   0.108  -3.135  0.00  0.00    +0.140 C 
BRANCH   9  12
ATOM     10  C   UNL     1      -0.252   2.227  -0.836  0.00  0.00    +0.065 C 
ATOM     11  C   UNL     1      -0.345   0.732  -0.675  0.00  0.00    +0.035 A 
ATOM     12  C   UNL     1      -0.275  -0.177  -1.667  0.00  0.00    +0.050 A 
ATOM     13  N   UNL     1      -0.404  -1.409  -1.084  0.00  0.00    -0.349 N 
ATOM     14  H   UNL     1      -0.393  -2.265  -1.540  0.00  0.00    +0.166 HD
ATOM     15  C   UNL     1      -0.549  -1.210   0.243  0.00  0.00    +0.171 A 
ATOM     16  N   UNL     1      -0.508   0.072   0.481  0.00  0.00    -0.350 N 
ATOM     17  H   UNL     1      -0.585   0.484   1.357  0.00  0.00    +0.166 HD
ENDBRANCH   9  12
ENDBRANCH   1   9
BRANCH   5  18
ATOM     18  C   UNL     1       5.706   0.559  -3.141  0.00  0.00    +0.111 C 
BRANCH  18  19
ATOM     19  C   UNL     1       6.706  -0.547  -3.484  0.00  0.00    +0.011 C 
ATOM     20  C   UNL     1       6.380  -1.803  -2.670  0.00  0.00    +0.033 C 
ATOM     21  C   UNL     1       7.431  -2.878  -2.961  0.00  0.00    +0.160 C 
ATOM     22  O   UNL     1       8.729  -2.369  -2.646  0.00  0.00    -0.380 OA
ATOM     23  C   UNL     1       9.108  -1.223  -3.411  0.00  0.00    +0.160 C 
ATOM     24  C   UNL     1       8.124  -0.082  -3.139  0.00  0.00    +0.033 C 
ENDBRANCH  18  19
ENDBRANCH   5  18
BRANCH   3  25
ATOM     25  O   UNL     1       2.910   2.148  -6.263  0.00  0.00    -0.369 OA
BRANCH  25  26
ATOM     26  C   UNL     1       3.820   3.247  -6.339  0.00  0.00    +0.197 C 
BRANCH  26  27
ATOM     27  C   UNL     1       3.757   3.857  -7.716  0.00  0.00    -0.004 A 
ATOM     28  C   UNL     1       4.587   3.397  -8.727  0.00  0.00    +0.009 A 
ATOM     29  C   UNL     1       4.494   3.988  -9.977  0.00  0.00    +0.020 A 
ATOM     30  C   UNL     1       3.583   5.009 -10.174  0.00  0.00    +0.111 A 
ATOM     31  N   UNL     1       2.809   5.421  -9.189  0.00  0.00    -0.263 NA
ATOM     32  C   UNL     1       2.866   4.878  -7.988  0.00  0.00    +0.116 A 
ENDBRANCH  26  27
ENDBRANCH  25  26
ENDBRANCH   3  25
TORSDOF 7
