REMARK  Name = ZINC41708958
REMARK  3 active torsions:
REMARK  status: ('A' for Active; 'I' for Inactive)
REMARK    1  A    between atoms: C_1  and  C_2
REMARK    2  A    between atoms: N_6  and  C_7
REMARK    3  A    between atoms: C_10  and  N_14
REMARK                            x       y       z     vdW  Elec       q    Type
REMARK                         _______ _______ _______ _____ _____    ______ ____
ROOT
ATOM      1  C   UNL     1      -0.018   1.503   0.010  0.00  0.00    +0.064 C 
ATOM      2  C   UNL     1       0.002  -0.004   0.002  0.00  0.00    +0.022 A 
ATOM      3  C   UNL     1       0.008  -0.779  -1.102  0.00  0.00    +0.034 A 
ATOM      4  C   UNL     1       0.029  -2.151  -0.627  0.00  0.00    +0.039 A 
ATOM      5  C   UNL     1       0.032  -2.095   0.762  0.00  0.00    +0.035 A 
ATOM      6  N   UNL     1       0.024  -0.804   1.115  0.00  0.00    -0.314 N 
ATOM      7  C   UNL     1       0.046  -3.328   1.629  0.00  0.00    +0.055 C 
ATOM      8  C   UNL     1      -0.447  -4.525   0.811  0.00  0.00    +0.014 C 
ATOM      9  C   UNL     1       0.340  -4.650  -0.497  0.00  0.00    +0.080 C 
ATOM     10  C   UNL     1       0.048  -3.426  -1.353  0.00  0.00    +0.165 C 
ATOM     11  O   UNL     1      -0.155  -3.498  -2.547  0.00  0.00    -0.292 OA
ENDROOT
BRANCH   6  12
ATOM     12  C   UNL     1       0.032  -0.336   2.437  0.00  0.00    +0.082 A 
ATOM     13  C   UNL     1      -1.165  -0.124   3.108  0.00  0.00    +0.031 A 
ATOM     14  C   UNL     1      -1.154   0.337   4.410  0.00  0.00    +0.035 A 
ATOM     15  C   UNL     1       0.048   0.588   5.047  0.00  0.00    +0.129 A 
ATOM     16  C   UNL     1       1.243   0.379   4.383  0.00  0.00    +0.073 A 
ATOM     17  C   UNL     1       1.239  -0.088   3.081  0.00  0.00    +0.149 A 
ATOM     18  F   UNL     1       2.406  -0.298   2.434  0.00  0.00    -0.203 F 
BRANCH  15  19
ATOM     19  N   UNL     1       0.055   1.082   6.442  0.00  0.00    +0.057 N 
ATOM     20  O   UNL     1      -0.989   1.266   7.024  0.00  0.00    -0.126 OA
ATOM     21  O   UNL     1       1.105   1.302   7.000  0.00  0.00    -0.126 OA
ENDBRANCH  15  19
ENDBRANCH   6  12
TORSDOF 2
