REMARK  Name = ZINC04767256
REMARK  11 active torsions:
REMARK  status: ('A' for Active; 'I' for Inactive)
REMARK    1  A    between atoms: C_1  and  C_2
REMARK    2  A    between atoms: C_7  and  C_19
REMARK    3  A    between atoms: C_9  and  C_13
REMARK    4  A    between atoms: C_10  and  C_12
REMARK    5  A    between atoms: C_13  and  O_15
REMARK    6  A    between atoms: O_15  and  C_16
REMARK    7  A    between atoms: C_16  and  C_17
REMARK    8  A    between atoms: C_16  and  C_18
REMARK    9  A    between atoms: C_28  and  C_30
REMARK   10  A    between atoms: C_30  and  O_32
REMARK   11  A    between atoms: O_32  and  C_33
REMARK                            x       y       z     vdW  Elec       q    Type
REMARK                         _______ _______ _______ _____ _____    ______ ____
ROOT
ATOM      1  C   UNL     1       0.685   1.690  -0.428  0.00  0.00    +0.009 C 
ATOM      2  C   UNL     1       0.452   0.181  -0.334  0.00  0.00    +0.013 C 
ATOM      3  C   UNL     1       1.212  -0.527  -1.458  0.00  0.00    +0.055 C 
ATOM      4  C   UNL     1       1.024  -2.019  -1.334  0.00  0.00    +0.016 C 
ATOM      5  C   UNL     1       0.850  -2.600  -0.128  0.00  0.00    +0.025 C 
ATOM      6  C   UNL     1       0.676  -4.094  -0.011  0.00  0.00    +0.093 C 
ATOM      7  C   UNL     1       0.298  -4.697  -1.332  0.00  0.00    +0.065 C 
ATOM      8  C   UNL     1       0.489  -4.030  -2.484  0.00  0.00    +0.016 C 
ATOM      9  N   UNL     1       1.031  -2.775  -2.476  0.00  0.00    -0.321 N 
ATOM     10  C   UNL     1       0.105  -4.671  -3.792  0.00  0.00    +0.061 C 
ATOM     11  C   UNL     1       0.824  -1.833   1.050  0.00  0.00    +0.176 C 
ATOM     12  O   UNL     1       0.676  -2.389   2.120  0.00  0.00    -0.291 OA
ATOM     13  C   UNL     1       0.972  -0.337   1.012  0.00  0.00    +0.171 C 
ATOM     14  H   UNL     1       1.424  -2.416  -3.287  0.00  0.00    +0.152 HD
ENDROOT
BRANCH   6  15
ATOM     15  C   UNL     1       1.969  -4.707   0.460  0.00  0.00    -0.021 A 
ATOM     16  C   UNL     1       3.120  -4.554  -0.290  0.00  0.00    +0.005 A 
ATOM     17  C   UNL     1       4.306  -5.117   0.142  0.00  0.00    +0.000 A 
ATOM     18  C   UNL     1       4.342  -5.833   1.325  0.00  0.00    +0.001 A 
ATOM     19  C   UNL     1       3.191  -5.987   2.075  0.00  0.00    +0.015 A 
ATOM     20  C   UNL     1       2.005  -5.419   1.645  0.00  0.00    +0.022 A 
ATOM     21 BR   UNL     1       0.432  -5.623   2.674  0.00  0.00    -0.050 Br
ENDBRANCH   6  15
BRANCH   7  22
ATOM     22  C   UNL     1      -0.271  -5.991  -1.367  0.00  0.00    +0.338 C 
ATOM     23  O   UNL     1      -0.694  -6.442  -2.415  0.00  0.00    -0.245 OA
BRANCH  22  24
ATOM     24  O   UNL     1      -0.344  -6.726  -0.237  0.00  0.00    -0.459 OA
BRANCH  24  25
ATOM     25  C   UNL     1      -0.931  -8.025  -0.345  0.00  0.00    +0.171 C 
ATOM     26  C   UNL     1      -0.306  -8.955   0.697  0.00  0.00    +0.052 C 
ATOM     27  C   UNL     1      -2.438  -7.926  -0.102  0.00  0.00    +0.052 C 
ENDBRANCH  24  25
ENDBRANCH  22  24
ENDBRANCH   7  22
BRANCH  13  28
ATOM     28  C   UNL     1       0.175   0.282   2.131  0.00  0.00    +0.318 C 
ATOM     29  O   UNL     1      -0.718   1.057   1.881  0.00  0.00    -0.250 OA
BRANCH  28  30
ATOM     30  O   UNL     1       0.456  -0.029   3.406  0.00  0.00    -0.467 OA
ATOM     31  C   UNL     1      -0.340   0.594   4.417  0.00  0.00    +0.280 C 
ENDBRANCH  28  30
ENDBRANCH  13  28
TORSDOF 6
