REMARK  Name = ZINC26298065
REMARK  9 active torsions:
REMARK  status: ('A' for Active; 'I' for Inactive)
REMARK    1  A    between atoms: C_1  and  C_2
REMARK    2  A    between atoms: C_2  and  C_4
REMARK    3  A    between atoms: C_2  and  N_14
REMARK    4  A    between atoms: C_7  and  S_10
REMARK    5  A    between atoms: S_10  and  N_13
REMARK    6  A    between atoms: N_14  and  C_15
REMARK    7  A    between atoms: N_14  and  C_16
REMARK    8  A    between atoms: C_16  and  C_17
REMARK    9  A    between atoms: C_28  and  C_30
REMARK                            x       y       z     vdW  Elec       q    Type
REMARK                         _______ _______ _______ _____ _____    ______ ____
ROOT
ATOM      1  C   UNL     1       1.730   4.851   1.799  0.00  0.00    +0.020 C 
ENDROOT
BRANCH   1   2
ATOM      2  C   UNL     1       0.690   5.794   1.252  0.00  0.00    +0.204 C 
ATOM      3  O   UNL     1       0.718   6.969   1.554  0.00  0.00    -0.277 OA
ATOM      4  N   UNL     1      -0.271   5.333   0.428  0.00  0.00    -0.264 N 
ATOM      5  C   UNL     1      -0.626   3.985   0.507  0.00  0.00    +0.050 A 
ATOM      6  C   UNL     1      -0.282   3.282   1.659  0.00  0.00    +0.024 A 
ATOM      7  C   UNL     1      -0.592   1.943   1.780  0.00  0.00    +0.002 A 
ATOM      8  C   UNL     1      -1.249   1.285   0.756  0.00  0.00    +0.001 A 
ATOM      9  C   UNL     1      -1.594   1.970  -0.392  0.00  0.00    +0.016 A 
ATOM     10  C   UNL     1      -1.292   3.321  -0.518  0.00  0.00    +0.029 A 
ATOM     11  S   UNL     1      -1.762   4.170  -1.992  0.00  0.00    -0.121 S 
ATOM     12  C   UNL     1      -0.775   5.695  -1.928  0.00  0.00    +0.102 C 
ATOM     13  C   UNL     1      -0.893   6.266  -0.507  0.00  0.00    +0.121 C 
BRANCH  13  14
ATOM     14  C   UNL     1      -0.189   7.597  -0.437  0.00  0.00    -0.026 A 
ATOM     15  C   UNL     1       1.027   7.769  -1.071  0.00  0.00    +0.005 A 
ATOM     16  C   UNL     1       1.671   8.991  -1.011  0.00  0.00    +0.000 A 
ATOM     17  C   UNL     1       1.104  10.037  -0.308  0.00  0.00    +0.000 A 
ATOM     18  C   UNL     1      -0.109   9.863   0.331  0.00  0.00    +0.000 A 
ATOM     19  C   UNL     1      -0.756   8.643   0.267  0.00  0.00    +0.005 A 
ENDBRANCH  13  14
ENDBRANCH   1   2
BRANCH   1  20
ATOM     20  N   UNL     1       2.933   5.609   2.169  0.00  0.00    +0.388 N 
ATOM     21  C   UNL     1       2.660   6.516   3.291  0.00  0.00    -0.095 C 
ATOM     22  H   UNL     1       3.226   6.221   1.303  0.00  0.00    -0.081 HD
BRANCH  20  24
ATOM     23  C   UNL     1       4.368   3.846   1.257  0.00  0.00    -0.008 C 
ATOM     24  C   UNL     1       4.049   4.706   2.481  0.00  0.00    -0.041 C 
BRANCH  24  25
ATOM     25  C   UNL     1       5.263   5.518   2.855  0.00  0.00    -0.061 A 
ATOM     26  C   UNL     1       5.562   6.673   2.158  0.00  0.00    +0.004 A 
ATOM     27  C   UNL     1       6.673   7.421   2.504  0.00  0.00    +0.029 A 
ATOM     28  C   UNL     1       7.489   7.007   3.540  0.00  0.00    +0.105 A 
ATOM     29  C   UNL     1       7.192   5.848   4.233  0.00  0.00    +0.029 A 
ATOM     30  C   UNL     1       6.079   5.104   3.891  0.00  0.00    +0.004 A 
BRANCH  28  31
ATOM     31  S   UNL     1       8.908   7.956   3.977  0.00  0.00    +0.056 S 
ATOM     32  O   UNL     1       8.660   9.284   3.534  0.00  0.00    -0.153 OA
ATOM     33  O   UNL     1       9.201   7.648   5.333  0.00  0.00    -0.153 OA
BRANCH  31  34
ATOM     34  N   UNL     1      10.175   7.385   3.077  0.00  0.00    -0.204 NA
ATOM     35  H   UNL     1      11.084   7.954   3.321  0.00  0.00    +0.144 HD
ATOM     36  H   UNL     1       9.946   7.501   2.007  0.00  0.00    +0.144 HD
ENDBRANCH  31  34
ENDBRANCH  28  31
ENDBRANCH  24  25
ENDBRANCH  20  24
ENDBRANCH   1  20
TORSDOF 7
