REMARK  Name = ZINC43211804
REMARK  11 active torsions:
REMARK  status: ('A' for Active; 'I' for Inactive)
REMARK    1  A    between atoms: C_1  and  C_2
REMARK    2  A    between atoms: C_7  and  C_8
REMARK    3  A    between atoms: N_16  and  C_19
REMARK    4  A    between atoms: C_19  and  C_20
REMARK    5  A    between atoms: C_19  and  C_21
REMARK    6  A    between atoms: C_19  and  C_22
REMARK    7  A    between atoms: C_23  and  C_25
REMARK    8  A    between atoms: C_23  and  C_29
REMARK    9  A    between atoms: C_25  and  C_26
REMARK   10  A    between atoms: C_26  and  C_27
REMARK   11  A    between atoms: C_26  and  C_28
REMARK                            x       y       z     vdW  Elec       q    Type
REMARK                         _______ _______ _______ _____ _____    ______ ____
ROOT
ATOM      1  C   UNL     1       0.985  -0.859   1.719  0.00  0.00    -0.026 C 
ATOM      2  C   UNL     1       2.297  -0.199   2.106  0.00  0.00    +0.077 C 
ATOM      3  C   UNL     1       2.796  -1.267   3.152  0.00  0.00    +0.086 C 
ATOM      4  C   UNL     1       4.191  -0.926   3.276  0.00  0.00    +0.225 C 
ATOM      5  O   UNL     1       4.885  -1.007   4.266  0.00  0.00    -0.275 OA
ATOM      6  N   UNL     1       4.564  -0.490   2.028  0.00  0.00    -0.236 N 
ATOM      7  C   UNL     1       3.490  -0.242   1.203  0.00  0.00    +0.225 C 
ATOM      8  O   UNL     1       3.501  -0.095  -0.000  0.00  0.00    -0.275 OA
ATOM      9  C   UNL     1       1.600  -1.453   3.992  0.00  0.00    +0.048 C 
ATOM     10  N   UNL     1       0.500  -1.547   2.954  0.00  0.00    +0.395 N 
ATOM     11  H   UNL     1      -0.329  -1.087   3.298  0.00  0.00    -0.083 HD
ATOM     12  H   UNL     1       0.296  -2.513   2.749  0.00  0.00    -0.083 HD
ENDROOT
BRANCH   1  19
ATOM     13  C   UNL     1       0.783  -0.043  -1.045  0.00  0.00    +0.044 C 
ATOM     14  C   UNL     1       1.115  -1.473  -0.704  0.00  0.00    -0.049 A 
ATOM     15  C   UNL     1       1.329  -2.393  -1.714  0.00  0.00    +0.003 A 
ATOM     16  C   UNL     1       1.633  -3.704  -1.401  0.00  0.00    +0.000 A 
ATOM     17  C   UNL     1       1.724  -4.096  -0.078  0.00  0.00    +0.000 A 
ATOM     18  C   UNL     1       1.511  -3.176   0.931  0.00  0.00    +0.002 A 
ATOM     19  C   UNL     1       1.211  -1.863   0.618  0.00  0.00    -0.058 A 
ENDBRANCH   1  19
BRANCH   6  20
ATOM     20  C   UNL     1       5.957  -0.297   1.619  0.00  0.00    +0.036 C 
ATOM     21  C   UNL     1       6.710  -1.624   1.730  0.00  0.00    +0.031 C 
ATOM     22  C   UNL     1       6.000   0.193   0.170  0.00  0.00    +0.031 C 
ATOM     23  C   UNL     1       6.617   0.742   2.528  0.00  0.00    +0.031 C 
ENDBRANCH   6  20
BRANCH   9  24
ATOM     24  C   UNL     1       1.399  -0.273   4.907  0.00  0.00    +0.346 C 
ATOM     25  O   UNL     1       0.416   0.438   4.777  0.00  0.00    -0.248 OA
ATOM     26  O   UNL     1       2.217  -0.029   5.776  0.00  0.00    -0.248 OA
ENDBRANCH   9  24
BRANCH   9  27
ATOM     27  C   UNL     1       1.695  -2.754   4.792  0.00  0.00    +0.002 C 
BRANCH  27  28
ATOM     28  C   UNL     1       0.498  -2.858   5.739  0.00  0.00    -0.018 C 
ATOM     29  C   UNL     1      -0.784  -3.034   4.923  0.00  0.00    +0.007 C 
ATOM     30  C   UNL     1       0.683  -4.062   6.664  0.00  0.00    +0.007 C 
ENDBRANCH  27  28
ENDBRANCH   9  27
TORSDOF 5
