REMARK  Name = ZINC64502350
REMARK  7 active torsions:
REMARK  status: ('A' for Active; 'I' for Inactive)
REMARK    1  A    between atoms: C_1  and  C_2
REMARK    2  A    between atoms: C_2  and  N_3
REMARK    3  A    between atoms: C_11  and  N_15
REMARK    4  A    between atoms: C_18  and  C_21
REMARK    5  A    between atoms: N_23  and  C_24
REMARK    6  A    between atoms: C_24  and  C_25
REMARK    7  A    between atoms: C_25  and  C_26
REMARK                            x       y       z     vdW  Elec       q    Type
REMARK                         _______ _______ _______ _____ _____    ______ ____
ROOT
ATOM      1  N   UNL     1      -4.337  -0.050  -1.232  0.00  0.00    +0.398 N 
ATOM      2  C   UNL     1      -4.105   0.802  -0.059  0.00  0.00    -0.075 C 
ATOM      3  C   UNL     1      -4.982   2.053  -0.151  0.00  0.00    -0.006 C 
ATOM      4  C   UNL     1      -6.455   1.634  -0.198  0.00  0.00    +0.071 C 
ATOM      5  C   UNL     1      -6.669   0.687  -1.381  0.00  0.00    -0.006 C 
ATOM      6  C   UNL     1      -5.729  -0.513  -1.244  0.00  0.00    -0.075 C 
ATOM      7  H   UNL     1      -4.152   0.479  -2.071  0.00  0.00    -0.078 HD
ENDROOT
BRANCH   1  16
ATOM      8  N   UNL     1      -1.372  -0.511   0.012  0.00  0.00    -0.255 N 
ATOM      9  C   UNL     1      -2.009  -0.751   1.231  0.00  0.00    +0.148 A 
ATOM     10  C   UNL     1      -3.187  -1.503   1.251  0.00  0.00    +0.067 A 
ATOM     11  C   UNL     1      -3.821  -1.752   2.456  0.00  0.00    +0.028 A 
ATOM     12  C   UNL     1      -3.254  -1.231   3.614  0.00  0.00    +0.022 A 
ATOM     13  C   UNL     1      -2.091  -0.493   3.522  0.00  0.00    +0.113 A 
ATOM     14  N   UNL     1      -1.508  -0.274   2.358  0.00  0.00    -0.238 NA
ATOM     15  N   UNL     1      -3.706  -1.985   0.043  0.00  0.00    -0.346 N 
ATOM     16  C   UNL     1      -3.437  -1.210  -1.178  0.00  0.00    +0.105 C 
ATOM     17  C   UNL     1      -2.007  -0.735  -1.153  0.00  0.00    +0.224 C 
ATOM     18  O   UNL     1      -1.418  -0.556  -2.199  0.00  0.00    -0.275 OA
ATOM     19  H   UNL     1      -4.225  -2.804   0.012  0.00  0.00    +0.145 HD
BRANCH   8  21
ATOM     20  C   UNL     1      -0.019   1.526   0.010  0.00  0.00    +0.025 C 
ATOM     21  C   UNL     1       0.002  -0.004   0.002  0.00  0.00    +0.112 C 
ENDBRANCH   8  21
ENDBRANCH   1  16
BRANCH   4  22
ATOM     22  C   UNL     1      -7.320   2.856  -0.367  0.00  0.00    +0.216 C 
ATOM     23  O   UNL     1      -6.811   3.954  -0.443  0.00  0.00    -0.276 OA
ATOM     24  N   UNL     1      -8.660   2.729  -0.434  0.00  0.00    -0.315 N 
ATOM     25  H   UNL     1      -9.068   1.850  -0.373  0.00  0.00    +0.149 HD
BRANCH  24  26
ATOM     26  C   UNL     1      -9.502   3.916  -0.599  0.00  0.00    +0.108 C 
BRANCH  26  27
ATOM     27  C   UNL     1     -10.973   3.497  -0.645  0.00  0.00    +0.052 C 
BRANCH  27  28
ATOM     28  C   UNL     1     -11.838   4.719  -0.814  0.00  0.00    -0.040 C 
ATOM     29  C   UNL     1     -12.324   5.217  -1.974  0.00  0.00    -0.001 A 
ATOM     30  C   UNL     1     -12.195   4.788  -3.372  0.00  0.00    +0.010 A 
ATOM     31  C   UNL     1     -12.809   5.507  -4.339  0.00  0.00    +0.001 A 
ATOM     32  C   UNL     1     -13.563   6.650  -4.040  0.00  0.00    +0.002 A 
ATOM     33  C   UNL     1     -13.728   7.107  -2.780  0.00  0.00    +0.026 A 
ATOM     34  C   UNL     1     -13.126   6.427  -1.685  0.00  0.00    +0.043 A 
ATOM     35  N   UNL     1     -13.136   6.668  -0.397  0.00  0.00    -0.380 N 
ATOM     36  C   UNL     1     -12.346   5.633   0.279  0.00  0.00    +0.144 C 
ATOM     37  H   UNL     1     -13.594   7.404   0.038  0.00  0.00    +0.160 HD
ENDBRANCH  27  28
ENDBRANCH  26  27
ENDBRANCH  24  26
ENDBRANCH   4  22
TORSDOF 6
