REMARK  Name = ZINC11061005
REMARK  7 active torsions:
REMARK  status: ('A' for Active; 'I' for Inactive)
REMARK    1  A    between atoms: C_1  and  C_2
REMARK    2  A    between atoms: C_7  and  N_8
REMARK    3  A    between atoms: C_9  and  C_11
REMARK    4  A    between atoms: C_11  and  O_12
REMARK    5  A    between atoms: O_12  and  C_13
REMARK    6  A    between atoms: C_13  and  C_15
REMARK    7  A    between atoms: C_16  and  C_30
REMARK                            x       y       z     vdW  Elec       q    Type
REMARK                         _______ _______ _______ _____ _____    ______ ____
ROOT
ATOM      1  C   UNL     1       3.151   5.728  -6.388  0.00  0.00    +0.347 C 
ATOM      2  O   UNL     1       2.961   6.889  -6.078  0.00  0.00    -0.244 OA
ENDROOT
BRANCH   1   3
ATOM      3  C   UNL     1       2.935   4.663  -5.406  0.00  0.00    +0.102 A 
ATOM      4  C   UNL     1       2.526   4.771  -4.108  0.00  0.00    -0.015 A 
ATOM      5  C   UNL     1       2.379   3.623  -3.328  0.00  0.00    +0.076 A 
ATOM      6  C   UNL     1       2.679   2.399  -3.970  0.00  0.00    +0.116 A 
ATOM      7  S   UNL     1       3.142   2.902  -5.609  0.00  0.00    -0.062 S 
ATOM      8  N   UNL     1       2.582   1.235  -3.341  0.00  0.00    -0.226 NA
ATOM      9  C   UNL     1       2.198   1.157  -2.098  0.00  0.00    +0.114 A 
ATOM     10  N   UNL     1       1.879   2.269  -1.377  0.00  0.00    -0.296 N 
ATOM     11  C   UNL     1       1.950   3.498  -1.916  0.00  0.00    +0.263 A 
ATOM     12  O   UNL     1       1.669   4.486  -1.260  0.00  0.00    -0.267 OA
ATOM     13  C   UNL     1       1.449   2.093   0.017  0.00  0.00    +0.126 C 
ATOM     14  C   UNL     1       0.031   1.528   0.037  0.00  0.00    +0.022 C 
ATOM     15  C   UNL     1       0.045   0.009   0.028  0.00  0.00    +0.002 C 
ATOM     16  C   UNL     1       0.614  -0.551  -1.264  0.00  0.00    +0.008 C 
ATOM     17  C   UNL     1       2.090  -0.188  -1.417  0.00  0.00    +0.074 C 
ATOM     18  C   UNL     1       2.234   6.127  -3.518  0.00  0.00    +0.046 C 
ENDBRANCH   1   3
BRANCH   1  19
ATOM     19  O   UNL     1       3.562   5.422  -7.636  0.00  0.00    -0.451 OA
BRANCH  19  20
ATOM     20  C   UNL     1       3.756   6.528  -8.556  0.00  0.00    +0.328 C 
BRANCH  20  22
ATOM     21  N   UNL     1       4.455   6.848 -10.907  0.00  0.00    -0.282 N 
ATOM     22  C   UNL     1       4.211   5.997  -9.891  0.00  0.00    +0.255 C 
ATOM     23  O   UNL     1       4.358   4.804 -10.050  0.00  0.00    -0.272 OA
ATOM     24  H   UNL     1       4.262   7.793 -10.805  0.00  0.00    +0.155 HD
BRANCH  21  31
ATOM     25  C   UNL     1       3.959   8.332 -13.283  0.00  0.00    +0.046 C 
ATOM     26  C   UNL     1       4.770   7.061 -13.292  0.00  0.00    -0.028 A 
ATOM     27  C   UNL     1       5.301   6.589 -14.476  0.00  0.00    +0.025 A 
ATOM     28  C   UNL     1       6.041   5.419 -14.486  0.00  0.00    +0.041 A 
ATOM     29  C   UNL     1       6.256   4.724 -13.309  0.00  0.00    +0.022 A 
ATOM     30  C   UNL     1       5.731   5.195 -12.121  0.00  0.00    +0.025 A 
ATOM     31  C   UNL     1       4.988   6.368 -12.109  0.00  0.00    +0.036 A 
ATOM     32 CL   UNL     1       6.701   4.824 -15.977  0.00  0.00    -0.084 Cl
ENDBRANCH  21  31
ENDBRANCH  20  22
ENDBRANCH  19  20
ENDBRANCH   1  19
TORSDOF 5
