REMARK  Name = ZINC21863366
REMARK  7 active torsions:
REMARK  status: ('A' for Active; 'I' for Inactive)
REMARK    1  A    between atoms: C_1  and  C_2
REMARK    2  A    between atoms: C_5  and  N_8
REMARK    3  A    between atoms: C_9  and  C_11
REMARK    4  A    between atoms: C_11  and  C_34
REMARK    5  A    between atoms: C_14  and  C_29
REMARK    6  A    between atoms: N_20  and  C_21
REMARK    7  A    between atoms: C_21  and  C_22
REMARK                            x       y       z     vdW  Elec       q    Type
REMARK                         _______ _______ _______ _____ _____    ______ ____
ROOT
ATOM      1  C   UNL     1      -5.229   3.311   0.801  0.00  0.00    +0.129 C 
ATOM      2  C   UNL     1      -3.861   2.718   0.466  0.00  0.00    +0.157 C 
ATOM      3  N   UNL     1      -2.844   3.768   0.563  0.00  0.00    -0.331 N 
ATOM      4  C   UNL     1      -1.529   3.683   0.881  0.00  0.00    +0.085 A 
ATOM      5  C   UNL     1      -0.984   4.957   0.813  0.00  0.00    +0.032 A 
ATOM      6  C   UNL     1      -2.005   5.838   0.455  0.00  0.00    +0.033 A 
ATOM      7  C   UNL     1      -3.149   5.103   0.318  0.00  0.00    +0.105 A 
ATOM      8  C   UNL     1      -4.512   5.507  -0.040  0.00  0.00    +0.264 C 
ATOM      9  O   UNL     1      -4.763   6.626  -0.450  0.00  0.00    -0.268 OA
ATOM     10  N   UNL     1      -5.478   4.570   0.109  0.00  0.00    -0.276 N 
ATOM     11  C   UNL     1      -5.309   3.552   2.310  0.00  0.00    +0.043 C 
ENDROOT
BRANCH   4  12
ATOM     12  C   UNL     1      -0.804   2.454   1.230  0.00  0.00    +0.151 A 
ATOM     13  C   UNL     1       0.495   2.377   1.637  0.00  0.00    +0.051 A 
ATOM     14  C   UNL     1       0.770   1.016   1.862  0.00  0.00    +0.042 A 
ATOM     15  C   UNL     1      -0.360   0.333   1.586  0.00  0.00    +0.196 A 
ATOM     16  O   UNL     1      -1.307   1.203   1.200  0.00  0.00    -0.461 OA
ENDBRANCH   4  12
BRANCH   1  18
ATOM     17  N   UNL     1      -6.017   1.345  -0.477  0.00  0.00    -0.311 N 
ATOM     18  C   UNL     1      -6.296   2.321   0.410  0.00  0.00    +0.238 C 
ATOM     19  O   UNL     1      -7.406   2.402   0.893  0.00  0.00    -0.273 OA
ATOM     20  H   UNL     1      -5.040   1.324  -0.982  0.00  0.00    +0.149 HD
BRANCH  17  25
ATOM     21  C   UNL     1      -3.881  -2.668  -0.938  0.00  0.00    +0.007 C 
ATOM     22  C   UNL     1      -5.273  -2.034  -0.983  0.00  0.00    -0.014 C 
ATOM     23  C   UNL     1      -5.312  -0.965  -2.076  0.00  0.00    +0.005 C 
ATOM     24  C   UNL     1      -6.704  -0.331  -2.121  0.00  0.00    +0.022 C 
ATOM     25  C   UNL     1      -7.015   0.312  -0.768  0.00  0.00    +0.073 C 
ATOM     26  C   UNL     1      -6.976  -0.757   0.326  0.00  0.00    +0.022 C 
ATOM     27  C   UNL     1      -5.585  -1.391   0.370  0.00  0.00    +0.005 C 
ENDBRANCH  17  25
ENDBRANCH   1  18
BRANCH  10  28
ATOM     28  C   UNL     1      -6.810   4.827  -0.443  0.00  0.00    +0.145 C 
BRANCH  28  29
ATOM     29  C   UNL     1      -6.932   4.168  -1.792  0.00  0.00    -0.012 A 
ATOM     30  C   UNL     1      -7.705   3.032  -1.939  0.00  0.00    +0.006 A 
ATOM     31  C   UNL     1      -7.817   2.427  -3.177  0.00  0.00    +0.000 A 
ATOM     32  C   UNL     1      -7.155   2.958  -4.269  0.00  0.00    +0.001 A 
ATOM     33  C   UNL     1      -6.382   4.094  -4.123  0.00  0.00    +0.020 A 
ATOM     34  C   UNL     1      -6.274   4.703  -2.885  0.00  0.00    +0.046 A 
ATOM     35 CL   UNL     1      -5.309   6.135  -2.703  0.00  0.00    -0.083 Cl
ENDBRANCH  28  29
ENDBRANCH  10  28
TORSDOF 5
