REMARK  Name = ZINC35671294
REMARK  4 active torsions:
REMARK  status: ('A' for Active; 'I' for Inactive)
REMARK    1  A    between atoms: C_5  and  C_7
REMARK    2  A    between atoms: C_7  and  C_9
REMARK    3  A    between atoms: C_7  and  N_25
REMARK    4  A    between atoms: C_9  and  N_10
REMARK                            x       y       z     vdW  Elec       q    Type
REMARK                         _______ _______ _______ _____ _____    ______ ____
ROOT
ATOM      1  N   UNL     1       0.525  -2.441  -2.384  0.00  0.00    -0.300 N 
ATOM      2  C   UNL     1      -0.492  -3.336  -2.498  0.00  0.00    +0.202 A 
ATOM      3  N   UNL     1      -1.488  -3.178  -3.311  0.00  0.00    -0.235 NA
ATOM      4  C   UNL     1      -1.590  -2.078  -4.128  0.00  0.00    +0.107 A 
ATOM      5  C   UNL     1      -2.615  -1.788  -5.052  0.00  0.00    +0.081 A 
ATOM      6  C   UNL     1      -2.497  -0.617  -5.765  0.00  0.00    +0.070 A 
ATOM      7  S   UNL     1      -0.999   0.120  -5.197  0.00  0.00    -0.073 S 
ATOM      8  C   UNL     1      -0.547  -1.137  -4.026  0.00  0.00    +0.105 A 
ATOM      9  C   UNL     1       0.512  -1.320  -3.144  0.00  0.00    +0.268 A 
ATOM     10  O   UNL     1       1.407  -0.495  -3.061  0.00  0.00    -0.266 OA
ATOM     11  S   UNL     1      -3.644  -0.060  -6.968  0.00  0.00    -0.107 S 
ATOM     12  C   UNL     1      -4.394  -1.634  -7.503  0.00  0.00    +0.171 C 
ATOM     13  C   UNL     1      -4.567  -2.527  -6.308  0.00  0.00    +0.227 C 
ATOM     14  O   UNL     1      -5.560  -3.224  -6.287  0.00  0.00    -0.275 OA
ATOM     15  N   UNL     1      -3.741  -2.631  -5.270  0.00  0.00    -0.282 N 
ATOM     16  H   UNL     1      -3.917  -3.328  -4.619  0.00  0.00    +0.155 HD
ENDROOT
BRANCH   1  17
ATOM     17  C   UNL     1       1.621  -2.683  -1.443  0.00  0.00    +0.116 C 
BRANCH  17  18
ATOM     18  C   UNL     1       1.257  -2.103  -0.075  0.00  0.00    -0.016 C 
BRANCH  18  23
ATOM     19  C   UNL     1      -0.330   1.308  -0.393  0.00  0.00    +0.000 A 
ATOM     20  C   UNL     1       0.781   2.130  -0.407  0.00  0.00    +0.001 A 
ATOM     21  C   UNL     1       2.047   1.584  -0.315  0.00  0.00    +0.020 A 
ATOM     22  C   UNL     1       2.202   0.213  -0.207  0.00  0.00    +0.043 A 
ATOM     23  C   UNL     1       1.089  -0.609  -0.192  0.00  0.00    -0.041 A 
ATOM     24  C   UNL     1      -0.176  -0.061  -0.286  0.00  0.00    +0.003 A 
ATOM     25 CL   UNL     1       3.791  -0.475  -0.091  0.00  0.00    -0.083 Cl
ENDBRANCH  18  23
BRANCH  18  26
ATOM     26  N   UNL     1       0.000  -2.701   0.392  0.00  0.00    +0.385 N 
ATOM     27  C   UNL     1       0.189  -4.152   0.652  0.00  0.00    -0.078 C 
ATOM     28  C   UNL     1      -0.966  -4.491   1.627  0.00  0.00    -0.020 C 
ATOM     29  C   UNL     1      -1.048  -3.230   2.517  0.00  0.00    -0.020 C 
ATOM     30  C   UNL     1      -0.397  -2.108   1.688  0.00  0.00    -0.078 C 
ATOM     31  H   UNL     1      -0.728  -2.562  -0.292  0.00  0.00    -0.081 HD
ENDBRANCH  18  26
ENDBRANCH  17  18
ENDBRANCH   1  17
TORSDOF 4
