REMARK  Name = ZINC14885834
REMARK  7 active torsions:
REMARK  status: ('A' for Active; 'I' for Inactive)
REMARK    1  A    between atoms: C_1  and  C_2
REMARK    2  A    between atoms: C_2  and  C_3
REMARK    3  A    between atoms: C_3  and  C_14
REMARK    4  A    between atoms: N_6  and  C_10
REMARK    5  A    between atoms: C_10  and  C_11
REMARK    6  A    between atoms: C_11  and  C_13
REMARK    7  A    between atoms: C_20  and  C_22
REMARK                            x       y       z     vdW  Elec       q    Type
REMARK                         _______ _______ _______ _____ _____    ______ ____
ROOT
ATOM      1  C   UNL     1      -0.919  10.130   0.311  0.00  0.00    +0.024 C 
ATOM      2  C   UNL     1      -0.376   9.568   1.627  0.00  0.00    +0.025 C 
ATOM      3  C   UNL     1      -1.242   8.383   2.067  0.00  0.00    +0.108 C 
ATOM      4  N   UNL     1      -1.298   7.406   0.972  0.00  0.00    -0.297 N 
ATOM      5  C   UNL     1      -1.715   7.862  -0.362  0.00  0.00    +0.108 C 
ATOM      6  C   UNL     1      -0.850   9.052  -0.773  0.00  0.00    +0.025 C 
ATOM      7  C   UNL     1      -0.969   6.116   1.184  0.00  0.00    +0.254 C 
ATOM      8  O   UNL     1      -0.920   5.339   0.249  0.00  0.00    -0.269 OA
ENDROOT
BRANCH   7   9
ATOM      9  C   UNL     1      -0.669   5.651   2.541  0.00  0.00    +0.077 A 
ATOM     10  C   UNL     1       0.281   4.718   2.952  0.00  0.00    -0.025 A 
ATOM     11  C   UNL     1       0.352   4.461   4.318  0.00  0.00    -0.036 A 
ATOM     12  C   UNL     1      -0.506   5.136   5.145  0.00  0.00    +0.049 A 
ATOM     13  S   UNL     1      -1.427   6.134   4.076  0.00  0.00    -0.092 S 
ATOM     14  C   UNL     1       1.344   3.465   4.918  0.00  0.00    +0.036 C 
ATOM     15  C   UNL     1       1.863   2.552   3.807  0.00  0.00    +0.005 C 
ATOM     16  C   UNL     1       2.373   3.411   2.647  0.00  0.00    +0.005 C 
ATOM     17  C   UNL     1       1.179   4.035   1.926  0.00  0.00    +0.037 C 
ENDBRANCH   7   9
BRANCH   1  18
ATOM     18  C   UNL     1      -0.077  11.335  -0.115  0.00  0.00    +0.115 C 
ATOM     19  C   UNL     1      -0.115  12.414   0.949  0.00  0.00    +0.247 C 
ATOM     20  O   UNL     1      -1.090  13.014   1.349  0.00  0.00    -0.273 OA
ATOM     21  N   UNL     1       1.160  12.567   1.358  0.00  0.00    -0.220 N 
ATOM     22  C   UNL     1       1.989  11.743   0.708  0.00  0.00    +0.310 C 
ATOM     23  O   UNL     1       3.188  11.698   0.904  0.00  0.00    -0.252 OA
ATOM     24  N   UNL     1       1.348  10.971  -0.188  0.00  0.00    -0.285 N 
ATOM     25  H   UNL     1       1.747  10.304  -0.769  0.00  0.00    +0.151 HD
BRANCH  18  27
ATOM     26  C   UNL     1       0.366  13.006  -1.918  0.00  0.00    +0.006 C 
ATOM     27  C   UNL     1      -0.566  11.884  -1.456  0.00  0.00    +0.032 C 
ENDBRANCH  18  27
BRANCH  21  28
ATOM     28  C   UNL     1       1.585  13.517   2.389  0.00  0.00    +0.148 C 
BRANCH  28  29
ATOM     29  C   UNL     1       1.530  12.852   3.740  0.00  0.00    -0.062 C 
ATOM     30  C   UNL     1       2.607  12.303   4.244  0.00  0.00    +0.009 C 
ATOM     31  C   UNL     1       0.235  12.817   4.510  0.00  0.00    +0.040 C 
ENDBRANCH  28  29
ENDBRANCH  21  28
ENDBRANCH   1  18
TORSDOF 5
