REMARK  Name = ZINC05126154
REMARK  6 active torsions:
REMARK  status: ('A' for Active; 'I' for Inactive)
REMARK    1  A    between atoms: C_4  and  N_25
REMARK    2  A    between atoms: C_5  and  C_7
REMARK    3  A    between atoms: C_8  and  C_9
REMARK    4  A    between atoms: N_10  and  N_11
REMARK    5  A    between atoms: C_12  and  C_14
REMARK    6  A    between atoms: C_16  and  C_20
REMARK                            x       y       z     vdW  Elec       q    Type
REMARK                         _______ _______ _______ _____ _____    ______ ____
ROOT
ATOM      1  N   UNL     1       1.167  -3.253  -0.521  0.00  0.00    -0.202 N 
ATOM      2  C   UNL     1       2.119  -2.350  -0.833  0.00  0.00    +0.281 C 
ATOM      3  O   UNL     1       3.210  -2.726  -1.218  0.00  0.00    -0.267 OA
ATOM      4  H   UNL     1       0.297  -2.953  -0.214  0.00  0.00    +0.178 HD
ENDROOT
BRANCH   2   5
ATOM      5  C   UNL     1       1.837  -0.912  -0.708  0.00  0.00    +0.122 A 
ATOM      6  C   UNL     1       2.704   0.128  -0.988  0.00  0.00    +0.063 A 
ATOM      7  C   UNL     1       1.976   1.302  -0.714  0.00  0.00    +0.100 A 
ATOM      8  N   UNL     1       0.777   0.939  -0.306  0.00  0.00    -0.173 NA
ATOM      9  N   UNL     1       0.667  -0.340  -0.293  0.00  0.00    -0.272 N 
ATOM     10  H   UNL     1      -0.152  -0.843  -0.019  0.00  0.00    +0.189 HD
BRANCH   7  11
ATOM     11  C   UNL     1       2.468   2.690  -0.859  0.00  0.00    +0.039 A 
ATOM     12  C   UNL     1       1.815   3.867  -0.611  0.00  0.00    +0.018 A 
ATOM     13  C   UNL     1       2.485   5.053  -0.821  0.00  0.00    +0.008 A 
ATOM     14  C   UNL     1       3.767   5.019  -1.264  0.00  0.00    +0.046 A 
ATOM     15  S   UNL     1       4.072   3.265  -1.394  0.00  0.00    -0.095 S 
ENDBRANCH   7  11
ENDBRANCH   2   5
BRANCH   1  17
ATOM     16  C   UNL     1       0.515  -5.495  -0.338  0.00  0.00    +0.130 C 
ATOM     17  N   UNL     1       1.435  -4.623  -0.640  0.00  0.00    -0.188 NA
BRANCH  16  19
ATOM     18  C   UNL     1      -0.201  -7.780  -0.269  0.00  0.00    +0.012 C 
ATOM     19  C   UNL     1       0.786  -6.881  -0.459  0.00  0.00    +0.022 C 
BRANCH  18  24
ATOM     20  C   UNL     1      -3.387  -5.840  -0.666  0.00  0.00    +0.001 A 
ATOM     21  C   UNL     1      -4.197  -6.462   0.269  0.00  0.00    +0.002 A 
ATOM     22  C   UNL     1      -3.710  -7.510   1.029  0.00  0.00    +0.033 A 
ATOM     23  C   UNL     1      -2.414  -7.948   0.857  0.00  0.00    +0.133 A 
ATOM     24  C   UNL     1      -1.587  -7.322  -0.082  0.00  0.00    +0.005 A 
ATOM     25  C   UNL     1      -2.087  -6.263  -0.847  0.00  0.00    +0.010 A 
BRANCH  23  26
ATOM     26  N   UNL     1      -1.896  -9.074   1.667  0.00  0.00    +0.057 N 
ATOM     27  O   UNL     1      -2.643  -9.681   2.413  0.00  0.00    -0.126 OA
ATOM     28  O   UNL     1      -0.723  -9.393   1.588  0.00  0.00    -0.126 OA
ENDBRANCH  23  26
ENDBRANCH  18  24
ENDBRANCH  16  19
ENDBRANCH   1  17
TORSDOF 6
