REMARK  Name = ZINC04162317
REMARK  7 active torsions:
REMARK  status: ('A' for Active; 'I' for Inactive)
REMARK    1  A    between atoms: C_1  and  C_2
REMARK    2  A    between atoms: C_7  and  C_9
REMARK    3  A    between atoms: C_9  and  C_11
REMARK    4  A    between atoms: C_9  and  C_17
REMARK    5  A    between atoms: C_17  and  C_19
REMARK    6  A    between atoms: C_17  and  C_21
REMARK    7  A    between atoms: C_26  and  C_29
REMARK                            x       y       z     vdW  Elec       q    Type
REMARK                         _______ _______ _______ _____ _____    ______ ____
ROOT
ATOM      1  C   UNL     1      -0.377   1.504   0.354  0.00  0.00    +0.063 C 
ATOM      2  C   UNL     1      -0.201   0.017   0.183  0.00  0.00    +0.047 C 
ATOM      3  N   UNL     1      -0.285  -0.635  -0.910  0.00  0.00    -0.179 NA
ATOM      4  N   UNL     1      -0.073  -2.001  -0.750  0.00  0.00    -0.135 N 
ATOM      5  C   UNL     1       0.172  -2.307   0.541  0.00  0.00    +0.250 C 
ATOM      6  O   UNL     1       0.395  -3.403   1.010  0.00  0.00    -0.273 OA
ATOM      7  C   UNL     1       0.114  -0.982   1.277  0.00  0.00    +0.132 C 
ATOM      8  C   UNL     1      -0.110  -2.929  -1.785  0.00  0.00    +0.188 A 
ATOM      9  N   UNL     1      -0.334  -2.737  -3.072  0.00  0.00    -0.223 NA
ATOM     10  C   UNL     1      -0.333  -3.746  -3.929  0.00  0.00    +0.080 A 
ATOM     11  C   UNL     1      -0.095  -5.013  -3.473  0.00  0.00    +0.077 A 
ATOM     12  S   UNL     1       0.140  -4.698  -1.728  0.00  0.00    -0.058 S 
ENDROOT
BRANCH  10  13
ATOM     13  C   UNL     1      -0.587  -3.505  -5.370  0.00  0.00    +0.001 A 
ATOM     14  C   UNL     1      -0.591  -4.572  -6.268  0.00  0.00    +0.010 A 
ATOM     15  C   UNL     1      -0.828  -4.341  -7.608  0.00  0.00    +0.001 A 
ATOM     16  C   UNL     1      -1.061  -3.055  -8.060  0.00  0.00    +0.000 A 
ATOM     17  C   UNL     1      -1.059  -1.993  -7.174  0.00  0.00    +0.001 A 
ATOM     18  C   UNL     1      -0.829  -2.212  -5.831  0.00  0.00    +0.010 A 
ENDBRANCH  10  13
BRANCH   7  19
ATOM     19  C   UNL     1       1.462  -0.663   1.925  0.00  0.00    +0.062 C 
BRANCH  19  20
ATOM     20  C   UNL     1       2.552  -0.750   0.887  0.00  0.00    -0.042 A 
ATOM     21  C   UNL     1       2.616   0.187  -0.127  0.00  0.00    +0.004 A 
ATOM     22  C   UNL     1       3.615   0.107  -1.079  0.00  0.00    +0.000 A 
ATOM     23  C   UNL     1       4.551  -0.909  -1.016  0.00  0.00    +0.000 A 
ATOM     24  C   UNL     1       4.487  -1.846  -0.001  0.00  0.00    +0.000 A 
ATOM     25  C   UNL     1       3.490  -1.764   0.953  0.00  0.00    +0.004 A 
ENDBRANCH  19  20
BRANCH  19  26
ATOM     26  C   UNL     1       1.426   0.750   2.509  0.00  0.00    +0.185 C 
BRANCH  26  27
ATOM     27  C   UNL     1       2.696   1.008   3.279  0.00  0.00    +0.228 C 
ATOM     28  O   UNL     1       2.645   1.273   4.461  0.00  0.00    -0.275 OA
ATOM     29  N   UNL     1       3.888   0.945   2.653  0.00  0.00    -0.328 N 
ATOM     30  H   UNL     1       3.928   0.734   1.707  0.00  0.00    +0.145 HD
ATOM     31  H   UNL     1       4.705   1.112   3.148  0.00  0.00    +0.145 HD
ENDBRANCH  26  27
BRANCH  26  32
ATOM     32  C   UNL     1       0.270   0.878   3.412  0.00  0.00    +0.076 C 
ATOM     33  N   UNL     1      -0.622   0.977   4.109  0.00  0.00    -0.196 NA
ENDBRANCH  26  32
ENDBRANCH  19  26
ENDBRANCH   7  19
TORSDOF 6
