REMARK  Name = ZINC19455745
REMARK  8 active torsions:
REMARK  status: ('A' for Active; 'I' for Inactive)
REMARK    1  A    between atoms: C_1  and  C_2
REMARK    2  A    between atoms: C_2  and  C_4
REMARK    3  A    between atoms: C_2  and  N_13
REMARK    4  A    between atoms: C_4  and  C_5
REMARK    5  A    between atoms: C_5  and  C_6
REMARK    6  A    between atoms: C_14  and  C_16
REMARK    7  A    between atoms: C_16  and  C_17
REMARK    8  A    between atoms: C_17  and  N_18
REMARK                            x       y       z     vdW  Elec       q    Type
REMARK                         _______ _______ _______ _____ _____    ______ ____
ROOT
ATOM      1  N   UNL     1      -2.925   4.435   0.899  0.00  0.00    -0.313 N 
ATOM      2  C   UNL     1      -3.971   5.075   0.341  0.00  0.00    +0.215 C 
ATOM      3  O   UNL     1      -5.062   4.548   0.316  0.00  0.00    -0.276 OA
ATOM      4  H   UNL     1      -1.935   4.913   0.921  0.00  0.00    +0.149 HD
ENDROOT
BRANCH   1   6
ATOM      5  C   UNL     1      -3.606   3.232   2.916  0.00  0.00    +0.028 C 
ATOM      6  C   UNL     1      -3.106   3.101   1.476  0.00  0.00    +0.070 C 
BRANCH   6   7
ATOM      7  C   UNL     1      -1.771   2.354   1.466  0.00  0.00    +0.026 C 
BRANCH   7   8
ATOM      8  C   UNL     1      -1.332   2.113   0.020  0.00  0.00    +0.037 C 
BRANCH   8   9
ATOM      9  C   UNL     1      -0.017   1.378   0.010  0.00  0.00    -0.047 A 
ATOM     10  C   UNL     1       1.170   2.087   0.002  0.00  0.00    +0.006 A 
ATOM     11  C   UNL     1       2.377   1.414  -0.013  0.00  0.00    +0.038 A 
ATOM     12  C   UNL     1       2.397   0.029  -0.021  0.00  0.00    +0.123 A 
ATOM     13  C   UNL     1       1.208  -0.679  -0.013  0.00  0.00    +0.038 A 
ATOM     14  C   UNL     1       0.002  -0.004   0.002  0.00  0.00    +0.006 A 
ATOM     15  F   UNL     1       3.577  -0.630  -0.035  0.00  0.00    -0.205 F 
ENDBRANCH   8   9
ENDBRANCH   7   8
ENDBRANCH   6   7
ENDBRANCH   1   6
BRANCH   2  16
ATOM     16  C   UNL     1      -3.784   6.448  -0.253  0.00  0.00    +0.115 C 
BRANCH  16  17
ATOM     17  C   UNL     1      -5.117   6.946  -0.816  0.00  0.00    +0.127 C 
BRANCH  17  18
ATOM     18  N   UNL     1      -4.935   8.280  -1.393  0.00  0.00    -0.224 N 
ATOM     19  C   UNL     1      -4.596   8.511  -2.680  0.00  0.00    +0.247 C 
ATOM     20  O   UNL     1      -4.392   7.687  -3.546  0.00  0.00    -0.273 OA
ATOM     21  C   UNL     1      -4.527  10.011  -2.810  0.00  0.00    +0.113 C 
ATOM     22  C   UNL     1      -5.525  10.521  -3.858  0.00  0.00    +0.035 C 
ATOM     23  C   UNL     1      -4.798  11.722  -4.516  0.00  0.00    +0.003 C 
ATOM     24  C   UNL     1      -3.323  11.247  -4.564  0.00  0.00    +0.003 C 
ATOM     25  C   UNL     1      -3.132  10.467  -3.245  0.00  0.00    +0.035 C 
ATOM     26  N   UNL     1      -4.860  10.511  -1.475  0.00  0.00    -0.285 N 
ATOM     27  C   UNL     1      -5.090   9.423  -0.712  0.00  0.00    +0.309 C 
ATOM     28  O   UNL     1      -5.399   9.473   0.462  0.00  0.00    -0.252 OA
ATOM     29  H   UNL     1      -4.880  11.593  -1.282  0.00  0.00    +0.151 HD
ENDBRANCH  17  18
ENDBRANCH  16  17
ENDBRANCH   2  16
TORSDOF 7
