REMARK  Name = ZINC63032166
REMARK  11 active torsions:
REMARK  status: ('A' for Active; 'I' for Inactive)
REMARK    1  A    between atoms: C_1  and  C_2
REMARK    2  A    between atoms: C_2  and  C_4
REMARK    3  A    between atoms: C_2  and  C_19
REMARK    4  A    between atoms: C_7  and  S_13
REMARK    5  A    between atoms: C_9  and  N_10
REMARK    6  A    between atoms: S_13  and  N_16
REMARK    7  A    between atoms: N_16  and  C_17
REMARK    8  A    between atoms: N_16  and  C_18
REMARK    9  A    between atoms: C_19  and  C_21
REMARK   10  A    between atoms: C_19  and  N_22
REMARK   11  A    between atoms: N_22  and  C_23
REMARK                            x       y       z     vdW  Elec       q    Type
REMARK                         _______ _______ _______ _____ _____    ______ ____
ROOT
ATOM      1  C   UNL     1       0.278  -0.218   1.268  0.00  0.00    -0.016 A 
ATOM      2  C   UNL     1      -0.379   0.381   2.326  0.00  0.00    +0.008 A 
ATOM      3  C   UNL     1      -0.029   0.063   3.625  0.00  0.00    +0.029 A 
ATOM      4  C   UNL     1       0.978  -0.853   3.866  0.00  0.00    +0.108 A 
ATOM      5  C   UNL     1       1.634  -1.452   2.808  0.00  0.00    +0.061 A 
ATOM      6  C   UNL     1       1.282  -1.138   1.508  0.00  0.00    +0.131 A 
ENDROOT
BRANCH   6   7
ATOM      7  N   UNL     1       1.981  -1.783   0.375  0.00  0.00    +0.057 N 
ATOM      8  O   UNL     1       2.850  -2.597   0.585  0.00  0.00    -0.126 OA
ATOM      9  O   UNL     1       1.683  -1.497  -0.762  0.00  0.00    -0.126 OA
ENDBRANCH   6   7
BRANCH   4  10
ATOM     10  S   UNL     1       1.425  -1.256   5.522  0.00  0.00    +0.060 S 
ATOM     11  O   UNL     1       2.764  -1.730   5.477  0.00  0.00    -0.153 OA
ATOM     12  O   UNL     1       1.033  -0.154   6.328  0.00  0.00    -0.153 OA
BRANCH  10  13
ATOM     13  N   UNL     1       0.484  -2.538   5.984  0.00  0.00    -0.183 NA
ATOM     14  C   UNL     1       0.949  -3.908   5.755  0.00  0.00    +0.131 C 
ATOM     15  C   UNL     1      -0.814  -2.302   6.622  0.00  0.00    +0.131 C 
ENDBRANCH  10  13
ENDBRANCH   4  10
BRANCH   1  17
ATOM     16  C   UNL     1      -0.670   1.548  -0.192  0.00  0.00    +0.011 C 
ATOM     17  C   UNL     1      -0.103   0.128  -0.149  0.00  0.00    +0.004 C 
BRANCH  17  18
ATOM     18  C   UNL     1      -1.161  -0.859  -0.647  0.00  0.00    -0.068 C 
ATOM     19  C   UNL     1      -2.349  -0.864   0.317  0.00  0.00    -0.013 C 
BRANCH  18  20
ATOM     20  N   UNL     1      -1.616  -0.455  -1.984  0.00  0.00    +0.379 N 
ATOM     21  C   UNL     1      -2.542  -1.465  -2.513  0.00  0.00    -0.100 C 
ATOM     22  H   UNL     1      -2.088   0.435  -1.924  0.00  0.00    -0.086 HD
ATOM     23  H   UNL     1      -0.821  -0.372  -2.600  0.00  0.00    -0.086 HD
ENDBRANCH  18  20
ENDBRANCH  17  18
ENDBRANCH   1  17
TORSDOF 6
