REMARK  Name = ZINC62485808
REMARK  9 active torsions:
REMARK  status: ('A' for Active; 'I' for Inactive)
REMARK    1  A    between atoms: C_1  and  N_2
REMARK    2  A    between atoms: N_2  and  C_3
REMARK    3  A    between atoms: N_2  and  C_4
REMARK    4  A    between atoms: C_4  and  C_5
REMARK    5  A    between atoms: C_4  and  C_19
REMARK    6  A    between atoms: C_5  and  N_6
REMARK    7  A    between atoms: N_9  and  C_10
REMARK    8  A    between atoms: N_9  and  C_13
REMARK    9  A    between atoms: C_10  and  C_11
REMARK                            x       y       z     vdW  Elec       q    Type
REMARK                         _______ _______ _______ _____ _____    ______ ____
ROOT
ATOM      1  N   UNL     1       0.073  -2.013   0.995  0.00  0.00    -0.300 N 
ATOM      2  C   UNL     1       0.492  -3.276   1.210  0.00  0.00    +0.303 C 
ATOM      3  O   UNL     1       0.137  -4.170   0.465  0.00  0.00    -0.253 OA
ATOM      4  N   UNL     1       1.305  -3.549   2.250  0.00  0.00    -0.272 N 
ATOM      5  H   UNL     1       0.357  -1.301   1.588  0.00  0.00    +0.150 HD
ENDROOT
BRANCH   4   6
ATOM      6  C   UNL     1       1.760  -4.922   2.483  0.00  0.00    +0.078 C 
ATOM      7  C   UNL     1       1.295  -5.385   3.865  0.00  0.00    +0.022 C 
ATOM      8  C   UNL     1       1.770  -6.818   4.109  0.00  0.00    +0.002 C 
ATOM      9  C   UNL     1       3.298  -6.867   4.043  0.00  0.00    +0.000 C 
ATOM     10  C   UNL     1       3.763  -6.404   2.661  0.00  0.00    +0.002 C 
ATOM     11  C   UNL     1       3.288  -4.971   2.417  0.00  0.00    +0.022 C 
ENDBRANCH   4   6
BRANCH   1  12
ATOM     12  C   UNL     1      -0.810  -1.717  -0.136  0.00  0.00    +0.095 C 
BRANCH  12  13
ATOM     13  C   UNL     1      -1.238  -0.249  -0.078  0.00  0.00    -0.020 C 
BRANCH  13  14
ATOM     14  C   UNL     1      -2.079  -0.019   1.150  0.00  0.00    -0.052 A 
ATOM     15  C   UNL     1      -1.526   0.550   2.283  0.00  0.00    +0.009 A 
ATOM     16  C   UNL     1      -2.310   0.743   3.371  0.00  0.00    +0.045 A 
ATOM     17  S   UNL     1      -3.883   0.113   2.809  0.00  0.00    -0.105 S 
ATOM     18  C   UNL     1      -3.390  -0.361   1.160  0.00  0.00    +0.047 A 
ENDBRANCH  13  14
BRANCH  13  20
ATOM     19  C   UNL     1      -2.469   1.477  -1.200  0.00  0.00    -0.096 C 
ATOM     20  N   UNL     1      -2.021   0.080  -1.277  0.00  0.00    +0.382 N 
ATOM     21  C   UNL     1      -1.186  -0.101  -2.472  0.00  0.00    -0.096 C 
ATOM     22  H   UNL     1      -2.823  -0.528  -1.332  0.00  0.00    -0.082 HD
ENDBRANCH  13  20
ENDBRANCH  12  13
ENDBRANCH   1  12
BRANCH   4  23
ATOM     23  C   UNL     1       1.733  -2.472   3.146  0.00  0.00    +0.198 C 
BRANCH  23  24
ATOM     24  C   UNL     1       0.769  -2.342   4.251  0.00  0.00    -0.086 C 
ATOM     25  C   UNL     1       0.001  -2.238   5.133  0.00  0.00    +0.005 C 
ENDBRANCH  23  24
ENDBRANCH   4  23
TORSDOF 7
