REMARK  Name = ZINC64029189
REMARK  6 active torsions:
REMARK  status: ('A' for Active; 'I' for Inactive)
REMARK    1  A    between atoms: C_1  and  N_2
REMARK    2  A    between atoms: N_2  and  C_3
REMARK    3  A    between atoms: C_3  and  C_4
REMARK    4  A    between atoms: N_17  and  C_18
REMARK    5  A    between atoms: C_18  and  C_19
REMARK    6  A    between atoms: C_19  and  C_20
REMARK                            x       y       z     vdW  Elec       q    Type
REMARK                         _______ _______ _______ _____ _____    ______ ____
ROOT
ATOM      1  C   UNL     1      -0.018   1.461   0.010  0.00  0.00    +0.134 C 
ATOM      2  N   UNL     1       0.002  -0.004   0.002  0.00  0.00    -0.282 N 
ATOM      3  C   UNL     1       0.000  -0.672  -1.169  0.00  0.00    +0.302 C 
ATOM      4  O   UNL     1       0.017  -1.887  -1.175  0.00  0.00    -0.253 OA
ATOM      5  N   UNL     1      -0.020   0.009  -2.332  0.00  0.00    -0.299 N 
ATOM      6  H   UNL     1      -0.033   0.978  -2.327  0.00  0.00    +0.150 HD
ENDROOT
BRANCH   2   7
ATOM      7  C   UNL     1       0.024  -0.743   1.267  0.00  0.00    +0.182 C 
BRANCH   7   8
ATOM      8  C   UNL     1      -1.389  -1.016   1.714  0.00  0.00    +0.140 C 
ATOM      9  N   UNL     1      -2.379  -0.589   0.959  0.00  0.00    -0.163 NA
ATOM     10  C   UNL     1      -3.654  -0.563   1.369  0.00  0.00    +0.257 C 
ATOM     11  O   UNL     1      -4.566  -0.337   0.598  0.00  0.00    -0.272 OA
ATOM     12  C   UNL     1      -3.905  -0.827   2.821  0.00  0.00    +0.187 C 
ATOM     13  C   UNL     1      -2.824  -1.783   3.309  0.00  0.00    +0.066 C 
ATOM     14  N   UNL     1      -1.576  -1.681   2.848  0.00  0.00    -0.236 NA
ATOM     15  C   UNL     1      -3.358  -2.820   4.032  0.00  0.00    +0.032 C 
ATOM     16  C   UNL     1      -4.700  -3.030   4.078  0.00  0.00    +0.043 C 
ATOM     17  S   UNL     1      -5.414  -1.797   3.144  0.00  0.00    -0.114 S 
ENDBRANCH   7   8
ENDBRANCH   2   7
BRANCH   5  18
ATOM     18  C   UNL     1      -0.022  -0.717  -3.605  0.00  0.00    +0.112 C 
BRANCH  18  19
ATOM     19  C   UNL     1      -0.047   0.283  -4.762  0.00  0.00    +0.073 C 
BRANCH  19  20
ATOM     20  C   UNL     1      -0.049  -0.463  -6.072  0.00  0.00    +0.035 A 
ATOM     21  C   UNL     1       1.038  -0.928  -6.720  0.00  0.00    +0.108 A 
ATOM     22  N   UNL     1       0.587  -1.536  -7.854  0.00  0.00    -0.336 N 
ATOM     23  C   UNL     1      -0.762  -1.423  -7.865  0.00  0.00    +0.087 A 
ATOM     24  N   UNL     1      -1.135  -0.786  -6.793  0.00  0.00    -0.347 N 
ATOM     25  C   UNL     1      -1.646  -1.968  -8.962  0.00  0.00    +0.072 C 
ATOM     26  C   UNL     1      -0.765  -2.278 -10.178  0.00  0.00    +0.009 C 
ATOM     27  C   UNL     1       0.453  -3.090  -9.727  0.00  0.00    +0.022 C 
ATOM     28  C   UNL     1       1.380  -2.200  -8.891  0.00  0.00    +0.123 C 
ATOM     29  H   UNL     1      -2.051  -0.576  -6.554  0.00  0.00    +0.167 HD
ENDBRANCH  19  20
ENDBRANCH  18  19
ENDBRANCH   5  18
TORSDOF 5
