REMARK  Name = ZINC39957986
REMARK  10 active torsions:
REMARK  status: ('A' for Active; 'I' for Inactive)
REMARK    1  A    between atoms: C_1  and  C_2
REMARK    2  A    between atoms: C_2  and  O_3
REMARK    3  A    between atoms: O_3  and  C_4
REMARK    4  A    between atoms: C_4  and  C_6
REMARK    5  A    between atoms: C_6  and  O_7
REMARK    6  A    between atoms: O_7  and  C_8
REMARK    7  A    between atoms: C_13  and  C_14
REMARK    8  A    between atoms: C_16  and  C_27
REMARK    9  A    between atoms: C_17  and  N_26
REMARK   10  A    between atoms: C_22  and  C_25
REMARK                            x       y       z     vdW  Elec       q    Type
REMARK                         _______ _______ _______ _____ _____    ______ ____
ROOT
ATOM      1  C   UNL     1      -2.623  -6.672  -0.008  0.00  0.00    +0.101 C 
ATOM      2  C   UNL     1      -2.545  -7.580  -1.223  0.00  0.00    +0.098 C 
ATOM      3  C   UNL     1      -2.236  -8.889  -1.112  0.00  0.00    +0.195 C 
ATOM      4  O   UNL     1      -1.988  -9.562   0.026  0.00  0.00    -0.448 OA
ATOM      5  C   UNL     1      -1.591  -8.799   1.168  0.00  0.00    +0.343 C 
ATOM      6  C   UNL     1      -2.523  -7.584   1.184  0.00  0.00    +0.030 C 
ATOM      7  C   UNL     1      -3.104  -7.616   2.358  0.00  0.00    +0.066 C 
ATOM      8  N   UNL     1      -2.740  -8.735   3.034  0.00  0.00    -0.155 NA
ATOM      9  N   UNL     1      -1.918  -9.466   2.432  0.00  0.00    -0.138 NA
ATOM     10  C   UNL     1      -4.044  -6.561   2.882  0.00  0.00    +0.067 C 
ENDROOT
BRANCH   1  16
ATOM     11  C   UNL     1      -3.954  -4.548   0.015  0.00  0.00    +0.125 A 
ATOM     12  C   UNL     1      -5.166  -3.872   0.025  0.00  0.00    +0.046 A 
ATOM     13  C   UNL     1      -6.351  -4.581   0.032  0.00  0.00    +0.004 A 
ATOM     14  C   UNL     1      -6.331  -5.964   0.029  0.00  0.00    +0.001 A 
ATOM     15  C   UNL     1      -5.125  -6.640   0.021  0.00  0.00    +0.008 A 
ATOM     16  C   UNL     1      -3.937  -5.935   0.008  0.00  0.00    +0.007 A 
BRANCH  11  17
ATOM     17  O   UNL     1      -2.787  -3.852   0.008  0.00  0.00    -0.480 OA
BRANCH  17  18
ATOM     18  C   UNL     1      -2.881  -2.427   0.017  0.00  0.00    +0.349 C 
BRANCH  18  19
ATOM     19  C   UNL     1      -1.496  -1.832   0.006  0.00  0.00    +0.345 C 
ATOM     20  O   UNL     1      -0.528  -2.555  -0.007  0.00  0.00    -0.247 OA
BRANCH  19  21
ATOM     21  O   UNL     1      -1.339  -0.499   0.012  0.00  0.00    -0.463 OA
BRANCH  21  23
ATOM     22  C   UNL     1      -0.019   1.526   0.010  0.00  0.00    +0.048 C 
ATOM     23  C   UNL     1       0.002  -0.004   0.002  0.00  0.00    +0.229 C 
ENDBRANCH  21  23
ENDBRANCH  19  21
ENDBRANCH  18  19
ENDBRANCH  17  18
ENDBRANCH  11  17
ENDBRANCH   1  16
BRANCH   3  24
ATOM     24  N   UNL     1      -2.168  -9.606  -2.279  0.00  0.00    -0.329 N 
ATOM     25  H   UNL     1      -2.338  -9.169  -3.128  0.00  0.00    +0.145 HD
ATOM     26  H   UNL     1      -1.950 -10.551  -2.256  0.00  0.00    +0.145 HD
ENDBRANCH   3  24
BRANCH   2  27
ATOM     27  C   UNL     1      -2.805  -7.032  -2.520  0.00  0.00    +0.101 C 
ATOM     28  N   UNL     1      -3.012  -6.598  -3.549  0.00  0.00    -0.191 NA
ENDBRANCH   2  27
TORSDOF 8
