REMARK  Name = ZINC10052764
REMARK  10 active torsions:
REMARK  status: ('A' for Active; 'I' for Inactive)
REMARK    1  A    between atoms: C_1  and  C_2
REMARK    2  A    between atoms: C_2  and  O_3
REMARK    3  A    between atoms: O_3  and  C_4
REMARK    4  A    between atoms: C_4  and  C_6
REMARK    5  A    between atoms: C_12  and  C_13
REMARK    6  A    between atoms: C_12  and  N_60
REMARK    7  A    between atoms: N_18  and  S_21
REMARK    8  A    between atoms: S_21  and  C_24
REMARK    9  A    between atoms: C_25  and  C_30
REMARK   10  A    between atoms: C_28  and  C_29
REMARK                            x       y       z     vdW  Elec       q    Type
REMARK                         _______ _______ _______ _____ _____    ______ ____
ROOT
ATOM      1  C   UNL     1      -0.862   1.330  -8.490  0.00  0.00    +0.199 C 
ATOM      2  O   UNL     1      -1.987   1.775  -8.403  0.00  0.00    -0.278 OA
ATOM      3  N   UNL     1      -0.382   0.941  -9.687  0.00  0.00    -0.300 N 
ATOM      4  C   UNL     1       0.981   0.406  -9.808  0.00  0.00    +0.125 C 
ATOM      5  C   UNL     1       0.902  -0.979 -10.475  0.00  0.00    +0.128 C 
ATOM      6  N   UNL     1       0.074  -0.870 -11.684  0.00  0.00    -0.173 NA
ATOM      7  C   UNL     1      -1.287  -0.329 -11.564  0.00  0.00    +0.128 C 
ATOM      8  C   UNL     1      -1.210   1.050 -10.896  0.00  0.00    +0.125 C 
ENDROOT
BRANCH   6   9
ATOM      9  S   UNL     1       0.665  -1.347 -13.155  0.00  0.00    +0.066 S 
ATOM     10  O   UNL     1       1.693  -2.292 -12.894  0.00  0.00    -0.153 OA
ATOM     11  O   UNL     1      -0.462  -1.652 -13.966  0.00  0.00    -0.153 OA
BRANCH   9  12
ATOM     12  C   UNL     1       1.443   0.056 -13.884  0.00  0.00    +0.170 A 
ATOM     13  C   UNL     1       2.792   0.463 -13.764  0.00  0.00    +0.107 A 
ATOM     14  N   UNL     1       2.912   1.549 -14.472  0.00  0.00    -0.081 NA
ATOM     15  O   UNL     1       1.866   1.860 -14.992  0.00  0.00    -0.358 OA
ATOM     16  C   UNL     1       0.890   0.991 -14.693  0.00  0.00    +0.161 A 
ATOM     17  C   UNL     1      -0.541   1.045 -15.162  0.00  0.00    +0.091 C 
ATOM     18  C   UNL     1       3.876  -0.225 -12.975  0.00  0.00    +0.071 C 
ENDBRANCH   9  12
ENDBRANCH   6   9
BRANCH   1  19
ATOM     19  C   UNL     1      -0.002   1.212  -7.258  0.00  0.00    +0.019 C 
BRANCH  19  25
ATOM     20  C   UNL     1      -1.667   3.872  -5.177  0.00  0.00    +0.081 C 
ATOM     21  C   UNL     1      -0.995   3.572  -3.834  0.00  0.00    +0.011 C 
ATOM     22  C   UNL     1      -0.827   2.058  -3.683  0.00  0.00    -0.018 C 
ATOM     23  C   UNL     1      -0.005   1.521  -4.857  0.00  0.00    -0.078 C 
ATOM     24  C   UNL     1      -0.821   3.283  -6.308  0.00  0.00    -0.064 C 
ATOM     25  N   UNL     1      -0.718   1.820  -6.118  0.00  0.00    +0.386 N 
ATOM     26  H   UNL     1      -1.663   1.423  -6.068  0.00  0.00    -0.081 HD
BRANCH  20  27
ATOM     27  C   UNL     1      -1.782   5.363  -5.360  0.00  0.00    +0.308 C 
ATOM     28  O   UNL     1      -1.244   5.900  -6.299  0.00  0.00    -0.251 OA
BRANCH  27  29
ATOM     29  O   UNL     1      -2.484   6.095  -4.481  0.00  0.00    -0.465 OA
BRANCH  29  31
ATOM     30  C   UNL     1      -3.389   8.187  -3.621  0.00  0.00    +0.048 C 
ATOM     31  C   UNL     1      -2.553   7.526  -4.720  0.00  0.00    +0.229 C 
ENDBRANCH  29  31
ENDBRANCH  27  29
ENDBRANCH  20  27
ENDBRANCH  19  25
ENDBRANCH   1  19
TORSDOF 7
