REMARK  Name = ZINC63784689
REMARK  11 active torsions:
REMARK  status: ('A' for Active; 'I' for Inactive)
REMARK    1  A    between atoms: C_1  and  C_2
REMARK    2  A    between atoms: C_2  and  O_3
REMARK    3  A    between atoms: O_3  and  C_4
REMARK    4  A    between atoms: C_4  and  C_6
REMARK    5  A    between atoms: C_7  and  C_34
REMARK    6  A    between atoms: C_8  and  C_33
REMARK    7  A    between atoms: C_10  and  N_11
REMARK    8  A    between atoms: C_12  and  C_14
REMARK    9  A    between atoms: C_14  and  N_15
REMARK   10  A    between atoms: C_18  and  C_23
REMARK   11  A    between atoms: C_23  and  C_24
REMARK                            x       y       z     vdW  Elec       q    Type
REMARK                         _______ _______ _______ _____ _____    ______ ____
ROOT
ATOM      1  N   UNL     1      -2.875  -3.037  -6.782  0.00  0.00    -0.216 N 
ATOM      2  C   UNL     1      -2.830  -2.223  -7.855  0.00  0.00    +0.244 C 
ATOM      3  O   UNL     1      -2.545  -1.045  -7.870  0.00  0.00    -0.273 OA
ATOM      4  C   UNL     1      -3.209  -3.088  -9.041  0.00  0.00    +0.165 C 
ATOM      5  N   UNL     1      -3.446  -4.413  -8.442  0.00  0.00    -0.287 N 
ATOM      6  C   UNL     1      -3.221  -4.284  -7.122  0.00  0.00    +0.310 C 
ATOM      7  O   UNL     1      -3.325  -5.197  -6.326  0.00  0.00    -0.252 OA
ATOM      8  H   UNL     1      -3.709  -5.222  -8.908  0.00  0.00    +0.151 HD
ENDROOT
BRANCH   1   9
ATOM      9  C   UNL     1      -2.576  -2.610  -5.413  0.00  0.00    +0.214 C 
BRANCH   9  11
ATOM     10  N   UNL     1      -0.597  -2.461  -3.936  0.00  0.00    -0.278 N 
ATOM     11  C   UNL     1      -1.105  -2.790  -5.140  0.00  0.00    +0.236 C 
ATOM     12  O   UNL     1      -0.378  -3.232  -6.005  0.00  0.00    -0.274 OA
ATOM     13  H   UNL     1      -1.178  -2.108  -3.245  0.00  0.00    +0.155 HD
BRANCH  10  18
ATOM     14  C   UNL     1       1.449  -2.344  -2.516  0.00  0.00    +0.091 A 
ATOM     15  C   UNL     1       2.868  -2.621  -2.523  0.00  0.00    -0.025 A 
ATOM     16  C   UNL     1       3.363  -3.119  -3.671  0.00  0.00    -0.008 A 
ATOM     17  S   UNL     1       1.934  -3.213  -4.727  0.00  0.00    -0.078 S 
ATOM     18  C   UNL     1       0.756  -2.627  -3.686  0.00  0.00    +0.086 A 
ATOM     19  C   UNL     1       4.785  -3.503  -3.986  0.00  0.00    +0.052 C 
ATOM     20  C   UNL     1       3.739  -2.366  -1.320  0.00  0.00    +0.045 C 
BRANCH  14  21
ATOM     21  C   UNL     1       0.776  -1.800  -1.335  0.00  0.00    +0.342 C 
ATOM     22  O   UNL     1       0.312  -2.552  -0.499  0.00  0.00    -0.245 OA
BRANCH  21  23
ATOM     23  O   UNL     1       0.671  -0.465  -1.174  0.00  0.00    -0.461 OA
BRANCH  23  25
ATOM     24  C   UNL     1      -0.019   1.526   0.010  0.00  0.00    +0.048 C 
ATOM     25  C   UNL     1       0.002  -0.004   0.002  0.00  0.00    +0.229 C 
ENDBRANCH  23  25
ENDBRANCH  21  23
ENDBRANCH  14  21
ENDBRANCH  10  18
ENDBRANCH   9  11
ENDBRANCH   1   9
BRANCH   4  26
ATOM     26  C   UNL     1      -2.062  -3.148 -10.052  0.00  0.00    +0.065 C 
BRANCH  26  27
ATOM     27  C   UNL     1      -2.508  -3.911 -11.273  0.00  0.00    -0.039 C 
ATOM     28  C   UNL     1      -3.004  -3.392 -12.419  0.00  0.00    -0.001 A 
ATOM     29  C   UNL     1      -3.268  -2.015 -12.855  0.00  0.00    +0.010 A 
ATOM     30  C   UNL     1      -3.780  -1.805 -14.089  0.00  0.00    +0.001 A 
ATOM     31  C   UNL     1      -4.066  -2.866 -14.959  0.00  0.00    +0.002 A 
ATOM     32  C   UNL     1      -3.850  -4.157 -14.630  0.00  0.00    +0.026 A 
ATOM     33  C   UNL     1      -3.313  -4.495 -13.357  0.00  0.00    +0.043 A 
ATOM     34  N   UNL     1      -3.020  -5.650 -12.812  0.00  0.00    -0.380 N 
ATOM     35  C   UNL     1      -2.485  -5.410 -11.467  0.00  0.00    +0.144 C 
ATOM     36  H   UNL     1      -3.134  -6.518 -13.230  0.00  0.00    +0.160 HD
ENDBRANCH  26  27
ENDBRANCH   4  26
TORSDOF 8
