REMARK  Name = ZINC16931618
REMARK  9 active torsions:
REMARK  status: ('A' for Active; 'I' for Inactive)
REMARK    1  A    between atoms: C_1  and  C_2
REMARK    2  A    between atoms: C_5  and  S_8
REMARK    3  A    between atoms: S_8  and  N_11
REMARK    4  A    between atoms: N_11  and  C_12
REMARK    5  A    between atoms: C_12  and  C_13
REMARK    6  A    between atoms: C_12  and  C_14
REMARK    7  A    between atoms: C_12  and  C_15
REMARK    8  A    between atoms: C_15  and  S_16
REMARK    9  A    between atoms: S_16  and  C_17
REMARK                            x       y       z     vdW  Elec       q    Type
REMARK                         _______ _______ _______ _____ _____    ______ ____
ROOT
ATOM      1  C   UNL     1       2.210  -2.791  -2.519  0.00  0.00    +0.044 C 
ATOM      2  C   UNL     1       2.306  -1.273  -2.356  0.00  0.00    +0.030 C 
ATOM      3  C   UNL     1       3.248  -3.467  -1.620  0.00  0.00    +0.030 C 
ENDROOT
BRANCH   1   4
ATOM      4  N   UNL     1       0.868  -3.239  -2.138  0.00  0.00    -0.184 NA
ATOM      5  H   UNL     1       0.212  -3.707  -2.886  0.00  0.00    +0.149 HD
BRANCH   4   6
ATOM      6  S   UNL     1       0.245  -2.824  -0.661  0.00  0.00    +0.059 S 
ATOM      7  O   UNL     1       1.256  -3.100   0.298  0.00  0.00    -0.153 OA
ATOM      8  O   UNL     1      -1.051  -3.403  -0.590  0.00  0.00    -0.153 OA
BRANCH   6  13
ATOM      9  C   UNL     1      -0.540   3.158  -0.670  0.00  0.00    +0.044 C 
ATOM     10  C   UNL     1      -0.344   1.664  -0.668  0.00  0.00    -0.050 A 
ATOM     11  C   UNL     1      -1.195   0.854  -1.397  0.00  0.00    +0.005 A 
ATOM     12  C   UNL     1      -1.015  -0.516  -1.395  0.00  0.00    +0.029 A 
ATOM     13  C   UNL     1       0.016  -1.077  -0.664  0.00  0.00    +0.105 A 
ATOM     14  C   UNL     1       0.867  -0.267   0.064  0.00  0.00    +0.029 A 
ATOM     15  C   UNL     1       0.688   1.103   0.061  0.00  0.00    +0.005 A 
ENDBRANCH   6  13
ENDBRANCH   4   6
ENDBRANCH   1   4
BRANCH   1  16
ATOM     16  C   UNL     1       2.478  -3.165  -3.978  0.00  0.00    +0.099 C 
BRANCH  16  17
ATOM     17  S   UNL     1       1.345  -2.251  -5.053  0.00  0.00    -0.102 S 
BRANCH  17  18
ATOM     18  C   UNL     1       1.859  -2.856  -6.626  0.00  0.00    +0.126 A 
ATOM     19  C   UNL     1       1.243  -2.413  -7.798  0.00  0.00    +0.117 A 
ATOM     20  C   UNL     1       1.688  -2.925  -9.028  0.00  0.00    +0.182 A 
ATOM     21  N   UNL     1       0.941  -2.345  -9.986  0.00  0.00    -0.216 NA
ATOM     22  C   UNL     1       0.083  -1.528  -9.442  0.00  0.00    +0.199 A 
ATOM     23  N   UNL     1       0.226  -1.532  -8.097  0.00  0.00    -0.341 N 
ATOM     24  H   UNL     1      -0.292  -0.994  -7.289  0.00  0.00    +0.167 HD
ATOM     25  N   UNL     1       2.685  -3.816  -9.027  0.00  0.00    -0.214 NA
ATOM     26  C   UNL     1       3.236  -4.204  -7.899  0.00  0.00    +0.224 A 
ATOM     27  N   UNL     1       2.848  -3.742  -6.724  0.00  0.00    -0.227 NA
ENDBRANCH  17  18
ENDBRANCH  16  17
ENDBRANCH   1  16
TORSDOF 6
