REMARK  Name = ZINC34998752
REMARK  10 active torsions:
REMARK  status: ('A' for Active; 'I' for Inactive)
REMARK    1  A    between atoms: C_1  and  C_2
REMARK    2  A    between atoms: C_2  and  C_3
REMARK    3  A    between atoms: C_3  and  C_4
REMARK    4  A    between atoms: C_4  and  N_5
REMARK    5  A    between atoms: C_13  and  C_15
REMARK    6  A    between atoms: C_16  and  C_18
REMARK    7  A    between atoms: C_18  and  C_20
REMARK    8  A    between atoms: C_18  and  N_27
REMARK    9  A    between atoms: C_20  and  C_21
REMARK   10  A    between atoms: N_30  and  C_31
REMARK                            x       y       z     vdW  Elec       q    Type
REMARK                         _______ _______ _______ _____ _____    ______ ____
ROOT
ATOM      1  C   UNL     1      -8.897  -4.567   1.215  0.00  0.00    +0.165 C 
ENDROOT
BRANCH   1  12
ATOM      2  N   UNL     1      -3.049  -2.733  -1.368  0.00  0.00    -0.299 N 
ATOM      3  C   UNL     1      -3.239  -4.043  -1.117  0.00  0.00    +0.303 C 
ATOM      4  O   UNL     1      -2.309  -4.821  -1.207  0.00  0.00    -0.253 OA
ATOM      5  N   UNL     1      -4.462  -4.492  -0.768  0.00  0.00    -0.280 N 
ATOM      6  C   UNL     1      -5.621  -3.588  -0.778  0.00  0.00    +0.128 C 
ATOM      7  C   UNL     1      -6.276  -3.617   0.608  0.00  0.00    +0.127 C 
ATOM      8  N   UNL     1      -6.474  -5.018   1.005  0.00  0.00    -0.297 N 
ATOM      9  C   UNL     1      -5.314  -5.921   1.015  0.00  0.00    +0.130 C 
ATOM     10  C   UNL     1      -4.660  -5.894  -0.376  0.00  0.00    +0.092 C 
ATOM     11  C   UNL     1      -3.308  -6.609  -0.324  0.00  0.00    +0.030 C 
ATOM     12  C   UNL     1      -7.696  -5.466   1.355  0.00  0.00    +0.236 C 
ATOM     13  O   UNL     1      -7.829  -6.594   1.782  0.00  0.00    -0.274 OA
ATOM     14  H   UNL     1      -3.804  -2.124  -1.369  0.00  0.00    +0.150 HD
BRANCH   2  15
ATOM     15  C   UNL     1      -1.700  -2.228  -1.639  0.00  0.00    +0.106 C 
BRANCH  15  16
ATOM     16  C   UNL     1      -1.762  -0.720  -1.889  0.00  0.00    +0.018 C 
BRANCH  16  18
ATOM     17  C   UNL     1      -0.415   1.316  -2.422  0.00  0.00    +0.004 C 
ATOM     18  C   UNL     1      -0.354  -0.192  -2.172  0.00  0.00    -0.002 C 
ENDBRANCH  16  18
ENDBRANCH  15  16
ENDBRANCH   2  15
ENDBRANCH   1  12
BRANCH   1  19
ATOM     19  N   UNL     1     -10.116  -5.337   1.474  0.00  0.00    -0.288 N 
ATOM     20  C   UNL     1     -11.289  -4.938   0.944  0.00  0.00    +0.305 C 
ATOM     21  O   UNL     1     -11.336  -3.940   0.251  0.00  0.00    -0.252 OA
ATOM     22  N   UNL     1     -12.411  -5.646   1.181  0.00  0.00    -0.267 N 
ATOM     23  H   UNL     1     -10.079  -6.133   2.026  0.00  0.00    +0.151 HD
ATOM     24  H   UNL     1     -12.390  -6.398   1.795  0.00  0.00    +0.156 HD
BRANCH  22  25
ATOM     25  C   UNL     1     -13.608  -5.298   0.543  0.00  0.00    +0.070 A 
ATOM     26  C   UNL     1     -13.585  -4.777  -0.743  0.00  0.00    +0.026 A 
ATOM     27  C   UNL     1     -14.767  -4.434  -1.370  0.00  0.00    +0.002 A 
ATOM     28  C   UNL     1     -15.974  -4.608  -0.718  0.00  0.00    +0.003 A 
ATOM     29  C   UNL     1     -16.003  -5.125   0.563  0.00  0.00    +0.040 A 
ATOM     30  C   UNL     1     -14.823  -5.477   1.195  0.00  0.00    +0.145 A 
ATOM     31  F   UNL     1     -14.852  -5.988   2.445  0.00  0.00    -0.204 F 
ENDBRANCH  22  25
ENDBRANCH   1  19
BRANCH   1  32
ATOM     32  C   UNL     1      -8.794  -3.420   2.222  0.00  0.00    +0.067 C 
BRANCH  32  33
ATOM     33  C   UNL     1      -9.963  -2.486   2.040  0.00  0.00    -0.045 A 
ATOM     34  C   UNL     1      -9.868  -1.423   1.161  0.00  0.00    +0.004 A 
ATOM     35  C   UNL     1     -10.940  -0.566   0.994  0.00  0.00    +0.000 A 
ATOM     36  C   UNL     1     -12.107  -0.773   1.705  0.00  0.00    +0.000 A 
ATOM     37  C   UNL     1     -12.203  -1.836   2.583  0.00  0.00    +0.000 A 
ATOM     38  C   UNL     1     -11.132  -2.695   2.747  0.00  0.00    +0.004 A 
ENDBRANCH  32  33
ENDBRANCH   1  32
TORSDOF 8
