REMARK  Name = ZINC64045079
REMARK  7 active torsions:
REMARK  status: ('A' for Active; 'I' for Inactive)
REMARK    1  A    between atoms: C_1  and  N_2
REMARK    2  A    between atoms: N_2  and  C_3
REMARK    3  A    between atoms: C_3  and  C_4
REMARK    4  A    between atoms: C_15  and  C_17
REMARK    5  A    between atoms: C_17  and  C_18
REMARK    6  A    between atoms: C_18  and  C_30
REMARK    7  A    between atoms: N_22  and  C_25
REMARK                            x       y       z     vdW  Elec       q    Type
REMARK                         _______ _______ _______ _____ _____    ______ ____
ROOT
ATOM      1  C   UNL     1       0.105  -0.893  -3.636  0.00  0.00    +0.089 C 
ATOM      2  C   UNL     1       0.479  -0.345  -5.029  0.00  0.00    +0.117 C 
ATOM      3  C   UNL     1       1.867  -0.898  -5.267  0.00  0.00    +0.223 C 
ATOM      4  O   UNL     1       2.538  -0.706  -6.258  0.00  0.00    -0.275 OA
ATOM      5  N   UNL     1       2.236  -1.632  -4.210  0.00  0.00    -0.238 N 
ATOM      6  C   UNL     1       1.322  -1.697  -3.234  0.00  0.00    +0.233 C 
ATOM      7  O   UNL     1       1.449  -2.304  -2.192  0.00  0.00    -0.274 OA
ENDROOT
BRANCH   1   8
ATOM      8  C   UNL     1      -1.112  -1.777  -3.719  0.00  0.00    -0.029 A 
ATOM      9  C   UNL     1      -2.345  -1.229  -4.019  0.00  0.00    +0.005 A 
ATOM     10  C   UNL     1      -3.463  -2.039  -4.095  0.00  0.00    +0.003 A 
ATOM     11  C   UNL     1      -3.348  -3.398  -3.872  0.00  0.00    +0.038 A 
ATOM     12  C   UNL     1      -2.114  -3.948  -3.572  0.00  0.00    +0.124 A 
ATOM     13  C   UNL     1      -0.994  -3.137  -3.502  0.00  0.00    +0.043 A 
ATOM     14  F   UNL     1      -2.000  -5.277  -3.353  0.00  0.00    -0.205 F 
ENDBRANCH   1   8
BRANCH   5  15
ATOM     15  C   UNL     1       3.533  -2.308  -4.128  0.00  0.00    +0.084 C 
ATOM     16  C   UNL     1       4.675  -1.283  -4.290  0.00  0.00    +0.023 C 
ATOM     17  C   UNL     1       5.750  -2.038  -5.109  0.00  0.00    +0.002 C 
ATOM     18  C   UNL     1       4.902  -2.863  -6.109  0.00  0.00    +0.002 C 
ATOM     19  C   UNL     1       3.677  -3.313  -5.285  0.00  0.00    +0.023 C 
ENDBRANCH   5  15
BRANCH   1  20
ATOM     20  C   UNL     1      -0.131   0.255  -2.652  0.00  0.00    +0.117 C 
BRANCH  20  23
ATOM     21  C   UNL     1      -0.340   1.949  -0.390  0.00  0.00    +0.132 C 
ATOM     22  N   UNL     1      -0.574   0.511  -0.232  0.00  0.00    -0.301 N 
ATOM     23  C   UNL     1      -0.478  -0.308  -1.298  0.00  0.00    +0.217 C 
ATOM     24  O   UNL     1      -0.672  -1.498  -1.168  0.00  0.00    -0.276 OA
BRANCH  22  25
ATOM     25  C   UNL     1      -0.912  -0.036   1.084  0.00  0.00    +0.154 C 
BRANCH  25  26
ATOM     26  C   UNL     1      -2.431  -0.029   1.265  0.00  0.00    +0.192 C 
ATOM     27  N   UNL     1      -2.950   1.336   1.115  0.00  0.00    -0.362 N 
ATOM     28  C   UNL     1      -3.778   1.332   0.111  0.00  0.00    +0.060 A 
ATOM     29  C   UNL     1      -4.597   2.381  -0.513  0.00  0.00    +0.029 A 
ATOM     30  C   UNL     1      -5.379   2.075  -1.567  0.00  0.00    +0.022 A 
ATOM     31  C   UNL     1      -5.450   0.778  -2.108  0.00  0.00    +0.043 A 
ATOM     32  C   UNL     1      -4.739  -0.257  -1.611  0.00  0.00    +0.047 A 
ATOM     33  C   UNL     1      -3.853  -0.040  -0.461  0.00  0.00    +0.062 A 
ATOM     34  N   UNL     1      -3.067  -0.833   0.213  0.00  0.00    -0.362 N 
ATOM     35 CL   UNL     1      -6.492   0.497  -3.468  0.00  0.00    -0.083 Cl
ATOM     36  H   UNL     1      -2.718   2.102   1.664  0.00  0.00    +0.162 HD
ATOM     37  H   UNL     1      -2.928  -1.779   0.051  0.00  0.00    +0.162 HD
ENDBRANCH  25  26
ENDBRANCH  22  25
ENDBRANCH  20  23
ENDBRANCH   1  20
TORSDOF 6
