REMARK  Name = ZINC49545551
REMARK  7 active torsions:
REMARK  status: ('A' for Active; 'I' for Inactive)
REMARK    1  A    between atoms: C_3  and  C_12
REMARK    2  A    between atoms: C_5  and  O_7
REMARK    3  A    between atoms: O_7  and  C_8
REMARK    4  A    between atoms: C_8  and  C_9
REMARK    5  A    between atoms: C_15  and  O_32
REMARK    6  A    between atoms: N_19  and  C_25
REMARK    7  A    between atoms: C_21  and  C_22
REMARK                            x       y       z     vdW  Elec       q    Type
REMARK                         _______ _______ _______ _____ _____    ______ ____
ROOT
ATOM      1  C   UNL     1       3.671   2.190  -0.021  0.00  0.00    +0.077 C 
ATOM      2  C   UNL     1       3.724   3.097  -1.256  0.00  0.00    +0.109 C 
ATOM      3  C   UNL     1       2.875   4.321  -1.079  0.00  0.00    +0.189 C 
ATOM      4  N   UNL     1       2.690   4.899   0.070  0.00  0.00    -0.215 NA
ATOM      5  C   UNL     1       3.266   4.351   1.183  0.00  0.00    +0.103 A 
ATOM      6  C   UNL     1       3.747   3.070   1.203  0.00  0.00    +0.058 A 
ATOM      7  N   UNL     1       4.250   2.808   2.436  0.00  0.00    -0.317 N 
ATOM      8  C   UNL     1       4.120   3.889   3.238  0.00  0.00    +0.109 A 
ATOM      9  C   UNL     1       3.507   4.903   2.515  0.00  0.00    +0.107 A 
ENDROOT
BRANCH   7  10
ATOM     10  C   UNL     1       4.822   1.590   2.823  0.00  0.00    +0.048 A 
ATOM     11  C   UNL     1       4.154   0.398   2.577  0.00  0.00    +0.026 A 
ATOM     12  C   UNL     1       4.721  -0.802   2.960  0.00  0.00    +0.003 A 
ATOM     13  C   UNL     1       5.953  -0.818   3.588  0.00  0.00    +0.020 A 
ATOM     14  C   UNL     1       6.621   0.368   3.836  0.00  0.00    +0.043 A 
ATOM     15  C   UNL     1       6.061   1.572   3.449  0.00  0.00    +0.046 A 
ATOM     16 CL   UNL     1       8.166   0.344   4.626  0.00  0.00    -0.083 Cl
ENDBRANCH   7  10
BRANCH   1  19
ATOM     17  C   UNL     1      -0.017   1.377   0.010  0.00  0.00    +0.004 A 
ATOM     18  C   UNL     1       1.171   2.086   0.002  0.00  0.00    +0.004 A 
ATOM     19  C   UNL     1       2.379   1.415  -0.013  0.00  0.00    -0.035 A 
ATOM     20  C   UNL     1       2.403   0.033  -0.021  0.00  0.00    +0.050 A 
ATOM     21  C   UNL     1       1.214  -0.680  -0.013  0.00  0.00    +0.121 A 
ATOM     22  C   UNL     1       0.002  -0.004   0.002  0.00  0.00    +0.045 A 
BRANCH  21  23
ATOM     23  O   UNL     1       1.235  -2.039  -0.021  0.00  0.00    -0.483 OA
BRANCH  23  24
ATOM     24  C   UNL     1      -0.028  -2.708  -0.013  0.00  0.00    +0.324 C 
BRANCH  24  25
ATOM     25  C   UNL     1       0.192  -4.198  -0.024  0.00  0.00    +0.248 C 
ATOM     26  O   UNL     1       1.320  -4.644  -0.037  0.00  0.00    -0.272 OA
ATOM     27  N   UNL     1      -0.864  -5.036  -0.018  0.00  0.00    -0.327 N 
ATOM     28  H   UNL     1      -1.766  -4.679  -0.007  0.00  0.00    +0.145 HD
ATOM     29  H   UNL     1      -0.722  -5.995  -0.025  0.00  0.00    +0.145 HD
ENDBRANCH  24  25
ENDBRANCH  23  24
ENDBRANCH  21  23
ENDBRANCH   1  19
BRANCH   9  30
ATOM     30  C   UNL     1       3.173   6.249   2.989  0.00  0.00    +0.390 C 
ATOM     31  O   UNL     1       3.436   6.577   4.139  0.00  0.00    -0.240 OA
ATOM     32  O   UNL     1       2.631   7.046   2.234  0.00  0.00    -0.240 OA
ENDBRANCH   9  30
BRANCH   3  33
ATOM     33  O   UNL     1       2.275   4.848  -2.167  0.00  0.00    -0.495 OA
ATOM     34  H   UNL     1       1.744   5.635  -1.982  0.00  0.00    +0.293 HD
ENDBRANCH   3  33
TORSDOF 7
