REMARK  Name = ZINC08642930
REMARK  5 active torsions:
REMARK  status: ('A' for Active; 'I' for Inactive)
REMARK    1  A    between atoms: C_1  and  C_2
REMARK    2  A    between atoms: C_2  and  C_28
REMARK    3  A    between atoms: C_6  and  C_19
REMARK    4  A    between atoms: N_10  and  C_17
REMARK    5  A    between atoms: N_13  and  C_16
REMARK                            x       y       z     vdW  Elec       q    Type
REMARK                         _______ _______ _______ _____ _____    ______ ____
ROOT
ATOM      1  C   UNL     1       1.228  -0.039   2.182  0.00  0.00    +0.011 C 
ATOM      2  C   UNL     1       1.254  -0.506   0.725  0.00  0.00    -0.023 C 
ATOM      3  C   UNL     1       0.002  -0.004   0.002  0.00  0.00    +0.058 C 
ATOM      4  C   UNL     1      -0.018   1.505   0.010  0.00  0.00    +0.017 C 
ATOM      5  C   UNL     1       1.129   2.216   0.003  0.00  0.00    +0.024 C 
ATOM      6  C   UNL     1       1.106   3.723  -0.009  0.00  0.00    +0.092 C 
ATOM      7  C   UNL     1      -0.231   4.250   0.422  0.00  0.00    +0.067 A 
ATOM      8  C   UNL     1      -1.333   3.450   0.420  0.00  0.00    +0.116 A 
ATOM      9  N   UNL     1      -2.545   3.962   0.815  0.00  0.00    -0.284 N 
ATOM     10  C   UNL     1      -2.645   5.247   1.203  0.00  0.00    +0.333 A 
ATOM     11  O   UNL     1      -3.725   5.686   1.549  0.00  0.00    -0.246 OA
ATOM     12  N   UNL     1      -1.568   6.053   1.215  0.00  0.00    -0.264 N 
ATOM     13  C   UNL     1      -0.361   5.589   0.835  0.00  0.00    +0.262 A 
ATOM     14  O   UNL     1       0.611   6.324   0.850  0.00  0.00    -0.267 OA
ATOM     15  C   UNL     1      -1.708   7.447   1.644  0.00  0.00    +0.157 C 
ATOM     16  C   UNL     1      -3.734   3.107   0.813  0.00  0.00    +0.155 C 
ATOM     17  N   UNL     1      -1.232   2.138   0.031  0.00  0.00    -0.303 N 
ATOM     18  C   UNL     1       2.379   1.573   0.002  0.00  0.00    +0.162 C 
ATOM     19  O   UNL     1       3.393   2.242  -0.014  0.00  0.00    -0.292 OA
ATOM     20  C   UNL     1       2.486   0.073   0.021  0.00  0.00    +0.086 C 
ATOM     21  C   UNL     1       1.301  -2.034   0.671  0.00  0.00    +0.011 C 
ATOM     22  H   UNL     1      -2.141   1.595  -0.266  0.00  0.00    +0.153 HD
ENDROOT
BRANCH   6  23
ATOM     23  C   UNL     1       1.403   4.210  -1.404  0.00  0.00    -0.032 A 
ATOM     24  C   UNL     1       0.588   3.854  -2.468  0.00  0.00    +0.024 A 
ATOM     25  C   UNL     1       0.889   4.324  -3.732  0.00  0.00    +0.111 A 
ATOM     26  N   UNL     1       1.941   5.093  -3.934  0.00  0.00    -0.263 NA
ATOM     27  C   UNL     1       2.741   5.447  -2.947  0.00  0.00    +0.111 A 
ATOM     28  C   UNL     1       2.500   5.020  -1.655  0.00  0.00    +0.024 A 
ENDBRANCH   6  23
TORSDOF 1
