REMARK  Name = ZINC14748360
REMARK  11 active torsions:
REMARK  status: ('A' for Active; 'I' for Inactive)
REMARK    1  A    between atoms: C_1  and  C_2
REMARK    2  A    between atoms: C_2  and  C_3
REMARK    3  A    between atoms: C_3  and  C_4
REMARK    4  A    between atoms: C_4  and  C_5
REMARK    5  A    between atoms: C_9  and  C_11
REMARK    6  A    between atoms: C_11  and  N_12
REMARK    7  A    between atoms: C_18  and  C_25
REMARK    8  A    between atoms: N_21  and  C_22
REMARK    9  A    between atoms: C_22  and  C_23
REMARK   10  A    between atoms: C_23  and  C_24
REMARK   11  A    between atoms: C_28  and  N_31
REMARK                            x       y       z     vdW  Elec       q    Type
REMARK                         _______ _______ _______ _____ _____    ______ ____
ROOT
ATOM      1  N   UNL     1      -6.655  -2.522  -1.952  0.00  0.00    +0.386 N 
ATOM      2  C   UNL     1      -7.815  -2.934  -2.758  0.00  0.00    -0.072 C 
ATOM      3  C   UNL     1      -8.752  -1.735  -2.905  0.00  0.00    +0.035 C 
ATOM      4  C   UNL     1      -7.977  -0.531  -3.381  0.00  0.00    +0.022 A 
ATOM      5  C   UNL     1      -6.628  -0.484  -3.305  0.00  0.00    -0.044 A 
ATOM      6  C   UNL     1      -5.942   0.657  -3.752  0.00  0.00    +0.017 A 
ATOM      7  C   UNL     1      -6.656   1.723  -4.271  0.00  0.00    +0.047 A 
ATOM      8  C   UNL     1      -8.068   1.629  -4.336  0.00  0.00    +0.259 A 
ATOM      9  O   UNL     1      -8.723   2.551  -4.791  0.00  0.00    -0.267 OA
ATOM     10  N   UNL     1      -8.681   0.517  -3.896  0.00  0.00    -0.312 N 
ATOM     11  C   UNL     1      -5.817  -1.628  -2.755  0.00  0.00    -0.041 C 
ATOM     12  H   UNL     1      -6.970  -2.038  -1.125  0.00  0.00    -0.081 HD
ENDROOT
BRANCH   7  13
ATOM     13  C   UNL     1      -5.957   2.938  -4.747  0.00  0.00    -0.013 A 
ATOM     14  C   UNL     1      -5.250   3.736  -3.848  0.00  0.00    +0.011 A 
ATOM     15  C   UNL     1      -4.601   4.867  -4.295  0.00  0.00    +0.028 A 
ATOM     16  C   UNL     1      -4.650   5.213  -5.640  0.00  0.00    +0.065 A 
ATOM     17  C   UNL     1      -5.354   4.420  -6.538  0.00  0.00    +0.028 A 
ATOM     18  C   UNL     1      -6.000   3.285  -6.098  0.00  0.00    +0.011 A 
BRANCH  16  19
ATOM     19  N   UNL     1      -3.989   6.363  -6.091  0.00  0.00    -0.240 N 
ATOM     20  C   UNL     1      -3.960   6.817  -7.364  0.00  0.00    +0.114 A 
ATOM     21  C   UNL     1      -3.220   7.949  -7.382  0.00  0.00    +0.041 A 
ATOM     22  C   UNL     1      -2.781   8.197  -6.076  0.00  0.00    +0.135 A 
ATOM     23  N   UNL     1      -3.247   7.251  -5.301  0.00  0.00    -0.175 NA
ENDBRANCH  16  19
ENDBRANCH   7  13
BRANCH   1  24
ATOM     24  C   UNL     1      -5.879  -3.707  -1.563  0.00  0.00    -0.023 C 
BRANCH  24  29
ATOM     25  C   UNL     1      -2.826  -2.585   0.015  0.00  0.00    +0.084 A 
ATOM     26  N   UNL     1      -3.556  -2.858   1.118  0.00  0.00    -0.350 N 
ATOM     27  H   UNL     1      -3.269  -2.755   2.039  0.00  0.00    +0.166 HD
ATOM     28  C   UNL     1      -4.778  -3.307   0.694  0.00  0.00    +0.103 A 
ATOM     29  C   UNL     1      -4.752  -3.293  -0.652  0.00  0.00    +0.017 A 
ATOM     30  N   UNL     1      -3.550  -2.843  -1.040  0.00  0.00    -0.349 N 
ATOM     31  H   UNL     1      -3.263  -2.728  -1.959  0.00  0.00    +0.167 HD
BRANCH  25  32
ATOM     32  C   UNL     1      -1.413  -2.063   0.004  0.00  0.00    +0.072 C 
BRANCH  32  33
ATOM     33  C   UNL     1      -1.433  -0.534   0.013  0.00  0.00    +0.007 C 
BRANCH  33  35
ATOM     34  C   UNL     1      -0.019   1.526   0.010  0.00  0.00    +0.004 C 
ATOM     35  C   UNL     1       0.002  -0.004   0.002  0.00  0.00    -0.003 C 
ENDBRANCH  33  35
ENDBRANCH  32  33
ENDBRANCH  25  32
ENDBRANCH  24  29
ENDBRANCH   1  24
BRANCH  10  36
ATOM     36  C   UNL     1     -10.142   0.430  -3.970  0.00  0.00    +0.125 C 
BRANCH  36  37
ATOM     37  C   UNL     1     -10.752   0.977  -2.678  0.00  0.00    +0.018 C 
ATOM     38  C   UNL     1     -12.277   0.886  -2.756  0.00  0.00    +0.005 C 
ENDBRANCH  36  37
ENDBRANCH  10  36
TORSDOF 9
