REMARK  Name = ZINC63373667
REMARK  9 active torsions:
REMARK  status: ('A' for Active; 'I' for Inactive)
REMARK    1  A    between atoms: C_1  and  C_2
REMARK    2  A    between atoms: C_2  and  C_3
REMARK    3  A    between atoms: C_2  and  C_4
REMARK    4  A    between atoms: C_4  and  C_6
REMARK    5  A    between atoms: C_4  and  N_19
REMARK    6  A    between atoms: N_8  and  C_9
REMARK    7  A    between atoms: C_9  and  C_10
REMARK    8  A    between atoms: C_10  and  C_11
REMARK    9  A    between atoms: C_22  and  C_38
REMARK                            x       y       z     vdW  Elec       q    Type
REMARK                         _______ _______ _______ _____ _____    ______ ____
ROOT
ATOM      1  N   UNL     1      -2.083  -0.714  -1.335  0.00  0.00    -0.212 N 
ATOM      2  C   UNL     1      -2.416  -1.854  -1.976  0.00  0.00    +0.249 C 
ATOM      3  O   UNL     1      -2.166  -2.989  -1.629  0.00  0.00    -0.273 OA
ATOM      4  C   UNL     1      -3.164  -1.421  -3.216  0.00  0.00    +0.136 C 
ATOM      5  C   UNL     1      -2.461  -1.926  -4.475  0.00  0.00    +0.139 C 
ATOM      6  C   UNL     1      -1.880  -0.713  -5.187  0.00  0.00    -0.034 C 
ATOM      7  C   UNL     1      -0.579  -0.954  -5.330  0.00  0.00    -0.001 A 
ATOM      8  C   UNL     1       0.489  -0.188  -5.992  0.00  0.00    +0.010 A 
ATOM      9  C   UNL     1       1.735  -0.730  -5.941  0.00  0.00    +0.001 A 
ATOM     10  C   UNL     1       2.021  -1.942  -5.304  0.00  0.00    +0.002 A 
ATOM     11  C   UNL     1       1.099  -2.714  -4.674  0.00  0.00    +0.026 A 
ATOM     12  C   UNL     1      -0.248  -2.250  -4.665  0.00  0.00    +0.043 A 
ATOM     13  N   UNL     1      -1.329  -2.799  -4.156  0.00  0.00    -0.375 N 
ATOM     14  C   UNL     1      -2.687   0.508  -5.553  0.00  0.00    +0.052 C 
ATOM     15  C   UNL     1      -3.432   0.953  -4.278  0.00  0.00    +0.115 C 
ATOM     16  N   UNL     1      -3.043   0.051  -3.191  0.00  0.00    -0.269 N 
ATOM     17  C   UNL     1      -2.481   0.369  -2.016  0.00  0.00    +0.313 C 
ATOM     18  O   UNL     1      -2.345   1.509  -1.616  0.00  0.00    -0.252 OA
ATOM     19  C   UNL     1      -4.629  -1.862  -3.165  0.00  0.00    +0.044 C 
ATOM     20  H   UNL     1      -1.376  -3.628  -3.655  0.00  0.00    +0.160 HD
ENDROOT
BRANCH   1  21
ATOM     21  C   UNL     1      -1.380  -0.667  -0.051  0.00  0.00    +0.174 C 
BRANCH  21  22
ATOM     22  C   UNL     1      -2.292  -0.089   1.000  0.00  0.00    +0.234 C 
ATOM     23  O   UNL     1      -3.265   0.556   0.671  0.00  0.00    -0.274 OA
ATOM     24  N   UNL     1      -2.026  -0.288   2.306  0.00  0.00    -0.313 N 
ATOM     25  H   UNL     1      -1.208  -0.737   2.572  0.00  0.00    +0.149 HD
BRANCH  24  26
ATOM     26  C   UNL     1      -2.972   0.173   3.325  0.00  0.00    +0.109 C 
BRANCH  26  27
ATOM     27  C   UNL     1      -2.436  -0.175   4.715  0.00  0.00    +0.058 C 
BRANCH  27  28
ATOM     28  C   UNL     1      -3.409   0.299   5.763  0.00  0.00    +0.008 A 
ATOM     29  C   UNL     1      -3.296   1.575   6.287  0.00  0.00    +0.128 A 
ATOM     30  C   UNL     1      -4.191   2.010   7.250  0.00  0.00    +0.039 A 
ATOM     31  C   UNL     1      -5.197   1.169   7.687  0.00  0.00    +0.004 A 
ATOM     32  C   UNL     1      -5.310  -0.105   7.164  0.00  0.00    +0.020 A 
ATOM     33  C   UNL     1      -4.420  -0.539   6.198  0.00  0.00    +0.047 A 
ATOM     34 CL   UNL     1      -4.568  -2.137   5.536  0.00  0.00    -0.083 Cl
ATOM     35  F   UNL     1      -2.312   2.396   5.860  0.00  0.00    -0.205 F 
ENDBRANCH  27  28
ENDBRANCH  26  27
ENDBRANCH  24  26
ENDBRANCH  21  22
BRANCH  21  37
ATOM     36  C   UNL     1       0.660   0.172   1.123  0.00  0.00    +0.009 C 
ATOM     37  C   UNL     1      -0.134   0.211  -0.184  0.00  0.00    +0.013 C 
ATOM     38  C   UNL     1       0.739  -0.312  -1.327  0.00  0.00    +0.009 C 
ENDBRANCH  21  37
ENDBRANCH   1  21
TORSDOF 6
