REMARK  Name = ZINC39427071
REMARK  8 active torsions:
REMARK  status: ('A' for Active; 'I' for Inactive)
REMARK    1  A    between atoms: C_1  and  C_2
REMARK    2  A    between atoms: C_7  and  N_8
REMARK    3  A    between atoms: C_9  and  C_22
REMARK    4  A    between atoms: N_13  and  C_16
REMARK    5  A    between atoms: C_16  and  C_17
REMARK    6  A    between atoms: C_22  and  C_23
REMARK    7  A    between atoms: N_25  and  C_26
REMARK    8  A    between atoms: C_29  and  C_32
REMARK                            x       y       z     vdW  Elec       q    Type
REMARK                         _______ _______ _______ _____ _____    ______ ____
ROOT
ATOM      1  N   UNL     1      -0.190  -0.030   2.393  0.00  0.00    -0.270 N 
ATOM      2  C   UNL     1      -1.407   0.211   3.187  0.00  0.00    +0.175 C 
ATOM      3  C   UNL     1      -0.905   1.002   4.378  0.00  0.00    +0.243 C 
ATOM      4  O   UNL     1      -1.562   1.425   5.306  0.00  0.00    -0.273 OA
ATOM      5  N   UNL     1       0.423   1.137   4.192  0.00  0.00    -0.244 N 
ATOM      6  C   UNL     1       0.826   0.543   3.063  0.00  0.00    +0.147 C 
ATOM      7  S   UNL     1       2.452   0.520   2.528  0.00  0.00    -0.018 S 
ENDROOT
BRANCH   1  14
ATOM      8  C   UNL     1       0.041  -2.865   2.485  0.00  0.00    +0.045 C 
ATOM      9  C   UNL     1       0.008  -2.110   1.182  0.00  0.00    -0.029 A 
ATOM     10  C   UNL     1       0.086  -2.794  -0.016  0.00  0.00    +0.005 A 
ATOM     11  C   UNL     1       0.056  -2.102  -1.212  0.00  0.00    +0.000 A 
ATOM     12  C   UNL     1      -0.052  -0.723  -1.215  0.00  0.00    +0.002 A 
ATOM     13  C   UNL     1      -0.129  -0.033  -0.021  0.00  0.00    +0.024 A 
ATOM     14  C   UNL     1      -0.105  -0.726   1.183  0.00  0.00    +0.039 A 
ENDBRANCH   1  14
BRANCH   5  15
ATOM     15  C   UNL     1       1.315   1.844   5.115  0.00  0.00    +0.189 C 
BRANCH  15  16
ATOM     16  C   UNL     1       1.844   0.876   6.142  0.00  0.00    +0.123 A 
ATOM     17  C   UNL     1       2.971   0.150   6.032  0.00  0.00    +0.046 A 
ATOM     18  C   UNL     1       3.082  -0.616   7.215  0.00  0.00    +0.041 A 
ATOM     19  C   UNL     1       2.016  -0.312   7.977  0.00  0.00    +0.195 A 
ATOM     20  O   UNL     1       1.273   0.596   7.325  0.00  0.00    -0.466 OA
ENDBRANCH  15  16
ENDBRANCH   5  15
BRANCH   2  21
ATOM     21  C   UNL     1      -2.421   1.028   2.382  0.00  0.00    +0.128 C 
BRANCH  21  22
ATOM     22  C   UNL     1      -2.951   0.192   1.246  0.00  0.00    +0.219 C 
ATOM     23  O   UNL     1      -2.557  -0.945   1.094  0.00  0.00    -0.275 OA
ATOM     24  N   UNL     1      -3.863   0.708   0.398  0.00  0.00    -0.285 N 
ATOM     25  H   UNL     1      -4.226   1.593   0.557  0.00  0.00    +0.155 HD
BRANCH  24  26
ATOM     26  C   UNL     1      -4.284  -0.031  -0.707  0.00  0.00    +0.033 A 
ATOM     27  C   UNL     1      -4.417  -1.413  -0.608  0.00  0.00    +0.024 A 
ATOM     28  C   UNL     1      -4.832  -2.145  -1.698  0.00  0.00    +0.015 A 
ATOM     29  C   UNL     1      -5.121  -1.499  -2.903  0.00  0.00    +0.037 A 
ATOM     30  C   UNL     1      -4.987  -0.112  -2.998  0.00  0.00    +0.015 A 
ATOM     31  C   UNL     1      -4.576   0.615  -1.904  0.00  0.00    +0.024 A 
BRANCH  29  32
ATOM     32  C   UNL     1      -5.567  -2.281  -4.073  0.00  0.00    +0.242 C 
ATOM     33  O   UNL     1      -5.683  -3.489  -3.988  0.00  0.00    -0.270 OA
ATOM     34  N   UNL     1      -5.845  -1.657  -5.234  0.00  0.00    -0.325 N 
ATOM     35  H   UNL     1      -5.752  -0.694  -5.301  0.00  0.00    +0.145 HD
ATOM     36  H   UNL     1      -6.138  -2.171  -6.003  0.00  0.00    +0.145 HD
ENDBRANCH  29  32
ENDBRANCH  24  26
ENDBRANCH  21  22
ENDBRANCH   2  21
TORSDOF 7
