REMARK  Name = ZINC29479654
REMARK  7 active torsions:
REMARK  status: ('A' for Active; 'I' for Inactive)
REMARK    1  A    between atoms: C_4  and  C_7
REMARK    2  A    between atoms: C_7  and  C_9
REMARK    3  A    between atoms: C_7  and  O_27
REMARK    4  A    between atoms: N_12  and  C_15
REMARK    5  A    between atoms: C_15  and  C_16
REMARK    6  A    between atoms: N_21  and  C_22
REMARK    7  A    between atoms: C_22  and  C_23
REMARK                            x       y       z     vdW  Elec       q    Type
REMARK                         _______ _______ _______ _____ _____    ______ ____
ROOT
ATOM      1  C   UNL     1      -0.729   1.579   1.267  0.00  0.00    +0.019 C 
ATOM      2  C   UNL     1       0.006   1.066   2.508  0.00  0.00    -0.012 C 
ATOM      3  C   UNL     1      -0.749   1.512   3.763  0.00  0.00    -0.078 C 
ATOM      4  N   UNL     1      -2.117   0.979   3.727  0.00  0.00    +0.385 N 
ATOM      5  C   UNL     1      -2.857   1.496   2.569  0.00  0.00    -0.078 C 
ATOM      6  C   UNL     1      -2.166   1.050   1.279  0.00  0.00    -0.012 C 
ATOM      7  H   UNL     1      -2.049  -0.114   3.621  0.00  0.00    -0.081 HD
ENDROOT
BRANCH   1   8
ATOM      8  C   UNL     1      -0.013   1.086   0.008  0.00  0.00    +0.147 C 
BRANCH   8  12
ATOM      9  C   UNL     1       3.995   2.564  -0.023  0.00  0.00    +0.000 A 
ATOM     10  C   UNL     1       3.740   1.267   0.382  0.00  0.00    +0.000 A 
ATOM     11  C   UNL     1       2.443   0.789   0.392  0.00  0.00    +0.006 A 
ATOM     12  C   UNL     1       1.401   1.607  -0.003  0.00  0.00    -0.019 A 
ATOM     13  C   UNL     1       1.657   2.902  -0.413  0.00  0.00    +0.006 A 
ATOM     14  C   UNL     1       2.953   3.382  -0.418  0.00  0.00    +0.000 A 
ENDBRANCH   8  12
BRANCH   8  15
ATOM     15  O   UNL     1      -0.704   1.559  -1.150  0.00  0.00    -0.387 OA
ATOM     16  H   UNL     1      -1.755   1.280  -1.315  0.00  0.00    +0.210 HD
ENDBRANCH   8  15
ENDBRANCH   1   8
BRANCH   4  17
ATOM     17  C   UNL     1      -2.828   1.270   4.979  0.00  0.00    +0.019 C 
BRANCH  17  18
ATOM     18  C   UNL     1      -2.175   0.522   6.113  0.00  0.00    +0.204 C 
ATOM     19  O   UNL     1      -1.213  -0.184   5.899  0.00  0.00    -0.277 OA
ATOM     20  N   UNL     1      -2.661   0.637   7.364  0.00  0.00    -0.242 N 
ATOM     21  C   UNL     1      -2.078  -0.032   8.378  0.00  0.00    +0.306 C 
ATOM     22  O   UNL     1      -1.114  -0.740   8.164  0.00  0.00    -0.252 OA
ATOM     23  N   UNL     1      -2.564   0.083   9.630  0.00  0.00    -0.291 N 
ATOM     24  H   UNL     1      -3.534   1.278   7.559  0.00  0.00    +0.159 HD
ATOM     25  H   UNL     1      -3.437   0.724   9.824  0.00  0.00    +0.151 HD
BRANCH  23  26
ATOM     26  C   UNL     1      -1.930  -0.644  10.732  0.00  0.00    +0.219 C 
BRANCH  26  27
ATOM     27  C   UNL     1      -2.670  -0.341  12.036  0.00  0.00    +0.405 C 
ATOM     28  F   UNL     1      -4.005  -0.743  11.919  0.00  0.00    -0.169 F 
ATOM     29  F   UNL     1      -2.065  -1.036  13.089  0.00  0.00    -0.169 F 
ATOM     30  F   UNL     1      -2.618   1.033  12.294  0.00  0.00    -0.169 F 
ENDBRANCH  26  27
ENDBRANCH  23  26
ENDBRANCH  17  18
ENDBRANCH   4  17
TORSDOF 7
