REMARK  Name = ZINC56327177
REMARK  12 active torsions:
REMARK  status: ('A' for Active; 'I' for Inactive)
REMARK    1  A    between atoms: C_1  and  C_2
REMARK    2  A    between atoms: C_2  and  C_3
REMARK    3  A    between atoms: C_2  and  C_4
REMARK    4  A    between atoms: C_4  and  C_6
REMARK    5  A    between atoms: C_4  and  N_16
REMARK    6  A    between atoms: C_9  and  C_12
REMARK    7  A    between atoms: C_12  and  C_13
REMARK    8  A    between atoms: C_12  and  C_14
REMARK    9  A    between atoms: C_12  and  C_15
REMARK   10  A    between atoms: C_17  and  C_19
REMARK   11  A    between atoms: C_22  and  S_24
REMARK   12  A    between atoms: S_24  and  N_27
REMARK                            x       y       z     vdW  Elec       q    Type
REMARK                         _______ _______ _______ _____ _____    ______ ____
ROOT
ATOM      1  N   UNL     1       2.116  -0.004   1.231  0.00  0.00    -0.302 N 
ATOM      2  C   UNL     1       2.387   1.219   1.728  0.00  0.00    +0.280 C 
ATOM      3  O   UNL     1       1.490   1.902   2.186  0.00  0.00    -0.267 OA
ATOM      4  H   UNL     1       2.832  -0.548   0.866  0.00  0.00    +0.150 HD
ENDROOT
BRANCH   2   5
ATOM      5  C   UNL     1       3.763   1.727   1.718  0.00  0.00    +0.192 A 
ATOM      6  C   UNL     1       4.175   2.939   2.192  0.00  0.00    +0.057 A 
ATOM      7  C   UNL     1       5.561   3.005   1.982  0.00  0.00    +0.072 A 
ATOM      8  C   UNL     1       5.930   1.845   1.396  0.00  0.00    +0.258 A 
ATOM      9  O   UNL     1       4.845   1.075   1.243  0.00  0.00    -0.432 OA
BRANCH   8  10
ATOM     10  S   UNL     1       7.570   1.414   0.917  0.00  0.00    +0.089 S 
ATOM     11  O   UNL     1       7.450   0.441  -0.111  0.00  0.00    -0.150 OA
ATOM     12  O   UNL     1       8.274   2.635   0.733  0.00  0.00    -0.150 OA
BRANCH  10  13
ATOM     13  N   UNL     1       8.273   0.653   2.209  0.00  0.00    -0.201 NA
ATOM     14  H   UNL     1       7.771   0.526   3.030  0.00  0.00    +0.144 HD
ATOM     15  H   UNL     1       9.187   0.334   2.146  0.00  0.00    +0.144 HD
ENDBRANCH  10  13
ENDBRANCH   8  10
ENDBRANCH   2   5
BRANCH   1  16
ATOM     16  C   UNL     1       0.742  -0.511   1.242  0.00  0.00    +0.106 C 
BRANCH  16  17
ATOM     17  C   UNL     1       0.762  -2.018   1.233  0.00  0.00    -0.027 A 
ATOM     18  C   UNL     1       1.685  -2.692   0.456  0.00  0.00    +0.006 A 
ATOM     19  C   UNL     1       1.704  -4.074   0.448  0.00  0.00    +0.004 A 
ATOM     20  C   UNL     1       0.800  -4.782   1.218  0.00  0.00    -0.042 A 
ATOM     21  C   UNL     1      -0.122  -4.108   1.997  0.00  0.00    +0.004 A 
ATOM     22  C   UNL     1      -0.138  -2.725   2.008  0.00  0.00    +0.006 A 
BRANCH  20  23
ATOM     23  C   UNL     1       0.820  -6.289   1.209  0.00  0.00    -0.013 C 
ATOM     24  C   UNL     1       2.185  -6.784   1.692  0.00  0.00    +0.015 C 
ATOM     25  C   UNL     1      -0.273  -6.819   2.139  0.00  0.00    +0.015 C 
ATOM     26  C   UNL     1       0.568  -6.794  -0.213  0.00  0.00    +0.015 C 
ENDBRANCH  20  23
ENDBRANCH  16  17
BRANCH  16  28
ATOM     27  C   UNL     1      -0.019   1.526   0.010  0.00  0.00    +0.009 C 
ATOM     28  C   UNL     1       0.002  -0.004   0.002  0.00  0.00    +0.008 C 
ATOM     29  C   UNL     1       0.718  -0.497  -1.257  0.00  0.00    +0.009 C 
ENDBRANCH  16  28
ENDBRANCH   1  16
TORSDOF 7
