REMARK  Name = ZINC36308594
REMARK  14 active torsions:
REMARK  status: ('A' for Active; 'I' for Inactive)
REMARK    1  A    between atoms: C_1  and  C_2
REMARK    2  A    between atoms: C_3  and  C_20
REMARK    3  A    between atoms: C_4  and  O_13
REMARK    4  A    between atoms: N_5  and  C_7
REMARK    5  A    between atoms: O_13  and  C_14
REMARK    6  A    between atoms: C_20  and  N_21
REMARK    7  A    between atoms: N_21  and  C_22
REMARK    8  A    between atoms: N_21  and  C_29
REMARK    9  A    between atoms: C_22  and  C_23
REMARK   10  A    between atoms: C_29  and  C_30
REMARK   11  A    between atoms: C_30  and  C_32
REMARK   12  A    between atoms: C_30  and  O_36
REMARK   13  A    between atoms: C_32  and  C_33
REMARK   14  A    between atoms: C_33  and  C_34
REMARK                            x       y       z     vdW  Elec       q    Type
REMARK                         _______ _______ _______ _____ _____    ______ ____
ROOT
ATOM      1  C   UNL     1       0.428  -3.743  -2.048  0.00  0.00    +0.068 C 
ATOM      2  C   UNL     1      -0.676  -2.967  -2.718  0.00  0.00    +0.065 A 
ATOM      3  C   UNL     1      -0.815  -1.575  -2.715  0.00  0.00    +0.021 A 
ATOM      4  C   UNL     1      -1.933  -1.266  -3.425  0.00  0.00    +0.225 A 
ATOM      5  N   UNL     1      -2.477  -2.434  -3.859  0.00  0.00    -0.200 N 
ATOM      6  N   UNL     1      -1.665  -3.480  -3.405  0.00  0.00    -0.168 NA
ENDROOT
BRANCH   5   7
ATOM      7  C   UNL     1      -3.642  -2.566  -4.628  0.00  0.00    +0.069 A 
ATOM      8  C   UNL     1      -4.761  -1.800  -4.334  0.00  0.00    +0.028 A 
ATOM      9  C   UNL     1      -5.907  -1.933  -5.094  0.00  0.00    +0.002 A 
ATOM     10  C   UNL     1      -5.939  -2.828  -6.147  0.00  0.00    +0.000 A 
ATOM     11  C   UNL     1      -4.826  -3.593  -6.443  0.00  0.00    +0.002 A 
ATOM     12  C   UNL     1      -3.675  -3.460  -5.691  0.00  0.00    +0.028 A 
ENDBRANCH   5   7
BRANCH   4  13
ATOM     13  O   UNL     1      -2.417  -0.019  -3.657  0.00  0.00    -0.438 OA
BRANCH  13  14
ATOM     14  C   UNL     1      -3.238   0.530  -2.724  0.00  0.00    +0.130 A 
ATOM     15  C   UNL     1      -3.467  -0.130  -1.525  0.00  0.00    +0.046 A 
ATOM     16  C   UNL     1      -4.303   0.431  -0.579  0.00  0.00    +0.004 A 
ATOM     17  C   UNL     1      -4.912   1.648  -0.826  0.00  0.00    +0.000 A 
ATOM     18  C   UNL     1      -4.685   2.307  -2.020  0.00  0.00    +0.004 A 
ATOM     19  C   UNL     1      -3.845   1.754  -2.967  0.00  0.00    +0.046 A 
ENDBRANCH  13  14
ENDBRANCH   4  13
BRANCH   3  20
ATOM     20  C   UNL     1       0.111  -0.593  -2.045  0.00  0.00    -0.036 C 
BRANCH  20  21
ATOM     21  N   UNL     1       1.250  -0.311  -2.928  0.00  0.00    +0.386 N 
ATOM     22  H   UNL     1       1.672  -1.180  -3.220  0.00  0.00    -0.081 HD
BRANCH  21  23
ATOM     23  C   UNL     1       2.241   0.498  -2.207  0.00  0.00    -0.046 C 
BRANCH  23  24
ATOM     24  C   UNL     1       1.654   1.880  -1.911  0.00  0.00    +0.102 C 
ATOM     25  C   UNL     1       2.725   2.773  -1.250  0.00  0.00    +0.032 C 
ATOM     26  C   UNL     1       1.900   3.545  -0.185  0.00  0.00    +0.030 C 
ATOM     27  C   UNL     1       0.866   2.466   0.224  0.00  0.00    +0.160 C 
ATOM     28  O   UNL     1       0.563   1.757  -0.991  0.00  0.00    -0.378 OA
ENDBRANCH  23  24
ENDBRANCH  21  23
BRANCH  21  29
ATOM     29  C   UNL     1       0.782   0.427  -4.109  0.00  0.00    -0.047 C 
BRANCH  29  30
ATOM     30  C   UNL     1       1.934   0.580  -5.104  0.00  0.00    +0.098 C 
BRANCH  30  31
ATOM     31  O   UNL     1       2.896   1.498  -4.580  0.00  0.00    -0.394 OA
ATOM     32  H   UNL     1       2.545   2.383  -4.412  0.00  0.00    +0.210 HD
ENDBRANCH  30  31
BRANCH  30  33
ATOM     33  C   UNL     1       1.393   1.112  -6.433  0.00  0.00    +0.033 C 
BRANCH  33  34
ATOM     34  C   UNL     1       2.522   1.148  -7.465  0.00  0.00    +0.029 C 
BRANCH  34  35
ATOM     35  C   UNL     1       1.990   1.671  -8.774  0.00  0.00    -0.034 C 
ATOM     36  C   UNL     1       2.560   2.702  -9.348  0.00  0.00    +0.004 C 
ENDBRANCH  34  35
ENDBRANCH  33  34
ENDBRANCH  30  33
ENDBRANCH  29  30
ENDBRANCH  21  29
ENDBRANCH  20  21
ENDBRANCH   3  20
TORSDOF 13
