REMARK  Name = ZINC54274394
REMARK  4 active torsions:
REMARK  status: ('A' for Active; 'I' for Inactive)
REMARK    1  A    between atoms: C_1  and  N_2
REMARK    2  A    between atoms: N_7  and  C_8
REMARK    3  A    between atoms: C_8  and  C_10
REMARK    4  A    between atoms: C_13  and  C_16
REMARK                            x       y       z     vdW  Elec       q    Type
REMARK                         _______ _______ _______ _____ _____    ______ ____
ROOT
ATOM      1  C   UNL     1       0.056  -0.554   4.831  0.00  0.00    +0.147 C 
ATOM      2  N   UNL     1       0.037   0.691   5.169  0.00  0.00    -0.084 NA
ATOM      3  O   UNL     1       0.042   0.881   6.570  0.00  0.00    -0.385 OA
ATOM      4  C   UNL     1       0.480  -0.352   7.175  0.00  0.00    +0.240 C 
ATOM      5  C   UNL     1       0.079  -1.390   6.097  0.00  0.00    +0.116 C 
ENDROOT
BRANCH   4   6
ATOM      6  C   UNL     1      -0.254  -0.610   8.466  0.00  0.00    -0.004 A 
ATOM      7  C   UNL     1      -1.599  -0.308   8.569  0.00  0.00    +0.007 A 
ATOM      8  C   UNL     1      -2.272  -0.544   9.753  0.00  0.00    +0.000 A 
ATOM      9  C   UNL     1      -1.600  -1.082  10.834  0.00  0.00    +0.000 A 
ATOM     10  C   UNL     1      -0.255  -1.385  10.731  0.00  0.00    +0.000 A 
ATOM     11  C   UNL     1       0.417  -1.153   9.546  0.00  0.00    +0.007 A 
ENDBRANCH   4   6
BRANCH   1  12
ATOM     12  C   UNL     1       0.050  -1.077   3.449  0.00  0.00    +0.287 C 
ATOM     13  O   UNL     1       0.064  -2.280   3.252  0.00  0.00    -0.267 OA
BRANCH  12  20
ATOM     14  C   UNL     1      -0.018   1.461   0.010  0.00  0.00    +0.150 C 
ATOM     15  N   UNL     1       0.002  -0.004   0.002  0.00  0.00    -0.331 N 
ATOM     16  C   UNL     1       0.006  -0.689  -1.172  0.00  0.00    +0.094 A 
ATOM     17  C   UNL     1       0.025  -2.026  -1.103  0.00  0.00    +0.066 A 
ATOM     18  S   UNL     1       0.037  -2.304   0.658  0.00  0.00    -0.061 S 
ATOM     19  C   UNL     1       0.023  -0.703   1.170  0.00  0.00    +0.166 A 
ATOM     20  N   UNL     1       0.028  -0.232   2.416  0.00  0.00    -0.151 NA
ENDBRANCH  12  20
ENDBRANCH   1  12
TORSDOF 3
