REMARK  Name = ZINC12704492
REMARK  9 active torsions:
REMARK  status: ('A' for Active; 'I' for Inactive)
REMARK    1  A    between atoms: C_1  and  C_2
REMARK    2  A    between atoms: C_2  and  N_64
REMARK    3  A    between atoms: C_6  and  C_8
REMARK    4  A    between atoms: C_8  and  N_9
REMARK    5  A    between atoms: N_9  and  C_10
REMARK    6  A    between atoms: C_10  and  C_11
REMARK    7  A    between atoms: C_16  and  C_24
REMARK    8  A    between atoms: C_17  and  C_23
REMARK    9  A    between atoms: N_27  and  C_28
REMARK                            x       y       z     vdW  Elec       q    Type
REMARK                         _______ _______ _______ _____ _____    ______ ____
ROOT
ATOM      1  N   UNL     1      -2.107  -0.550  -0.120  0.00  0.00    -0.282 N 
ATOM      2  C   UNL     1      -2.596  -0.922  -1.320  0.00  0.00    +0.307 C 
ATOM      3  O   UNL     1      -3.282  -0.151  -1.962  0.00  0.00    -0.252 OA
ATOM      4  N   UNL     1      -2.323  -2.148  -1.808  0.00  0.00    -0.269 N 
ATOM      5  H   UNL     1      -1.839  -2.790  -1.264  0.00  0.00    +0.156 HD
ENDROOT
BRANCH   4   6
ATOM      6  C   UNL     1      -2.738  -2.496  -3.099  0.00  0.00    +0.035 A 
ATOM      7  C   UNL     1      -3.104  -3.805  -3.383  0.00  0.00    +0.026 A 
ATOM      8  C   UNL     1      -3.518  -4.145  -4.656  0.00  0.00    +0.040 A 
ATOM      9  C   UNL     1      -3.558  -3.184  -5.652  0.00  0.00    +0.124 A 
ATOM     10  C   UNL     1      -3.189  -1.879  -5.372  0.00  0.00    +0.040 A 
ATOM     11  C   UNL     1      -2.780  -1.534  -4.099  0.00  0.00    +0.026 A 
ATOM     12  F   UNL     1      -3.958  -3.520  -6.898  0.00  0.00    -0.205 F 
ENDBRANCH   4   6
BRANCH   1  13
ATOM     13  C   UNL     1      -1.280  -1.479   0.654  0.00  0.00    +0.094 C 
BRANCH  13  17
ATOM     14  C   UNL     1      -3.721  -3.925   1.962  0.00  0.00    -0.078 C 
ATOM     15  C   UNL     1      -2.399  -4.493   2.522  0.00  0.00    -0.020 C 
ATOM     16  C   UNL     1      -1.367  -3.361   2.336  0.00  0.00    -0.016 C 
ATOM     17  C   UNL     1      -2.152  -2.205   1.680  0.00  0.00    -0.051 C 
ATOM     18  N   UNL     1      -3.283  -2.883   1.036  0.00  0.00    +0.382 N 
ATOM     19  H   UNL     1      -2.982  -3.306   0.150  0.00  0.00    -0.081 HD
BRANCH  18  21
ATOM     20  C   UNL     1      -5.378  -2.509  -0.238  0.00  0.00    -0.017 C 
ATOM     21  C   UNL     1      -4.390  -1.912   0.767  0.00  0.00    -0.082 C 
ENDBRANCH  18  21
ENDBRANCH  13  17
ENDBRANCH   1  13
BRANCH   1  22
ATOM     22  C   UNL     1      -2.404   0.783   0.411  0.00  0.00    +0.149 C 
BRANCH  22  23
ATOM     23  C   UNL     1      -1.298   1.733   0.029  0.00  0.00    +0.035 A 
ATOM     24  C   UNL     1      -1.412   2.488  -1.092  0.00  0.00    +0.020 A 
ATOM     25  C   UNL     1      -0.320   3.401  -1.435  0.00  0.00    -0.001 A 
ATOM     26  C   UNL     1      -0.381   4.205  -2.578  0.00  0.00    +0.010 A 
ATOM     27  C   UNL     1       0.654   5.046  -2.870  0.00  0.00    +0.004 A 
ATOM     28  C   UNL     1       1.767   5.110  -2.043  0.00  0.00    -0.046 A 
ATOM     29  C   UNL     1       1.849   4.328  -0.911  0.00  0.00    -0.024 A 
ATOM     30  C   UNL     1       0.806   3.463  -0.593  0.00  0.00    +0.052 A 
ATOM     31  N   UNL     1       0.861   2.669   0.532  0.00  0.00    -0.322 N 
ATOM     32  H   UNL     1       1.639   2.714   1.111  0.00  0.00    +0.169 HD
ATOM     33  C   UNL     1      -0.149   1.838   0.842  0.00  0.00    +0.254 A 
ATOM     34  O   UNL     1      -0.069   1.154   1.848  0.00  0.00    -0.268 OA
ATOM     35  C   UNL     1       3.062   4.409  -0.022  0.00  0.00    +0.046 C 
ATOM     36  C   UNL     1       2.898   6.046  -2.385  0.00  0.00    +0.044 C 
ENDBRANCH  22  23
ENDBRANCH   1  22
TORSDOF 6
