REMARK  Name = ZINC04516270
REMARK  8 active torsions:
REMARK  status: ('A' for Active; 'I' for Inactive)
REMARK    1  A    between atoms: C_1  and  C_2
REMARK    2  A    between atoms: C_2  and  N_3
REMARK    3  A    between atoms: C_4  and  C_23
REMARK    4  A    between atoms: C_7  and  S_8
REMARK    5  A    between atoms: S_8  and  C_9
REMARK    6  A    between atoms: C_9  and  C_10
REMARK    7  A    between atoms: C_19  and  C_22
REMARK    8  A    between atoms: C_20  and  C_21
REMARK                            x       y       z     vdW  Elec       q    Type
REMARK                         _______ _______ _______ _____ _____    ______ ____
ROOT
ATOM      1  C   UNL     1      -2.541  -0.467   0.010  0.00  0.00    +0.113 C 
ENDROOT
BRANCH   1   2
ATOM      2  C   UNL     1      -2.506   1.039   0.019  0.00  0.00    -0.020 A 
ATOM      3  C   UNL     1      -3.653   1.764   0.028  0.00  0.00    +0.097 A 
ATOM      4  C   UNL     1      -3.592   3.174   0.035  0.00  0.00    +0.338 A 
ATOM      5  O   UNL     1      -4.629   3.812   0.044  0.00  0.00    -0.245 OA
ATOM      6  O   UNL     1      -2.421   3.829   0.046  0.00  0.00    -0.422 OA
ATOM      7  C   UNL     1      -1.244   3.168   0.031  0.00  0.00    +0.142 A 
ATOM      8  C   UNL     1      -1.230   1.762   0.017  0.00  0.00    +0.022 A 
ATOM      9  C   UNL     1      -0.013   1.076   0.008  0.00  0.00    +0.012 A 
ATOM     10  C   UNL     1       1.168   1.784   0.001  0.00  0.00    +0.004 A 
ATOM     11  C   UNL     1       1.153   3.172   0.008  0.00  0.00    -0.044 A 
ATOM     12  C   UNL     1      -0.041   3.862   0.023  0.00  0.00    -0.005 A 
ATOM     13  C   UNL     1      -0.040   5.369   0.032  0.00  0.00    +0.048 C 
ATOM     14  C   UNL     1       2.454   3.932   0.000  0.00  0.00    +0.044 C 
ENDBRANCH   1   2
BRANCH   1  15
ATOM     15  S   UNL     1      -2.548  -1.081   1.713  0.00  0.00    -0.081 S 
BRANCH  15  20
ATOM     16  N   UNL     1      -2.603  -3.802   2.360  0.00  0.00    -0.300 N 
ATOM     17  C   UNL     1      -2.640  -4.988   1.660  0.00  0.00    +0.200 A 
ATOM     18  N   UNL     1      -2.638  -4.680   0.382  0.00  0.00    -0.125 NA
ATOM     19  N   UNL     1      -2.609  -3.404   0.238  0.00  0.00    -0.122 NA
ATOM     20  C   UNL     1      -2.590  -2.816   1.413  0.00  0.00    +0.192 A 
BRANCH  17  21
ATOM     21  C   UNL     1      -2.670  -6.342   2.234  0.00  0.00    +0.172 A 
ATOM     22  C   UNL     1      -2.420  -7.502   1.563  0.00  0.00    +0.053 A 
ATOM     23  C   UNL     1      -2.555  -8.547   2.496  0.00  0.00    +0.042 A 
ATOM     24  C   UNL     1      -2.887  -7.985   3.675  0.00  0.00    +0.196 A 
ATOM     25  O   UNL     1      -2.955  -6.653   3.514  0.00  0.00    -0.460 OA
ENDBRANCH  17  21
BRANCH  16  27
ATOM     26  C   UNL     1      -4.022  -3.542   4.335  0.00  0.00    +0.027 C 
ATOM     27  C   UNL     1      -2.586  -3.633   3.815  0.00  0.00    +0.122 C 
ENDBRANCH  16  27
ENDBRANCH  15  20
ENDBRANCH   1  15
TORSDOF 5
