REMARK  Name = ZINC63245238
REMARK  8 active torsions:
REMARK  status: ('A' for Active; 'I' for Inactive)
REMARK    1  A    between atoms: C_1  and  C_2
REMARK    2  A    between atoms: C_7  and  N_8
REMARK    3  A    between atoms: C_9  and  C_27
REMARK    4  A    between atoms: C_12  and  S_13
REMARK    5  A    between atoms: S_13  and  C_14
REMARK    6  A    between atoms: C_14  and  C_15
REMARK    7  A    between atoms: N_17  and  C_18
REMARK    8  A    between atoms: C_23  and  C_24
REMARK                            x       y       z     vdW  Elec       q    Type
REMARK                         _______ _______ _______ _____ _____    ______ ____
ROOT
ATOM      1  N   UNL     1       0.025   0.022   2.396  0.00  0.00    -0.270 N 
ATOM      2  C   UNL     1      -1.079   0.423   3.132  0.00  0.00    +0.168 A 
ATOM      3  N   UNL     1      -0.619   1.043   4.209  0.00  0.00    -0.128 NA
ATOM      4  N   UNL     1       0.666   1.053   4.191  0.00  0.00    -0.122 NA
ATOM      5  C   UNL     1       1.112   0.437   3.106  0.00  0.00    +0.197 A 
ENDROOT
BRANCH   2   6
ATOM      6  C   UNL     1      -2.426   0.212   2.800  0.00  0.00    +0.025 C 
ATOM      7  C   UNL     1      -3.546   0.614   3.527  0.00  0.00    +0.006 A 
ATOM      8  C   UNL     1      -3.692   1.312   4.745  0.00  0.00    +0.010 A 
ATOM      9  C   UNL     1      -4.935   1.572   5.227  0.00  0.00    +0.001 A 
ATOM     10  C   UNL     1      -6.084   1.163   4.547  0.00  0.00    +0.002 A 
ATOM     11  C   UNL     1      -6.018   0.488   3.373  0.00  0.00    +0.026 A 
ATOM     12  C   UNL     1      -4.754   0.181   2.806  0.00  0.00    +0.043 A 
ATOM     13  N   UNL     1      -4.427  -0.452   1.696  0.00  0.00    -0.380 N 
ATOM     14  C   UNL     1      -2.966  -0.493   1.575  0.00  0.00    +0.152 C 
ATOM     15  H   UNL     1      -5.054  -0.829   1.059  0.00  0.00    +0.160 HD
ENDBRANCH   2   6
BRANCH   1  22
ATOM     16  C   UNL     1       0.001   1.536  -0.014  0.00  0.00    +0.046 C 
ATOM     17  C   UNL     1       0.012   0.029  -0.021  0.00  0.00    -0.026 A 
ATOM     18  C   UNL     1       0.016  -0.657  -1.220  0.00  0.00    +0.005 A 
ATOM     19  C   UNL     1       0.027  -2.040  -1.226  0.00  0.00    +0.000 A 
ATOM     20  C   UNL     1       0.033  -2.740  -0.034  0.00  0.00    +0.002 A 
ATOM     21  C   UNL     1       0.029  -2.060   1.168  0.00  0.00    +0.026 A 
ATOM     22  C   UNL     1       0.024  -0.671   1.178  0.00  0.00    +0.053 A 
ENDBRANCH   1  22
BRANCH   5  23
ATOM     23  S   UNL     1       2.801   0.202   2.661  0.00  0.00    -0.076 S 
BRANCH  23  24
ATOM     24  C   UNL     1       3.724   0.981   4.014  0.00  0.00    +0.173 C 
BRANCH  24  25
ATOM     25  C   UNL     1       5.203   0.849   3.754  0.00  0.00    +0.228 C 
ATOM     26  O   UNL     1       5.595   0.284   2.755  0.00  0.00    -0.275 OA
ATOM     27  N   UNL     1       6.089   1.358   4.632  0.00  0.00    -0.284 N 
ATOM     28  H   UNL     1       5.777   1.865   5.397  0.00  0.00    +0.155 HD
BRANCH  27  29
ATOM     29  C   UNL     1       7.455   1.154   4.441  0.00  0.00    +0.052 A 
ATOM     30  C   UNL     1       7.981   1.115   3.158  0.00  0.00    +0.044 A 
ATOM     31  C   UNL     1       9.335   0.913   2.971  0.00  0.00    +0.043 A 
ATOM     32  C   UNL     1      10.177   0.749   4.060  0.00  0.00    +0.021 A 
ATOM     33  C   UNL     1       9.672   0.786   5.341  0.00  0.00    +0.022 A 
ATOM     34  C   UNL     1       8.305   0.994   5.546  0.00  0.00    +0.073 A 
ATOM     35 CL   UNL     1       9.986   0.863   1.362  0.00  0.00    -0.083 Cl
BRANCH  34  36
ATOM     36  C   UNL     1       7.775   1.039   6.875  0.00  0.00    +0.101 C 
ATOM     37  N   UNL     1       7.354   1.075   7.930  0.00  0.00    -0.191 NA
ENDBRANCH  34  36
ENDBRANCH  27  29
ENDBRANCH  24  25
ENDBRANCH  23  24
ENDBRANCH   5  23
TORSDOF 7
