REMARK  Name = ZINC37261930
REMARK  5 active torsions:
REMARK  status: ('A' for Active; 'I' for Inactive)
REMARK    1  A    between atoms: C_8  and  N_13
REMARK    2  A    between atoms: N_13  and  C_14
REMARK    3  A    between atoms: C_14  and  C_15
REMARK    4  A    between atoms: C_15  and  S_16
REMARK    5  A    between atoms: S_16  and  N_19
REMARK                            x       y       z     vdW  Elec       q    Type
REMARK                         _______ _______ _______ _____ _____    ______ ____
ROOT
ATOM      1  C   UNL     1      -0.244   0.950   0.406  0.00  0.00    +0.019 A 
ATOM      2  C   UNL     1       0.892   1.722   0.541  0.00  0.00    +0.047 A 
ATOM      3  C   UNL     1       2.151   1.137   0.454  0.00  0.00    +0.122 A 
ATOM      4  C   UNL     1       2.261  -0.226   0.235  0.00  0.00    -0.019 A 
ATOM      5  C   UNL     1       1.118  -0.996   0.099  0.00  0.00    +0.020 A 
ATOM      6  C   UNL     1      -0.132  -0.411   0.184  0.00  0.00    +0.018 A 
ATOM      7 BR   UNL     1      -1.687  -1.470  -0.003  0.00  0.00    -0.050 Br
ATOM      8  C   UNL     1       3.606  -0.901   0.146  0.00  0.00    -0.034 C 
ATOM      9  C   UNL     1       4.692   0.144  -0.116  0.00  0.00    +0.030 C 
ATOM     10  C   UNL     1       4.496   1.302   0.871  0.00  0.00    +0.228 C 
ATOM     11  O   UNL     1       3.246   1.931   0.586  0.00  0.00    -0.492 OA
ENDROOT
BRANCH   8  12
ATOM     12  N   UNL     1       3.591  -1.877  -0.952  0.00  0.00    +0.385 N 
ATOM     13  H   UNL     1       2.820  -2.515  -0.825  0.00  0.00    -0.085 HD
ATOM     14  H   UNL     1       3.485  -1.392  -1.831  0.00  0.00    -0.085 HD
BRANCH  12  15
ATOM     15  C   UNL     1       4.853  -2.628  -0.957  0.00  0.00    -0.057 C 
BRANCH  15  16
ATOM     16  C   UNL     1       4.787  -3.729  -2.017  0.00  0.00    +0.166 C 
BRANCH  16  17
ATOM     17  S   UNL     1       6.346  -4.657  -2.022  0.00  0.00    +0.025 S 
ATOM     18  O   UNL     1       7.404  -3.833  -2.493  0.00  0.00    -0.158 OA
ATOM     19  O   UNL     1       6.482  -5.393  -0.814  0.00  0.00    -0.158 OA
BRANCH  17  20
ATOM     20  N   UNL     1       6.152  -5.808  -3.198  0.00  0.00    -0.208 NA
ATOM     21  H   UNL     1       5.322  -5.855  -3.698  0.00  0.00    +0.144 HD
ATOM     22  H   UNL     1       6.869  -6.434  -3.386  0.00  0.00    +0.144 HD
ENDBRANCH  17  20
ENDBRANCH  16  17
ENDBRANCH  15  16
ENDBRANCH  12  15
ENDBRANCH   8  12
TORSDOF 5
