REMARK  Name = ZINC01184950
REMARK  10 active torsions:
REMARK  status: ('A' for Active; 'I' for Inactive)
REMARK    1  A    between atoms: C_1  and  C_2
REMARK    2  A    between atoms: C_2  and  O_3
REMARK    3  A    between atoms: O_3  and  C_4
REMARK    4  A    between atoms: C_6  and  C_12
REMARK    5  A    between atoms: C_9  and  O_10
REMARK    6  A    between atoms: C_14  and  C_26
REMARK    7  A    between atoms: C_15  and  C_20
REMARK    8  A    between atoms: C_26  and  O_28
REMARK    9  A    between atoms: O_28  and  C_29
REMARK   10  A    between atoms: C_29  and  C_30
REMARK                            x       y       z     vdW  Elec       q    Type
REMARK                         _______ _______ _______ _____ _____    ______ ____
ROOT
ATOM      1  C   UNL     1      -2.736   4.142   0.346  0.00  0.00    +0.144 C 
ATOM      2  C   UNL     1      -1.421   3.472   0.003  0.00  0.00    +0.083 C 
ATOM      3  C   UNL     1      -1.423   2.116  -0.155  0.00  0.00    +0.054 C 
ATOM      4  N   UNL     1      -2.584   1.394  -0.011  0.00  0.00    -0.268 N 
ATOM      5  C   UNL     1      -3.765   1.945   0.297  0.00  0.00    +0.305 C 
ATOM      6  O   UNL     1      -4.737   1.224   0.409  0.00  0.00    -0.252 OA
ATOM      7  N   UNL     1      -3.915   3.271   0.482  0.00  0.00    -0.288 N 
ATOM      8  H   UNL     1      -2.545   0.432  -0.135  0.00  0.00    +0.156 HD
ATOM      9  H   UNL     1      -4.783   3.644   0.700  0.00  0.00    +0.151 HD
ENDROOT
BRANCH   1  12
ATOM     10  C   UNL     1      -3.048   7.436  -1.479  0.00  0.00    +0.163 A 
ATOM     11  C   UNL     1      -2.777   6.498  -0.495  0.00  0.00    +0.055 A 
ATOM     12  C   UNL     1      -3.032   5.160  -0.726  0.00  0.00    -0.017 A 
ATOM     13  C   UNL     1      -3.553   4.751  -1.940  0.00  0.00    +0.029 A 
ATOM     14  C   UNL     1      -3.832   5.682  -2.924  0.00  0.00    +0.086 A 
ATOM     15  C   UNL     1      -3.577   7.027  -2.698  0.00  0.00    +0.177 A 
ATOM     16 CL   UNL     1      -4.492   5.167  -4.445  0.00  0.00    -0.080 Cl
BRANCH  15  17
ATOM     17  O   UNL     1      -3.845   7.943  -3.667  0.00  0.00    -0.502 OA
ATOM     18  H   UNL     1      -3.105   8.107  -4.268  0.00  0.00    +0.292 HD
ENDBRANCH  15  17
BRANCH  10  19
ATOM     19  O   UNL     1      -2.796   8.753  -1.253  0.00  0.00    -0.489 OA
BRANCH  19  21
ATOM     20  C   UNL     1      -2.231  10.635   0.154  0.00  0.00    +0.048 C 
ATOM     21  C   UNL     1      -2.347   9.113   0.055  0.00  0.00    +0.226 C 
ENDBRANCH  19  21
ENDBRANCH  10  19
ENDBRANCH   1  12
BRANCH   3  22
ATOM     22  C   UNL     1      -0.166   1.417  -0.490  0.00  0.00    -0.003 A 
ATOM     23  C   UNL     1       0.221   0.285   0.231  0.00  0.00    +0.010 A 
ATOM     24  C   UNL     1       1.399  -0.359  -0.083  0.00  0.00    +0.001 A 
ATOM     25  C   UNL     1       2.197   0.114  -1.110  0.00  0.00    +0.000 A 
ATOM     26  C   UNL     1       1.820   1.235  -1.828  0.00  0.00    +0.001 A 
ATOM     27  C   UNL     1       0.644   1.889  -1.525  0.00  0.00    +0.010 A 
ENDBRANCH   3  22
BRANCH   2  28
ATOM     28  C   UNL     1      -0.238   4.222  -0.148  0.00  0.00    +0.339 C 
ATOM     29  O   UNL     1      -0.048   4.862  -1.166  0.00  0.00    -0.245 OA
BRANCH  28  30
ATOM     30  O   UNL     1       0.686   4.231   0.837  0.00  0.00    -0.462 OA
BRANCH  30  31
ATOM     31  C   UNL     1       1.810   5.096   0.664  0.00  0.00    +0.229 C 
ATOM     32  C   UNL     1       2.797   4.885   1.815  0.00  0.00    +0.048 C 
ENDBRANCH  30  31
ENDBRANCH  28  30
ENDBRANCH   2  28
TORSDOF 8
