REMARK  Name = ZINC12190311
REMARK  12 active torsions:
REMARK  status: ('A' for Active; 'I' for Inactive)
REMARK    1  A    between atoms: C_1  and  C_2
REMARK    2  A    between atoms: C_2  and  C_3
REMARK    3  A    between atoms: C_3  and  C_5
REMARK    4  A    between atoms: C_3  and  O_32
REMARK    5  A    between atoms: C_11  and  C_13
REMARK    6  A    between atoms: C_13  and  C_14
REMARK    7  A    between atoms: C_14  and  C_25
REMARK    8  A    between atoms: N_18  and  C_21
REMARK    9  A    between atoms: C_21  and  C_22
REMARK   10  A    between atoms: C_22  and  N_66
REMARK   11  A    between atoms: C_23  and  N_66
REMARK   12  A    between atoms: C_24  and  N_66
REMARK                            x       y       z     vdW  Elec       q    Type
REMARK                         _______ _______ _______ _____ _____    ______ ____
ROOT
ATOM      1  C   UNL     1      -1.332   2.116   0.020  0.00  0.00    +0.091 C 
ATOM      2  C   UNL     1      -2.159   1.731   1.263  0.00  0.00    +0.117 C 
ATOM      3  C   UNL     1      -3.409   1.109   0.679  0.00  0.00    +0.223 C 
ATOM      4  O   UNL     1      -4.337   0.665   1.319  0.00  0.00    -0.275 OA
ATOM      5  N   UNL     1      -3.326   1.127  -0.657  0.00  0.00    -0.243 N 
ATOM      6  C   UNL     1      -2.200   1.671  -1.136  0.00  0.00    +0.233 C 
ATOM      7  O   UNL     1      -1.921   1.788  -2.310  0.00  0.00    -0.274 OA
ENDROOT
BRANCH   1   8
ATOM      8  C   UNL     1      -0.017   1.380   0.010  0.00  0.00    +0.004 A 
ATOM      9  C   UNL     1       1.171   2.087   0.002  0.00  0.00    +0.007 A 
ATOM     10  C   UNL     1       2.377   1.412  -0.013  0.00  0.00    +0.000 A 
ATOM     11  C   UNL     1       2.397   0.030  -0.021  0.00  0.00    +0.003 A 
ATOM     12  C   UNL     1       1.211  -0.679  -0.013  0.00  0.00    +0.038 A 
ATOM     13  C   UNL     1       0.002  -0.004   0.002  0.00  0.00    +0.128 A 
ATOM     14  F   UNL     1      -1.158  -0.696   0.010  0.00  0.00    -0.205 F 
ENDBRANCH   1   8
BRANCH   1  15
ATOM     15  C   UNL     1      -1.101   3.628  -0.027  0.00  0.00    +0.117 C 
BRANCH  15  22
ATOM     16  C   UNL     1      -0.322   7.885  -2.554  0.00  0.00    +0.021 C 
ATOM     17  C   UNL     1      -0.051   6.710  -3.497  0.00  0.00    +0.025 C 
ATOM     18  C   UNL     1       0.727   5.626  -2.745  0.00  0.00    +0.108 C 
ATOM     19  N   UNL     1      -0.018   5.266  -1.531  0.00  0.00    -0.301 N 
ATOM     20  C   UNL     1      -0.413   6.333  -0.602  0.00  0.00    +0.108 C 
ATOM     21  C   UNL     1      -1.174   7.409  -1.376  0.00  0.00    +0.025 C 
ATOM     22  C   UNL     1      -0.337   3.981  -1.276  0.00  0.00    +0.217 C 
ATOM     23  O   UNL     1      -0.009   3.110  -2.053  0.00  0.00    -0.276 OA
BRANCH  16  24
ATOM     24  C   UNL     1      -1.068   8.985  -3.312  0.00  0.00    +0.117 C 
BRANCH  24  26
ATOM     25  C   UNL     1      -2.193  11.204  -3.091  0.00  0.00    +0.006 C 
ATOM     26  C   UNL     1      -1.339  10.159  -2.370  0.00  0.00    +0.028 C 
ENDBRANCH  24  26
BRANCH  24  27
ATOM     27  O   UNL     1      -0.272   9.430  -4.412  0.00  0.00    -0.392 OA
ATOM     28  H   UNL     1       0.586   9.793  -4.154  0.00  0.00    +0.210 HD
ENDBRANCH  24  27
ENDBRANCH  16  24
ENDBRANCH  15  22
ENDBRANCH   1  15
BRANCH   5  29
ATOM     29  C   UNL     1      -4.380   0.595  -1.524  0.00  0.00    +0.098 C 
BRANCH  29  30
ATOM     30  C   UNL     1      -5.383   1.704  -1.847  0.00  0.00    -0.060 C 
BRANCH  30  33
ATOM     31  C   UNL     1      -7.246   0.166  -2.010  0.00  0.00    -0.097 C 
ATOM     32  C   UNL     1      -7.287   2.251  -3.240  0.00  0.00    -0.097 C 
ATOM     33  N   UNL     1      -6.428   1.158  -2.739  0.00  0.00    +0.377 N 
ATOM     34  H   UNL     1      -5.977   0.695  -3.537  0.00  0.00    -0.083 HD
ENDBRANCH  30  33
ENDBRANCH  29  30
ENDBRANCH   5  29
TORSDOF 9
