REMARK  Name = ZINC63161798
REMARK  3 active torsions:
REMARK  status: ('A' for Active; 'I' for Inactive)
REMARK    1  A    between atoms: C_5  and  C_6
REMARK    2  A    between atoms: N_13  and  C_14
REMARK    3  A    between atoms: C_16  and  C_22
REMARK                            x       y       z     vdW  Elec       q    Type
REMARK                         _______ _______ _______ _____ _____    ______ ____
ROOT
ATOM      1  C   UNL     1      -1.617  -0.772   0.103  0.00  0.00    +0.108 C 
ATOM      2  C   UNL     1      -1.869  -1.252  -1.342  0.00  0.00    +0.029 C 
ATOM      3  C   UNL     1      -2.242  -2.746  -1.152  0.00  0.00    +0.021 C 
ATOM      4  C   UNL     1      -1.328  -3.146   0.033  0.00  0.00    +0.110 C 
ATOM      5  N   UNL     1      -1.307  -1.961   0.910  0.00  0.00    -0.278 N 
ATOM      6  C   UNL     1      -1.045  -1.966   2.232  0.00  0.00    +0.307 C 
ATOM      7  O   UNL     1      -1.054  -0.924   2.858  0.00  0.00    -0.252 OA
ATOM      8  N   UNL     1      -0.773  -3.127   2.860  0.00  0.00    -0.265 N 
ATOM      9  H   UNL     1      -0.838  -3.967   2.378  0.00  0.00    +0.157 HD
ENDROOT
BRANCH   8  10
ATOM     10  C   UNL     1      -0.396  -3.122   4.211  0.00  0.00    +0.100 A 
ATOM     11  C   UNL     1      -1.127  -3.816   5.136  0.00  0.00    +0.042 A 
ATOM     12  C   UNL     1      -0.727  -3.795   6.480  0.00  0.00    +0.073 A 
ATOM     13  C   UNL     1       0.369  -3.094   6.849  0.00  0.00    +0.098 A 
ATOM     14  N   UNL     1       1.096  -2.403   5.932  0.00  0.00    -0.327 N 
ATOM     15  H   UNL     1       1.879  -1.906   6.216  0.00  0.00    +0.168 HD
ATOM     16  C   UNL     1       0.745  -2.406   4.631  0.00  0.00    +0.270 A 
ATOM     17  O   UNL     1       1.411  -1.785   3.818  0.00  0.00    -0.266 OA
BRANCH  12  18
ATOM     18  C   UNL     1      -1.520  -4.553   7.513  0.00  0.00    +0.419 C 
ATOM     19  F   UNL     1      -0.932  -4.381   8.771  0.00  0.00    -0.166 F 
ATOM     20  F   UNL     1      -2.832  -4.068   7.542  0.00  0.00    -0.166 F 
ATOM     21  F   UNL     1      -1.533  -5.913   7.186  0.00  0.00    -0.166 F 
ENDBRANCH  12  18
ENDBRANCH   8  10
BRANCH   1  26
ATOM     22  C   UNL     1      -0.667   1.549   0.192  0.00  0.00    +0.013 A 
ATOM     23  C   UNL     1       0.402   2.381   0.215  0.00  0.00    +0.045 A 
ATOM     24  S   UNL     1       1.767   1.232   0.149  0.00  0.00    -0.105 S 
ATOM     25  C   UNL     1       0.820  -0.280   0.094  0.00  0.00    +0.050 A 
ATOM     26  C   UNL     1      -0.453   0.185   0.130  0.00  0.00    -0.020 A 
ENDBRANCH   1  26
TORSDOF 3
