REMARK  Name = ZINC33063147
REMARK  5 active torsions:
REMARK  status: ('A' for Active; 'I' for Inactive)
REMARK    1  A    between atoms: C_1  and  C_2
REMARK    2  A    between atoms: C_2  and  C_4
REMARK    3  A    between atoms: C_2  and  N_10
REMARK    4  A    between atoms: C_11  and  C_13
REMARK    5  A    between atoms: C_16  and  C_19
REMARK                            x       y       z     vdW  Elec       q    Type
REMARK                         _______ _______ _______ _____ _____    ______ ____
ROOT
ATOM      1  C   UNL     1       2.561   4.117  -4.659  0.00  0.00    +0.037 A 
ATOM      2  C   UNL     1       1.319   3.943  -4.045  0.00  0.00    +0.013 A 
ATOM      3  C   UNL     1       1.216   4.017  -2.672  0.00  0.00    +0.007 A 
ATOM      4  C   UNL     1       2.340   4.262  -1.903  0.00  0.00    -0.011 A 
ATOM      5  C   UNL     1       3.573   4.441  -2.505  0.00  0.00    +0.007 A 
ATOM      6  C   UNL     1       3.691   4.364  -3.877  0.00  0.00    +0.013 A 
ENDROOT
BRANCH   4   7
ATOM      7  C   UNL     1       2.220   4.342  -0.403  0.00  0.00    +0.191 C 
ATOM      8  N   UNL     1       1.127   3.483   0.048  0.00  0.00    -0.322 N 
ATOM      9  C   UNL     1       1.179   2.093   0.002  0.00  0.00    +0.055 A 
ATOM     10  C   UNL     1      -0.017   1.375   0.010  0.00  0.00    +0.025 A 
ATOM     11  C   UNL     1       0.002  -0.004   0.002  0.00  0.00    +0.002 A 
ATOM     12  C   UNL     1       1.206  -0.685  -0.013  0.00  0.00    +0.002 A 
ATOM     13  C   UNL     1       2.396   0.020  -0.029  0.00  0.00    +0.030 A 
ATOM     14  C   UNL     1       2.381   1.399  -0.028  0.00  0.00    +0.126 A 
ATOM     15  S   UNL     1       3.903   2.296  -0.084  0.00  0.00    +0.062 S 
ATOM     16  O   UNL     1       4.685   1.855   1.018  0.00  0.00    -0.153 OA
ATOM     17  O   UNL     1       4.365   2.245  -1.426  0.00  0.00    -0.153 OA
ATOM     18  N   UNL     1       3.475   3.879   0.223  0.00  0.00    -0.166 NA
ATOM     19  H   UNL     1       0.205   3.930   0.447  0.00  0.00    +0.148 HD
ATOM     20  H   UNL     1       4.147   4.602   0.709  0.00  0.00    +0.150 HD
ENDBRANCH   4   7
BRANCH   1  22
ATOM     21  N   UNL     1       3.879   4.209  -6.721  0.00  0.00    -0.305 N 
ATOM     22  C   UNL     1       2.679   4.041  -6.131  0.00  0.00    +0.245 C 
ATOM     23  O   UNL     1       1.693   3.826  -6.809  0.00  0.00    -0.270 OA
ATOM     24  H   UNL     1       4.771   4.403  -6.107  0.00  0.00    +0.150 HD
BRANCH  21  26
ATOM     25  C   UNL     1       3.669   5.498  -8.789  0.00  0.00    +0.033 C 
ATOM     26  C   UNL     1       3.996   4.133  -8.179  0.00  0.00    +0.100 C 
BRANCH  26  27
ATOM     27  C   UNL     1       5.402   3.741  -8.551  0.00  0.00    -0.027 A 
ATOM     28  C   UNL     1       6.474   4.274  -7.859  0.00  0.00    +0.005 A 
ATOM     29  C   UNL     1       7.764   3.910  -8.196  0.00  0.00    +0.000 A 
ATOM     30  C   UNL     1       7.983   3.022  -9.233  0.00  0.00    +0.000 A 
ATOM     31  C   UNL     1       6.912   2.493  -9.928  0.00  0.00    +0.000 A 
ATOM     32  C   UNL     1       5.621   2.853  -9.587  0.00  0.00    +0.005 A 
ENDBRANCH  26  27
ENDBRANCH  21  26
ENDBRANCH   1  22
TORSDOF 4
