REMARK  Name = ZINC64994125
REMARK  7 active torsions:
REMARK  status: ('A' for Active; 'I' for Inactive)
REMARK    1  A    between atoms: C_1  and  N_2
REMARK    2  A    between atoms: N_2  and  C_3
REMARK    3  A    between atoms: N_2  and  C_10
REMARK    4  A    between atoms: C_3  and  C_4
REMARK    5  A    between atoms: C_10  and  C_11
REMARK    6  A    between atoms: N_16  and  C_17
REMARK    7  A    between atoms: C_17  and  C_18
REMARK                            x       y       z     vdW  Elec       q    Type
REMARK                         _______ _______ _______ _____ _____    ______ ____
ROOT
ATOM      1  C   UNL     1      -2.043  -0.130   1.309  0.00  0.00    +0.204 C 
ATOM      2  O   UNL     1      -1.431   0.504   2.141  0.00  0.00    -0.277 OA
ATOM      3  N   UNL     1      -3.320  -0.492   1.542  0.00  0.00    -0.242 N 
ATOM      4  C   UNL     1      -3.916  -0.150   2.701  0.00  0.00    +0.306 C 
ATOM      5  O   UNL     1      -3.302   0.485   3.536  0.00  0.00    -0.252 OA
ATOM      6  N   UNL     1      -5.193  -0.512   2.935  0.00  0.00    -0.291 N 
ATOM      7  H   UNL     1      -3.810  -0.999   0.876  0.00  0.00    +0.159 HD
ATOM      8  H   UNL     1      -5.683  -1.019   2.268  0.00  0.00    +0.151 HD
ENDROOT
BRANCH   1   9
ATOM      9  C   UNL     1      -1.376  -0.512   0.012  0.00  0.00    +0.019 C 
BRANCH   9  11
ATOM     10  C   UNL     1      -0.018   1.465   0.010  0.00  0.00    -0.095 C 
ATOM     11  N   UNL     1       0.002  -0.004   0.002  0.00  0.00    +0.386 N 
ATOM     12  H   UNL     1       0.490  -0.338   0.820  0.00  0.00    -0.081 HD
BRANCH  11  13
ATOM     13  C   UNL     1       0.690  -0.478  -1.207  0.00  0.00    -0.042 C 
BRANCH  13  14
ATOM     14  C   UNL     1       2.137  -0.060  -1.158  0.00  0.00    -0.056 A 
ATOM     15  C   UNL     1       2.534   1.155  -1.686  0.00  0.00    +0.024 A 
ATOM     16  C   UNL     1       3.844   1.500  -1.625  0.00  0.00    +0.055 A 
ATOM     17  S   UNL     1       4.561   0.087  -0.803  0.00  0.00    -0.090 S 
ATOM     18  C   UNL     1       3.067  -0.866  -0.591  0.00  0.00    +0.048 A 
ATOM     19 BR   UNL     1       4.692   3.071  -2.250  0.00  0.00    -0.043 Br
ENDBRANCH  13  14
ENDBRANCH  11  13
ENDBRANCH   9  11
ENDBRANCH   1   9
BRANCH   6  20
ATOM     20  C   UNL     1      -5.841  -0.140   4.195  0.00  0.00    +0.219 C 
BRANCH  20  21
ATOM     21  C   UNL     1      -7.277  -0.670   4.206  0.00  0.00    +0.405 C 
ATOM     22  F   UNL     1      -7.261  -2.063   4.083  0.00  0.00    -0.169 F 
ATOM     23  F   UNL     1      -7.896  -0.315   5.409  0.00  0.00    -0.169 F 
ATOM     24  F   UNL     1      -7.986  -0.116   3.135  0.00  0.00    -0.169 F 
ENDBRANCH  20  21
ENDBRANCH   6  20
TORSDOF 6
