REMARK  Name = ZINC16739666
REMARK  4 active torsions:
REMARK  status: ('A' for Active; 'I' for Inactive)
REMARK    1  A    between atoms: C_6  and  C_7
REMARK    2  A    between atoms: N_8  and  N_9
REMARK    3  A    between atoms: C_14  and  C_17
REMARK    4  A    between atoms: C_17  and  C_18
REMARK                            x       y       z     vdW  Elec       q    Type
REMARK                         _______ _______ _______ _____ _____    ______ ____
ROOT
ATOM      1  N   UNL     1       6.011   2.547  -3.204  0.00  0.00    -0.127 NA
ATOM      2  C   UNL     1       5.341   2.255  -2.108  0.00  0.00    +0.183 C 
ATOM      3  N   UNL     1       5.731   1.446  -1.063  0.00  0.00    -0.263 N 
ATOM      4  C   UNL     1       4.960   1.229  -0.009  0.00  0.00    +0.233 C 
ATOM      5  O   UNL     1       5.308   0.517   0.909  0.00  0.00    -0.274 OA
ATOM      6  C   UNL     1       3.611   1.930  -0.022  0.00  0.00    +0.149 C 
ATOM      7  S   UNL     1       3.713   2.813  -1.629  0.00  0.00    -0.075 S 
ATOM      8  H   UNL     1       6.601   1.020  -1.100  0.00  0.00    +0.157 HD
ENDROOT
BRANCH   1  10
ATOM      9  C   UNL     1       7.851   2.342  -4.478  0.00  0.00    +0.143 C 
ATOM     10  N   UNL     1       7.187   2.052  -3.392  0.00  0.00    -0.155 NA
BRANCH   9  16
ATOM     11  C   UNL     1       9.762   0.934  -3.733  0.00  0.00    +0.011 A 
ATOM     12  C   UNL     1      11.017   0.404  -3.943  0.00  0.00    +0.020 A 
ATOM     13  C   UNL     1      11.719   0.713  -5.097  0.00  0.00    +0.041 A 
ATOM     14  C   UNL     1      11.164   1.552  -6.049  0.00  0.00    +0.020 A 
ATOM     15  C   UNL     1       9.907   2.085  -5.854  0.00  0.00    +0.011 A 
ATOM     16  C   UNL     1       9.193   1.777  -4.692  0.00  0.00    -0.005 A 
ATOM     17 CL   UNL     1      13.302   0.047  -5.350  0.00  0.00    -0.084 Cl
ENDBRANCH   9  16
ENDBRANCH   1  10
BRANCH   6  18
ATOM     18  C   UNL     1       2.462   0.920  -0.017  0.00  0.00    +0.120 C 
BRANCH  18  19
ATOM     19  C   UNL     1       1.147   1.655   0.000  0.00  0.00    +0.222 C 
ATOM     20  O   UNL     1       1.130   2.868   0.007  0.00  0.00    -0.275 OA
ATOM     21  N   UNL     1      -0.011   0.966   0.007  0.00  0.00    -0.240 N 
ATOM     22  C   UNL     1      -1.187   1.624   0.017  0.00  0.00    +0.303 C 
ATOM     23  O   UNL     1      -1.204   2.839   0.023  0.00  0.00    -0.253 OA
ATOM     24  N   UNL     1      -2.345   0.934   0.018  0.00  0.00    -0.313 N 
ATOM     25  H   UNL     1       0.002  -0.004   0.002  0.00  0.00    +0.159 HD
ATOM     26  H   UNL     1      -2.332  -0.036   0.013  0.00  0.00    +0.146 HD
ATOM     27  H   UNL     1      -3.192   1.408   0.025  0.00  0.00    +0.146 HD
ENDBRANCH  18  19
ENDBRANCH   6  18
TORSDOF 4
