REMARK  Name = ZINC21078561
REMARK  8 active torsions:
REMARK  status: ('A' for Active; 'I' for Inactive)
REMARK    1  A    between atoms: C_4  and  C_7
REMARK    2  A    between atoms: C_7  and  C_8
REMARK    3  A    between atoms: C_7  and  N_14
REMARK    4  A    between atoms: C_15  and  C_17
REMARK    5  A    between atoms: C_17  and  S_18
REMARK    6  A    between atoms: S_18  and  C_19
REMARK    7  A    between atoms: N_24  and  N_25
REMARK    8  A    between atoms: C_26  and  C_27
REMARK                            x       y       z     vdW  Elec       q    Type
REMARK                         _______ _______ _______ _____ _____    ______ ____
ROOT
ATOM      1  S   UNL     1      -5.525  10.752   0.108  0.00  0.00    -0.075 S 
ENDROOT
BRANCH   1   2
ATOM      2  C   UNL     1      -4.474   9.337   0.091  0.00  0.00    +0.211 A 
ATOM      3  N   UNL     1      -4.883   8.034   0.088  0.00  0.00    -0.186 NA
ATOM      4  C   UNL     1      -3.768   7.242   0.073  0.00  0.00    +0.232 A 
ATOM      5  N   UNL     1      -2.716   8.023   0.073  0.00  0.00    -0.245 N 
ATOM      6  N   UNL     1      -3.162   9.351   0.079  0.00  0.00    -0.144 NA
ATOM      7  N   UNL     1      -3.754   5.854   0.066  0.00  0.00    -0.205 N 
ATOM      8  H   UNL     1      -4.700   5.294   0.072  0.00  0.00    +0.177 HD
ATOM      9  H   UNL     1      -1.706   7.586   0.069  0.00  0.00    +0.192 HD
BRANCH   7  10
ATOM     10  N   UNL     1      -2.533   5.166   0.052  0.00  0.00    -0.188 NA
ATOM     11  C   UNL     1      -2.520   3.868   0.045  0.00  0.00    +0.139 C 
BRANCH  11  12
ATOM     12  C   UNL     1      -1.236   3.144   0.029  0.00  0.00    +0.014 A 
ATOM     13  C   UNL     1      -1.217   1.747   0.017  0.00  0.00    +0.011 A 
ATOM     14  C   UNL     1      -0.013   1.076   0.008  0.00  0.00    +0.002 A 
ATOM     15  C   UNL     1       1.178   1.782   0.000  0.00  0.00    +0.021 A 
ATOM     16  C   UNL     1       1.169   3.166   0.007  0.00  0.00    +0.060 A 
ATOM     17  C   UNL     1      -0.030   3.852   0.022  0.00  0.00    +0.068 A 
ATOM     18 CL   UNL     1      -0.041   5.588   0.030  0.00  0.00    -0.081 Cl
ATOM     19 CL   UNL     1       2.668   4.042  -0.002  0.00  0.00    -0.082 Cl
ENDBRANCH  11  12
ENDBRANCH   7  10
ENDBRANCH   1   2
BRANCH   1  20
ATOM     20  C   UNL     1      -4.373  12.153   0.105  0.00  0.00    +0.173 C 
BRANCH  20  22
ATOM     21  N   UNL     1      -4.502  14.624   0.119  0.00  0.00    -0.304 N 
ATOM     22  C   UNL     1      -5.152  13.443   0.119  0.00  0.00    +0.224 C 
ATOM     23  O   UNL     1      -6.365  13.419   0.130  0.00  0.00    -0.275 OA
ATOM     24  H   UNL     1      -3.402  14.645   0.109  0.00  0.00    +0.150 HD
BRANCH  21  25
ATOM     25  C   UNL     1      -5.259  15.877   0.133  0.00  0.00    +0.134 C 
BRANCH  25  29
ATOM     26  C   UNL     1      -2.855  18.974   1.830  0.00  0.00    +0.000 A 
ATOM     27  C   UNL     1      -4.201  18.899   2.135  0.00  0.00    +0.000 A 
ATOM     28  C   UNL     1      -4.979  17.897   1.585  0.00  0.00    +0.006 A 
ATOM     29  C   UNL     1      -4.411  16.970   0.732  0.00  0.00    -0.023 A 
ATOM     30  C   UNL     1      -3.063  17.042   0.431  0.00  0.00    +0.006 A 
ATOM     31  C   UNL     1      -2.287  18.047   0.977  0.00  0.00    +0.000 A 
ENDBRANCH  25  29
BRANCH  25  32
ATOM     32  C   UNL     1      -5.638  16.251  -1.277  0.00  0.00    -0.023 A 
ATOM     33  C   UNL     1      -4.732  16.072  -2.306  0.00  0.00    +0.006 A 
ATOM     34  C   UNL     1      -5.081  16.410  -3.600  0.00  0.00    +0.000 A 
ATOM     35  C   UNL     1      -6.332  16.936  -3.864  0.00  0.00    +0.000 A 
ATOM     36  C   UNL     1      -7.235  17.121  -2.834  0.00  0.00    +0.000 A 
ATOM     37  C   UNL     1      -6.888  16.778  -1.540  0.00  0.00    +0.006 A 
ENDBRANCH  25  32
ENDBRANCH  21  25
ENDBRANCH  20  22
ENDBRANCH   1  20
TORSDOF 8
