REMARK  Name = ZINC67429755
REMARK  7 active torsions:
REMARK  status: ('A' for Active; 'I' for Inactive)
REMARK    1  A    between atoms: C_4  and  C_7
REMARK    2  A    between atoms: C_7  and  N_8
REMARK    3  A    between atoms: N_8  and  C_9
REMARK    4  A    between atoms: N_8  and  S_16
REMARK    5  A    between atoms: C_9  and  C_10
REMARK    6  A    between atoms: S_16  and  C_19
REMARK    7  A    between atoms: C_23  and  N_25
REMARK                            x       y       z     vdW  Elec       q    Type
REMARK                         _______ _______ _______ _____ _____    ______ ____
ROOT
ATOM      1  N   UNL     1       4.214  -0.860   1.352  0.00  0.00    -0.170 NA
ENDROOT
BRANCH   1   2
ATOM      2  S   UNL     1       5.189   0.321   1.981  0.00  0.00    +0.061 S 
ATOM      3  O   UNL     1       6.034  -0.313   2.931  0.00  0.00    -0.153 OA
ATOM      4  O   UNL     1       5.700   1.056   0.877  0.00  0.00    -0.153 OA
BRANCH   2   5
ATOM      5  C   UNL     1       4.154   1.424   2.885  0.00  0.00    +0.107 A 
ATOM      6  C   UNL     1       3.682   2.576   2.284  0.00  0.00    +0.028 A 
ATOM      7  C   UNL     1       2.870   3.444   2.991  0.00  0.00    +0.004 A 
ATOM      8  C   UNL     1       2.528   3.162   4.299  0.00  0.00    +0.028 A 
ATOM      9  C   UNL     1       3.001   2.006   4.905  0.00  0.00    +0.071 A 
ATOM     10  C   UNL     1       3.812   1.134   4.191  0.00  0.00    +0.056 A 
BRANCH   9  11
ATOM     11  N   UNL     1       2.656   1.717   6.233  0.00  0.00    -0.200 N 
ATOM     12  C   UNL     1       1.802   2.400   7.026  0.00  0.00    +0.250 A 
ATOM     13  N   UNL     1       1.773   1.790   8.182  0.00  0.00    -0.116 NA
ATOM     14  N   UNL     1       2.552   0.769   8.175  0.00  0.00    -0.023 NA
ATOM     15  N   UNL     1       3.121   0.651   7.024  0.00  0.00    -0.039 NA
ENDBRANCH   9  11
ENDBRANCH   2   5
ENDBRANCH   1   2
BRANCH   1  16
ATOM     16  C   UNL     1       3.692  -0.731  -0.011  0.00  0.00    +0.144 C 
BRANCH  16  20
ATOM     17  C   UNL     1      -0.213   0.995   0.113  0.00  0.00    +0.000 A 
ATOM     18  C   UNL     1       0.891   1.797  -0.111  0.00  0.00    +0.000 A 
ATOM     19  C   UNL     1       2.155   1.239  -0.150  0.00  0.00    +0.005 A 
ATOM     20  C   UNL     1       2.315  -0.122   0.033  0.00  0.00    -0.032 A 
ATOM     21  C   UNL     1       1.211  -0.924   0.257  0.00  0.00    +0.005 A 
ATOM     22  C   UNL     1      -0.052  -0.365   0.296  0.00  0.00    +0.000 A 
ENDBRANCH  16  20
ENDBRANCH   1  16
BRANCH   1  23
ATOM     23  C   UNL     1       3.872  -2.034   2.159  0.00  0.00    +0.141 C 
BRANCH  23  24
ATOM     24  C   UNL     1       4.841  -3.174   1.837  0.00  0.00    +0.134 C 
ATOM     25  C   UNL     1       4.475  -4.438   2.655  0.00  0.00    +0.035 C 
ATOM     26  C   UNL     1       5.080  -5.553   1.760  0.00  0.00    +0.031 C 
ATOM     27  C   UNL     1       4.870  -4.985   0.341  0.00  0.00    +0.160 C 
ATOM     28  O   UNL     1       4.712  -3.565   0.461  0.00  0.00    -0.375 OA
ENDBRANCH  23  24
ENDBRANCH   1  23
TORSDOF 7
