REMARK  Name = ZINC36531042
REMARK  17 active torsions:
REMARK  status: ('A' for Active; 'I' for Inactive)
REMARK    1  A    between atoms: C_1  and  C_2
REMARK    2  A    between atoms: C_2  and  C_4
REMARK    3  A    between atoms: C_2  and  C_10
REMARK    4  A    between atoms: C_10  and  C_12
REMARK    5  A    between atoms: C_10  and  N_23
REMARK    6  A    between atoms: N_14  and  C_15
REMARK    7  A    between atoms: C_15  and  C_16
REMARK    8  A    between atoms: C_15  and  C_17
REMARK    9  A    between atoms: C_15  and  C_18
REMARK   10  A    between atoms: C_18  and  C_19
REMARK   11  A    between atoms: C_19  and  C_20
REMARK   12  A    between atoms: C_19  and  C_21
REMARK   13  A    between atoms: C_19  and  C_22
REMARK   14  A    between atoms: N_23  and  C_24
REMARK   15  A    between atoms: C_25  and  C_27
REMARK   16  A    between atoms: C_28  and  O_34
REMARK   17  A    between atoms: C_32  and  O_33
REMARK                            x       y       z     vdW  Elec       q    Type
REMARK                         _______ _______ _______ _____ _____    ______ ____
ROOT
ATOM      1  C   UNL     1      -2.600   0.524   0.058  0.00  0.00    +0.169 C 
ENDROOT
BRANCH   1   2
ATOM      2  C   UNL     1      -2.205   0.880  -1.352  0.00  0.00    +0.235 C 
ATOM      3  O   UNL     1      -1.967   0.003  -2.155  0.00  0.00    -0.274 OA
ATOM      4  N   UNL     1      -2.115   2.174  -1.720  0.00  0.00    -0.309 N 
ATOM      5  H   UNL     1      -2.376   2.873  -1.101  0.00  0.00    +0.149 HD
BRANCH   4   6
ATOM      6  C   UNL     1      -1.624   2.523  -3.055  0.00  0.00    +0.030 C 
ATOM      7  C   UNL     1      -0.105   2.349  -3.101  0.00  0.00    +0.031 C 
ATOM      8  C   UNL     1      -2.274   1.606  -4.093  0.00  0.00    +0.031 C 
BRANCH   6   9
ATOM      9  C   UNL     1      -1.981   3.978  -3.365  0.00  0.00    +0.031 C 
BRANCH   9  10
ATOM     10  C   UNL     1      -3.212   4.386  -2.553  0.00  0.00    -0.036 C 
ATOM     11  C   UNL     1      -2.787   4.736  -1.125  0.00  0.00    +0.010 C 
ATOM     12  C   UNL     1      -3.870   5.604  -3.203  0.00  0.00    +0.010 C 
ATOM     13  C   UNL     1      -4.208   3.225  -2.519  0.00  0.00    +0.010 C 
ENDBRANCH   9  10
ENDBRANCH   6   9
ENDBRANCH   4   6
ENDBRANCH   1   2
BRANCH   1  14
ATOM     14  N   UNL     1      -2.819  -0.921   0.153  0.00  0.00    -0.288 N 
ATOM     15  C   UNL     1      -1.729  -1.850  -0.154  0.00  0.00    +0.133 C 
ATOM     16  C   UNL     1      -4.025  -1.397   0.523  0.00  0.00    +0.254 C 
ATOM     17  O   UNL     1      -4.931  -0.626   0.779  0.00  0.00    -0.270 OA
BRANCH  16  18
ATOM     18  C   UNL     1      -4.246  -2.849   0.619  0.00  0.00    +0.119 A 
ATOM     19  C   UNL     1      -4.010  -3.522   1.827  0.00  0.00    +0.133 A 
ATOM     20  C   UNL     1      -4.221  -4.889   1.906  0.00  0.00    +0.046 A 
ATOM     21  C   UNL     1      -4.663  -5.590   0.799  0.00  0.00    +0.007 A 
ATOM     22  C   UNL     1      -4.898  -4.937  -0.396  0.00  0.00    +0.046 A 
ATOM     23  C   UNL     1      -4.699  -3.570  -0.496  0.00  0.00    +0.133 A 
BRANCH  23  24
ATOM     24  O   UNL     1      -4.936  -2.931  -1.669  0.00  0.00    -0.506 OA
ATOM     25  H   UNL     1      -4.169  -2.889  -2.256  0.00  0.00    +0.292 HD
ENDBRANCH  23  24
BRANCH  19  26
ATOM     26  O   UNL     1      -3.576  -2.836   2.914  0.00  0.00    -0.506 OA
ATOM     27  H   UNL     1      -4.287  -2.494   3.473  0.00  0.00    +0.292 HD
ENDBRANCH  19  26
ENDBRANCH  16  18
ENDBRANCH   1  14
BRANCH   1  29
ATOM     28  C   UNL     1      -1.343   2.458   1.018  0.00  0.00    +0.015 C 
ATOM     29  C   UNL     1      -1.483   0.934   1.020  0.00  0.00    +0.045 C 
BRANCH  29  30
ATOM     30  C   UNL     1      -1.819   0.463   2.411  0.00  0.00    -0.042 A 
ATOM     31  C   UNL     1      -2.976   0.901   3.029  0.00  0.00    +0.004 A 
ATOM     32  C   UNL     1      -3.285   0.468   4.305  0.00  0.00    +0.000 A 
ATOM     33  C   UNL     1      -2.437  -0.403   4.963  0.00  0.00    +0.000 A 
ATOM     34  C   UNL     1      -1.281  -0.842   4.346  0.00  0.00    +0.000 A 
ATOM     35  C   UNL     1      -0.974  -0.412   3.068  0.00  0.00    +0.004 A 
ENDBRANCH  29  30
ENDBRANCH   1  29
TORSDOF 10
