REMARK  Name = ZINC09280893
REMARK  8 active torsions:
REMARK  status: ('A' for Active; 'I' for Inactive)
REMARK    1  A    between atoms: C_1  and  O_2
REMARK    2  A    between atoms: O_2  and  C_3
REMARK    3  A    between atoms: C_6  and  N_9
REMARK    4  A    between atoms: C_18  and  C_29
REMARK    5  A    between atoms: C_18  and  C_33
REMARK    6  A    between atoms: C_19  and  C_21
REMARK    7  A    between atoms: C_21  and  C_22
REMARK    8  A    between atoms: C_22  and  C_23
REMARK                            x       y       z     vdW  Elec       q    Type
REMARK                         _______ _______ _______ _____ _____    ______ ____
ROOT
ATOM      1  N   UNL     1      -1.307   3.412  -0.321  0.00  0.00    -0.250 N 
ATOM      2  C   UNL     1      -0.166   3.855   0.300  0.00  0.00    +0.124 A 
ATOM      3  C   UNL     1       0.954   3.076   0.294  0.00  0.00    +0.098 A 
ATOM      4  C   UNL     1       0.915   1.832  -0.359  0.00  0.00    +0.262 A 
ATOM      5  O   UNL     1       1.903   1.118  -0.381  0.00  0.00    -0.267 OA
ATOM      6  N   UNL     1      -0.224   1.435  -0.960  0.00  0.00    -0.274 N 
ATOM      7  H   UNL     1      -0.257   0.549  -1.424  0.00  0.00    +0.173 HD
ATOM      8  C   UNL     1      -1.318   2.217  -0.944  0.00  0.00    +0.335 A 
ATOM      9  O   UNL     1      -2.334   1.839  -1.495  0.00  0.00    -0.246 OA
ATOM     10  C   UNL     1       2.208   3.537   0.979  0.00  0.00    +0.264 C 
ATOM     11  C   UNL     1       1.073   5.651   1.236  0.00  0.00    +0.074 C 
ATOM     12  N   UNL     1      -0.136   5.079   0.927  0.00  0.00    -0.290 N 
ATOM     13  H   UNL     1      -0.963   5.534   1.151  0.00  0.00    +0.155 HD
ATOM     14  N   UNL     1       2.236   5.012   1.283  0.00  0.00    -0.352 N 
ATOM     15  H   UNL     1       3.110   5.499   1.516  0.00  0.00    +0.162 HD
ENDROOT
BRANCH   1  19
ATOM     16  C   UNL     1      -4.744   5.776  -0.292  0.00  0.00    +0.120 A 
ATOM     17  C   UNL     1      -3.812   5.919  -1.310  0.00  0.00    +0.047 A 
ATOM     18  C   UNL     1      -2.674   5.137  -1.320  0.00  0.00    +0.030 A 
ATOM     19  C   UNL     1      -2.463   4.207  -0.311  0.00  0.00    +0.053 A 
ATOM     20  C   UNL     1      -3.398   4.059   0.703  0.00  0.00    +0.030 A 
ATOM     21  C   UNL     1      -4.533   4.846   0.715  0.00  0.00    +0.047 A 
BRANCH  16  23
ATOM     22  C   UNL     1      -6.780   6.345   0.795  0.00  0.00    +0.277 C 
ATOM     23  O   UNL     1      -5.864   6.546  -0.283  0.00  0.00    -0.495 OA
ENDBRANCH  16  23
ENDBRANCH   1  19
BRANCH  10  24
ATOM     24  C   UNL     1       2.374   2.771   2.292  0.00  0.00    +0.426 C 
ATOM     25  F   UNL     1       2.461   1.400   2.025  0.00  0.00    -0.167 F 
ATOM     26  F   UNL     1       3.541   3.196   2.936  0.00  0.00    -0.167 F 
ATOM     27  F   UNL     1       1.271   3.015   3.117  0.00  0.00    -0.167 F 
ENDBRANCH  10  24
BRANCH  10  28
ATOM     28  C   UNL     1       3.409   3.248   0.075  0.00  0.00    +0.426 C 
ATOM     29  F   UNL     1       3.107   3.630  -1.237  0.00  0.00    -0.167 F 
ATOM     30  F   UNL     1       4.518   3.970   0.527  0.00  0.00    -0.167 F 
ATOM     31  F   UNL     1       3.698   1.880   0.107  0.00  0.00    -0.167 F 
ENDBRANCH  10  28
BRANCH  11  32
ATOM     32  C   UNL     1       1.128   7.123   1.554  0.00  0.00    +0.070 C 
BRANCH  32  33
ATOM     33  C   UNL     1       2.571   7.525   1.863  0.00  0.00    +0.011 C 
BRANCH  33  34
ATOM     34  C   UNL     1       2.627   9.020   2.185  0.00  0.00    -0.011 C 
ATOM     35  C   UNL     1       2.240   9.824   0.942  0.00  0.00    +0.003 C 
ATOM     36  C   UNL     1       2.296  11.318   1.264  0.00  0.00    +0.000 C 
ATOM     37  C   UNL     1       3.715  11.695   1.694  0.00  0.00    +0.000 C 
ATOM     38  C   UNL     1       4.101  10.891   2.937  0.00  0.00    +0.000 C 
ATOM     39  C   UNL     1       4.046   9.396   2.615  0.00  0.00    +0.003 C 
ENDBRANCH  33  34
ENDBRANCH  32  33
ENDBRANCH  11  32
TORSDOF 7
