REMARK  Name = ZINC01123678
REMARK  16 active torsions:
REMARK  status: ('A' for Active; 'I' for Inactive)
REMARK    1  A    between atoms: C_1  and  C_2
REMARK    2  A    between atoms: C_2  and  C_3
REMARK    3  A    between atoms: C_3  and  C_4
REMARK    4  A    between atoms: C_5  and  C_28
REMARK    5  A    between atoms: C_6  and  C_12
REMARK    6  A    between atoms: C_14  and  O_26
REMARK    7  A    between atoms: C_15  and  O_19
REMARK    8  A    between atoms: O_19  and  C_20
REMARK    9  A    between atoms: C_20  and  C_21
REMARK   10  A    between atoms: C_21  and  O_23
REMARK   11  A    between atoms: O_23  and  C_24
REMARK   12  A    between atoms: C_24  and  C_25
REMARK   13  A    between atoms: O_26  and  C_27
REMARK   14  A    between atoms: C_28  and  O_30
REMARK   15  A    between atoms: O_30  and  C_31
REMARK   16  A    between atoms: C_31  and  C_32
REMARK                            x       y       z     vdW  Elec       q    Type
REMARK                         _______ _______ _______ _____ _____    ______ ____
ROOT
ATOM      1  C   UNL     1       1.511  -3.652  -2.224  0.00  0.00    +0.022 C 
ATOM      2  C   UNL     1       1.427  -2.304  -2.216  0.00  0.00    +0.078 C 
ATOM      3  C   UNL     1       2.166  -1.545  -3.299  0.00  0.00    +0.141 C 
ATOM      4  N   UNL     1       2.915  -2.346  -4.282  0.00  0.00    -0.315 N 
ATOM      5  C   UNL     1       2.898  -3.688  -4.162  0.00  0.00    +0.135 C 
ATOM      6  S   UNL     1       3.764  -4.632  -5.298  0.00  0.00    -0.019 S 
ATOM      7  N   UNL     1       2.227  -4.308  -3.182  0.00  0.00    -0.300 N 
ATOM      8  H   UNL     1       3.408  -1.918  -5.000  0.00  0.00    +0.149 HD
ATOM      9  H   UNL     1       2.255  -5.277  -3.150  0.00  0.00    +0.154 HD
ENDROOT
BRANCH   3  10
ATOM     10  C   UNL     1       1.161  -0.709  -4.049  0.00  0.00    -0.018 A 
ATOM     11  C   UNL     1       0.284  -1.313  -4.932  0.00  0.00    +0.055 A 
ATOM     12  C   UNL     1      -0.641  -0.546  -5.622  0.00  0.00    +0.163 A 
ATOM     13  C   UNL     1      -0.685   0.830  -5.425  0.00  0.00    +0.177 A 
ATOM     14  C   UNL     1       0.196   1.429  -4.539  0.00  0.00    +0.063 A 
ATOM     15  C   UNL     1       1.114   0.657  -3.849  0.00  0.00    +0.025 A 
ATOM     16 BR   UNL     1       0.139   3.300  -4.267  0.00  0.00    -0.046 Br
BRANCH  12  17
ATOM     17  O   UNL     1      -1.504  -1.139  -6.490  0.00  0.00    -0.491 OA
ATOM     18  C   UNL     1      -1.477  -2.566  -6.560  0.00  0.00    +0.277 C 
ENDBRANCH  12  17
BRANCH  13  19
ATOM     19  O   UNL     1      -1.592   1.587  -6.101  0.00  0.00    -0.476 OA
BRANCH  19  20
ATOM     20  C   UNL     1      -2.863   1.785  -5.479  0.00  0.00    +0.349 C 
BRANCH  20  21
ATOM     21  C   UNL     1      -3.729   2.641  -6.367  0.00  0.00    +0.345 C 
ATOM     22  O   UNL     1      -3.301   3.040  -7.424  0.00  0.00    -0.247 OA
BRANCH  21  23
ATOM     23  O   UNL     1      -4.975   2.960  -5.984  0.00  0.00    -0.463 OA
BRANCH  23  24
ATOM     24  C   UNL     1      -5.752   3.788  -6.890  0.00  0.00    +0.229 C 
ATOM     25  C   UNL     1      -7.134   4.045  -6.287  0.00  0.00    +0.048 C 
ENDBRANCH  23  24
ENDBRANCH  21  23
ENDBRANCH  20  21
ENDBRANCH  19  20
ENDBRANCH  13  19
ENDBRANCH   3  10
BRANCH   2  26
ATOM     26  C   UNL     1       0.680  -1.623  -1.226  0.00  0.00    +0.339 C 
ATOM     27  O   UNL     1       1.249  -1.100  -0.286  0.00  0.00    -0.245 OA
BRANCH  26  28
ATOM     28  O   UNL     1      -0.664  -1.555  -1.324  0.00  0.00    -0.462 OA
BRANCH  28  29
ATOM     29  C   UNL     1      -1.345  -0.753  -0.356  0.00  0.00    +0.229 C 
ATOM     30  C   UNL     1      -2.856  -0.887  -0.555  0.00  0.00    +0.048 C 
ENDBRANCH  28  29
ENDBRANCH  26  28
ENDBRANCH   2  26
BRANCH   1  31
ATOM     31  C   UNL     1       0.796  -4.446  -1.160  0.00  0.00    +0.051 C 
BRANCH  31  33
ATOM     32  C   UNL     1      -1.277  -5.732  -0.623  0.00  0.00    +0.004 C 
ATOM     33  C   UNL     1      -0.552  -4.927  -1.702  0.00  0.00    +0.002 C 
ENDBRANCH  31  33
ENDBRANCH   1  31
TORSDOF 12
