REMARK  Name = ZINC12219298
REMARK  6 active torsions:
REMARK  status: ('A' for Active; 'I' for Inactive)
REMARK    1  A    between atoms: C_1  and  C_2
REMARK    2  A    between atoms: C_2  and  C_30
REMARK    3  A    between atoms: C_4  and  N_54
REMARK    4  A    between atoms: C_9  and  C_10
REMARK    5  A    between atoms: C_9  and  N_54
REMARK    6  A    between atoms: C_19  and  C_20
REMARK                            x       y       z     vdW  Elec       q    Type
REMARK                         _______ _______ _______ _____ _____    ______ ____
ROOT
ATOM      1  C   UNL     1       5.598   2.284   2.322  0.00  0.00    -0.038 A 
ATOM      2  C   UNL     1       6.612   1.379   2.442  0.00  0.00    +0.014 A 
ATOM      3  C   UNL     1       7.936   1.859   2.465  0.00  0.00    +0.004 A 
ATOM      4  C   UNL     1       9.025   0.982   2.588  0.00  0.00    +0.059 A 
ATOM      5  C   UNL     1      10.297   1.477   2.607  0.00  0.00    +0.167 A 
ATOM      6  C   UNL     1      10.529   2.859   2.503  0.00  0.00    +0.168 A 
ATOM      7  C   UNL     1       9.488   3.734   2.382  0.00  0.00    +0.078 A 
ATOM      8  C   UNL     1       8.167   3.255   2.361  0.00  0.00    +0.075 A 
ATOM      9  N   UNL     1       7.135   4.094   2.246  0.00  0.00    -0.246 NA
ATOM     10  C   UNL     1       5.891   3.652   2.219  0.00  0.00    +0.073 A 
ATOM     11  O   UNL     1      11.877   3.074   2.548  0.00  0.00    -0.453 OA
ATOM     12  C   UNL     1      12.441   1.868   3.094  0.00  0.00    +0.466 C 
ATOM     13  O   UNL     1      11.502   0.844   2.718  0.00  0.00    -0.453 OA
ENDROOT
BRANCH  10  14
ATOM     14  C   UNL     1       4.779   4.623   2.084  0.00  0.00    +0.001 A 
ATOM     15  C   UNL     1       4.812   5.588   1.079  0.00  0.00    +0.013 A 
ATOM     16  C   UNL     1       3.773   6.487   0.955  0.00  0.00    +0.039 A 
ATOM     17  C   UNL     1       2.703   6.438   1.833  0.00  0.00    +0.123 A 
ATOM     18  C   UNL     1       2.668   5.483   2.837  0.00  0.00    +0.039 A 
ATOM     19  C   UNL     1       3.700   4.577   2.966  0.00  0.00    +0.013 A 
ATOM     20  F   UNL     1       1.690   7.323   1.710  0.00  0.00    -0.205 F 
ENDBRANCH  10  14
BRANCH   1  21
ATOM     21  C   UNL     1       4.167   1.814   2.294  0.00  0.00    -0.044 C 
BRANCH  21  22
ATOM     22  N   UNL     1       3.642   1.945   0.921  0.00  0.00    +0.384 N 
ATOM     23  H   UNL     1       3.692   2.929   0.633  0.00  0.00    -0.085 HD
ATOM     24  H   UNL     1       4.210   1.373   0.285  0.00  0.00    -0.085 HD
BRANCH  22  28
ATOM     25  C   UNL     1      -0.580   2.261  -1.641  0.00  0.00    +0.041 C 
ATOM     26  C   UNL     1       0.108   1.634  -0.426  0.00  0.00    +0.063 C 
ATOM     27  C   UNL     1       1.539   2.168  -0.318  0.00  0.00    +0.019 C 
ATOM     28  C   UNL     1       2.240   1.492   0.864  0.00  0.00    -0.067 C 
ATOM     29  C   UNL     1       2.199  -0.027   0.666  0.00  0.00    +0.012 C 
ATOM     30  C   UNL     1       0.743  -0.476   0.519  0.00  0.00    +0.159 C 
ATOM     31  O   UNL     1       0.141   0.214  -0.578  0.00  0.00    -0.374 OA
ATOM     32  C   UNL     1      -0.668   1.994   0.842  0.00  0.00    +0.041 C 
ENDBRANCH  22  28
ENDBRANCH  21  22
ENDBRANCH   1  21
TORSDOF 4
