REMARK  Name = ZINC12592548
REMARK  12 active torsions:
REMARK  status: ('A' for Active; 'I' for Inactive)
REMARK    1  A    between atoms: C_1  and  C_2
REMARK    2  A    between atoms: C_4  and  C_13
REMARK    3  A    between atoms: C_5  and  C_12
REMARK    4  A    between atoms: C_13  and  C_15
REMARK    5  A    between atoms: C_15  and  S_16
REMARK    6  A    between atoms: S_16  and  C_17
REMARK    7  A    between atoms: C_21  and  C_23
REMARK    8  A    between atoms: N_24  and  C_31
REMARK    9  A    between atoms: N_27  and  C_30
REMARK   10  A    between atoms: C_31  and  C_32
REMARK   11  A    between atoms: C_32  and  C_33
REMARK   12  A    between atoms: C_32  and  C_34
REMARK                            x       y       z     vdW  Elec       q    Type
REMARK                         _______ _______ _______ _____ _____    ______ ____
ROOT
ATOM      1  C   UNL     1      -0.017   1.399   0.010  0.00  0.00    +0.115 A 
ATOM      2  C   UNL     1       0.002  -0.004   0.002  0.00  0.00    +0.114 A 
ATOM      3  C   UNL     1       1.245  -0.664  -0.013  0.00  0.00    +0.154 A 
ATOM      4  N   UNL     1       2.354   0.062  -0.020  0.00  0.00    -0.214 NA
ATOM      5  C   UNL     1       2.292   1.381  -0.012  0.00  0.00    +0.130 A 
ATOM      6  N   UNL     1       1.152   2.042   0.002  0.00  0.00    -0.225 NA
ATOM      7  C   UNL     1       3.580   2.164  -0.021  0.00  0.00    +0.088 C 
ATOM      8  N   UNL     1       1.264  -2.042  -0.021  0.00  0.00    -0.277 N 
ATOM      9  C   UNL     1       0.115  -2.742  -0.015  0.00  0.00    +0.333 A 
ATOM     10  O   UNL     1       0.175  -3.956  -0.022  0.00  0.00    -0.246 OA
ATOM     11  N   UNL     1      -1.094  -2.159   0.000  0.00  0.00    -0.263 N 
ATOM     12  C   UNL     1      -1.221  -0.813   0.009  0.00  0.00    +0.268 A 
ATOM     13  O   UNL     1      -2.318  -0.288   0.022  0.00  0.00    -0.267 OA
ATOM     14  C   UNL     1      -2.296  -2.995   0.007  0.00  0.00    +0.157 C 
ENDROOT
BRANCH   1  15
ATOM     15  S   UNL     1      -1.540   2.286   0.022  0.00  0.00    -0.097 S 
BRANCH  15  16
ATOM     16  C   UNL     1      -0.914   3.984   0.028  0.00  0.00    +0.155 C 
BRANCH  16  17
ATOM     17  C   UNL     1      -2.074   4.947   0.039  0.00  0.00    +0.175 C 
ATOM     18  O   UNL     1      -3.212   4.525   0.042  0.00  0.00    -0.291 OA
BRANCH  17  22
ATOM     19  C   UNL     1       0.264   9.474   0.055  0.00  0.00    +0.064 C 
ATOM     20  C   UNL     1      -0.776   8.384   0.053  0.00  0.00    +0.023 A 
ATOM     21  C   UNL     1      -0.522   7.065   0.049  0.00  0.00    +0.034 A 
ATOM     22  C   UNL     1      -1.828   6.390   0.045  0.00  0.00    +0.039 A 
ATOM     23  C   UNL     1      -2.775   7.396   0.056  0.00  0.00    +0.033 A 
ATOM     24  N   UNL     1      -2.130   8.580   0.060  0.00  0.00    -0.296 N 
ATOM     25  C   UNL     1      -2.754   9.826   0.070  0.00  0.00    +0.178 A 
ATOM     26  N   UNL     1      -4.042  10.107   0.072  0.00  0.00    -0.231 NA
ATOM     27  C   UNL     1      -4.469  11.354   0.086  0.00  0.00    +0.121 A 
ATOM     28  C   UNL     1      -3.550  12.352   0.088  0.00  0.00    +0.068 A 
ATOM     29  S   UNL     1      -2.034  11.406   0.076  0.00  0.00    -0.058 S 
ATOM     30  C   UNL     1      -4.270   7.203   0.060  0.00  0.00    +0.064 C 
ENDBRANCH  17  22
ENDBRANCH  16  17
ENDBRANCH  15  16
ENDBRANCH   1  15
BRANCH   8  31
ATOM     31  C   UNL     1       2.546  -2.751  -0.037  0.00  0.00    +0.131 C 
BRANCH  31  32
ATOM     32  C   UNL     1       3.005  -3.006   1.400  0.00  0.00    +0.003 C 
ATOM     33  C   UNL     1       4.279  -3.853   1.386  0.00  0.00    +0.009 C 
ATOM     34  C   UNL     1       3.289  -1.670   2.089  0.00  0.00    +0.009 C 
ENDBRANCH  31  32
ENDBRANCH   8  31
TORSDOF 6
