REMARK  Name = ZINC40548089
REMARK  7 active torsions:
REMARK  status: ('A' for Active; 'I' for Inactive)
REMARK    1  A    between atoms: C_1  and  C_2
REMARK    2  A    between atoms: C_5  and  O_35
REMARK    3  A    between atoms: C_6  and  C_8
REMARK    4  A    between atoms: N_16  and  C_27
REMARK    5  A    between atoms: C_17  and  C_19
REMARK    6  A    between atoms: C_22  and  S_25
REMARK    7  A    between atoms: S_25  and  C_26
REMARK                            x       y       z     vdW  Elec       q    Type
REMARK                         _______ _______ _______ _____ _____    ______ ____
ROOT
ATOM      1  C   UNL     1       0.054  -2.841   2.465  0.00  0.00    +0.102 A 
ATOM      2  C   UNL     1       0.175  -4.226   2.612  0.00  0.00    +0.035 A 
ATOM      3  C   UNL     1       0.140  -4.465   3.973  0.00  0.00    +0.126 A 
ATOM      4  N   UNL     1       0.003  -3.243   4.569  0.00  0.00    -0.272 N 
ATOM      5  H   UNL     1      -0.051  -3.093   5.525  0.00  0.00    +0.189 HD
ATOM      6  N   UNL     1      -0.039  -2.322   3.673  0.00  0.00    -0.173 NA
ATOM      7  C   UNL     1       0.263  -5.910   4.197  0.00  0.00    +0.266 C 
ATOM      8  O   UNL     1       0.266  -6.445   5.288  0.00  0.00    -0.268 OA
ATOM      9  N   UNL     1       0.372  -6.558   3.023  0.00  0.00    -0.280 N 
ATOM     10  C   UNL     1       0.327  -5.565   1.942  0.00  0.00    +0.142 C 
ENDROOT
BRANCH   1  16
ATOM     11  C   UNL     1       1.986  -1.979  -2.057  0.00  0.00    +0.044 C 
ATOM     12  C   UNL     1       0.966  -1.673  -0.992  0.00  0.00    -0.050 A 
ATOM     13  C   UNL     1       0.015  -0.692  -1.209  0.00  0.00    +0.007 A 
ATOM     14  C   UNL     1      -0.925  -0.404  -0.237  0.00  0.00    +0.046 A 
ATOM     15  C   UNL     1      -0.919  -1.099   0.961  0.00  0.00    +0.126 A 
ATOM     16  C   UNL     1       0.040  -2.091   1.184  0.00  0.00    +0.044 A 
ATOM     17  C   UNL     1       0.979  -2.377   0.196  0.00  0.00    +0.017 A 
BRANCH  15  18
ATOM     18  O   UNL     1      -1.842  -0.817   1.918  0.00  0.00    -0.506 OA
ATOM     19  H   UNL     1      -2.682  -1.282   1.803  0.00  0.00    +0.292 HD
ENDBRANCH  15  18
ENDBRANCH   1  16
BRANCH   9  20
ATOM     20  C   UNL     1       0.512  -8.006   2.852  0.00  0.00    +0.100 C 
ATOM     21  C   UNL     1       1.781  -8.485   3.576  0.00  0.00    +0.047 C 
ATOM     22  C   UNL     1       1.740 -10.038   3.649  0.00  0.00    +0.168 C 
ATOM     23  S   UNL     1      -0.039 -10.310   4.042  0.00  0.00    -0.029 S 
ATOM     24  O   UNL     1      -0.196 -10.381   5.452  0.00  0.00    -0.174 OA
ATOM     25  O   UNL     1      -0.536 -11.366   3.229  0.00  0.00    -0.174 OA
ATOM     26  C   UNL     1      -0.730  -8.716   3.443  0.00  0.00    +0.188 C 
ENDBRANCH   9  20
BRANCH  10  27
ATOM     27  C   UNL     1      -0.853  -5.831   1.043  0.00  0.00    -0.022 A 
ATOM     28  C   UNL     1      -2.081  -6.150   1.593  0.00  0.00    +0.007 A 
ATOM     29  C   UNL     1      -3.164  -6.395   0.772  0.00  0.00    +0.015 A 
ATOM     30  C   UNL     1      -3.019  -6.321  -0.608  0.00  0.00    +0.008 A 
ATOM     31  C   UNL     1      -1.783  -5.999  -1.157  0.00  0.00    +0.015 A 
ATOM     32  C   UNL     1      -0.706  -5.750  -0.330  0.00  0.00    +0.007 A 
BRANCH  30  33
ATOM     33  S   UNL     1      -4.398  -6.633  -1.659  0.00  0.00    -0.129 S 
ATOM     34  C   UNL     1      -3.731  -6.420  -3.333  0.00  0.00    +0.090 C 
ENDBRANCH  30  33
ENDBRANCH  10  27
TORSDOF 5
