REMARK  Name = ZINC59154228
REMARK  4 active torsions:
REMARK  status: ('A' for Active; 'I' for Inactive)
REMARK    1  A    between atoms: N_8  and  N_9
REMARK    2  A    between atoms: C_10  and  C_12
REMARK    3  A    between atoms: N_21  and  C_22
REMARK    4  A    between atoms: C_22  and  C_23
REMARK                            x       y       z     vdW  Elec       q    Type
REMARK                         _______ _______ _______ _____ _____    ______ ____
ROOT
ATOM      1  C   UNL     1      -0.197   0.955   0.526  0.00  0.00    +0.001 A 
ATOM      2  C   UNL     1       0.924   1.759   0.651  0.00  0.00    +0.002 A 
ATOM      3  C   UNL     1       2.188   1.234   0.475  0.00  0.00    +0.024 A 
ATOM      4  C   UNL     1       2.349  -0.113   0.170  0.00  0.00    +0.046 A 
ATOM      5  C   UNL     1       1.213  -0.922   0.045  0.00  0.00    +0.028 A 
ATOM      6  C   UNL     1      -0.057  -0.385   0.224  0.00  0.00    +0.012 A 
ATOM      7  C   UNL     1       1.702  -2.283  -0.278  0.00  0.00    +0.153 C 
ATOM      8  N   UNL     1       0.985  -3.362  -0.482  0.00  0.00    -0.174 NA
ATOM      9  C   UNL     1       3.173  -2.159  -0.320  0.00  0.00    +0.272 C 
ATOM     10  O   UNL     1       3.961  -3.056  -0.555  0.00  0.00    -0.268 OA
ATOM     11  N   UNL     1       3.487  -0.880  -0.053  0.00  0.00    -0.261 N 
ENDROOT
BRANCH   8  12
ATOM     12  N   UNL     1      -0.398  -3.336  -0.261  0.00  0.00    -0.202 N 
ATOM     13  C   UNL     1      -1.121  -4.466  -0.386  0.00  0.00    +0.263 C 
ATOM     14  O   UNL     1      -0.574  -5.508  -0.691  0.00  0.00    -0.268 OA
ATOM     15  H   UNL     1      -0.835  -2.505  -0.018  0.00  0.00    +0.178 HD
BRANCH  13  16
ATOM     16  C   UNL     1      -2.579  -4.439  -0.153  0.00  0.00    +0.039 A 
ATOM     17  C   UNL     1      -3.212  -3.242   0.191  0.00  0.00    +0.016 A 
ATOM     18  C   UNL     1      -4.573  -3.223   0.407  0.00  0.00    +0.039 A 
ATOM     19  C   UNL     1      -5.314  -4.388   0.283  0.00  0.00    +0.123 A 
ATOM     20  C   UNL     1      -4.691  -5.579  -0.058  0.00  0.00    +0.039 A 
ATOM     21  C   UNL     1      -3.331  -5.609  -0.282  0.00  0.00    +0.016 A 
ATOM     22  F   UNL     1      -6.648  -4.363   0.497  0.00  0.00    -0.205 F 
ENDBRANCH  13  16
ENDBRANCH   8  12
BRANCH  11  23
ATOM     23  C   UNL     1       4.856  -0.360  -0.004  0.00  0.00    +0.152 C 
BRANCH  23  24
ATOM     24  C   UNL     1       5.334  -0.071  -1.403  0.00  0.00    +0.007 A 
ATOM     25  C   UNL     1       6.003  -1.047  -2.121  0.00  0.00    +0.047 A 
ATOM     26  C   UNL     1       6.442  -0.781  -3.406  0.00  0.00    +0.020 A 
ATOM     27  C   UNL     1       6.213   0.459  -3.972  0.00  0.00    +0.003 A 
ATOM     28  C   UNL     1       5.544   1.434  -3.256  0.00  0.00    +0.020 A 
ATOM     29  C   UNL     1       5.099   1.167  -1.973  0.00  0.00    +0.047 A 
ATOM     30 CL   UNL     1       4.253   2.389  -1.077  0.00  0.00    -0.083 Cl
ATOM     31 CL   UNL     1       6.292  -2.603  -1.409  0.00  0.00    -0.083 Cl
ENDBRANCH  23  24
ENDBRANCH  11  23
TORSDOF 4
