REMARK  Name = ZINC20923379
REMARK  7 active torsions:
REMARK  status: ('A' for Active; 'I' for Inactive)
REMARK    1  A    between atoms: C_6  and  C_7
REMARK    2  A    between atoms: N_8  and  N_9
REMARK    3  A    between atoms: C_12  and  S_15
REMARK    4  A    between atoms: S_15  and  C_16
REMARK    5  A    between atoms: C_16  and  C_17
REMARK    6  A    between atoms: N_19  and  N_20
REMARK    7  A    between atoms: C_21  and  C_23
REMARK                            x       y       z     vdW  Elec       q    Type
REMARK                         _______ _______ _______ _____ _____    ______ ____
ROOT
ATOM      1  N   UNL     1      11.155   0.762  -0.099  0.00  0.00    -0.205 N 
ATOM      2  C   UNL     1       9.768   0.730  -0.087  0.00  0.00    +0.232 A 
ATOM      3  N   UNL     1       8.940   1.818  -0.073  0.00  0.00    -0.186 NA
ATOM      4  C   UNL     1       7.650   1.366  -0.064  0.00  0.00    +0.211 A 
ATOM      5  N   UNL     1       7.680   0.055  -0.065  0.00  0.00    -0.144 NA
ATOM      6  N   UNL     1       9.022  -0.348  -0.085  0.00  0.00    -0.245 N 
ATOM      7  H   UNL     1      11.683   1.727  -0.099  0.00  0.00    +0.177 HD
ATOM      8  H   UNL     1       9.492  -1.342  -0.098  0.00  0.00    +0.192 HD
ENDROOT
BRANCH   1  10
ATOM      9  C   UNL     1      13.181  -0.405  -0.124  0.00  0.00    +0.138 C 
ATOM     10  N   UNL     1      11.883  -0.435  -0.112  0.00  0.00    -0.188 NA
BRANCH   9  16
ATOM     11  C   UNL     1      13.280  -2.892  -0.132  0.00  0.00    +0.012 A 
ATOM     12  C   UNL     1      14.002  -4.066  -0.150  0.00  0.00    +0.039 A 
ATOM     13  C   UNL     1      15.387  -4.031  -0.162  0.00  0.00    +0.123 A 
ATOM     14  C   UNL     1      16.056  -2.817  -0.162  0.00  0.00    +0.039 A 
ATOM     15  C   UNL     1      15.345  -1.636  -0.150  0.00  0.00    +0.012 A 
ATOM     16  C   UNL     1      13.948  -1.665  -0.138  0.00  0.00    -0.005 A 
ATOM     17  F   UNL     1      16.090  -5.186  -0.173  0.00  0.00    -0.205 F 
ENDBRANCH   9  16
ENDBRANCH   1  10
BRANCH   4  18
ATOM     18  S   UNL     1       6.202   2.369  -0.044  0.00  0.00    -0.075 S 
BRANCH  18  19
ATOM     19  C   UNL     1       4.839   1.171  -0.038  0.00  0.00    +0.174 C 
BRANCH  19  20
ATOM     20  C   UNL     1       3.524   1.907  -0.021  0.00  0.00    +0.239 C 
ATOM     21  O   UNL     1       3.508   3.120  -0.015  0.00  0.00    -0.273 OA
ATOM     22  N   UNL     1       2.366   1.217  -0.014  0.00  0.00    -0.233 N 
ATOM     23  H   UNL     1       2.381   0.117  -0.020  0.00  0.00    +0.173 HD
BRANCH  22  24
ATOM     24  N   UNL     1       1.143   1.901   0.001  0.00  0.00    -0.230 N 
ATOM     25  C   UNL     1      -0.014   1.212   0.009  0.00  0.00    +0.260 C 
ATOM     26  O   UNL     1       0.002  -0.004   0.002  0.00  0.00    -0.269 OA
ATOM     27  H   UNL     1       1.129   3.001   0.007  0.00  0.00    +0.173 HD
BRANCH  25  28
ATOM     28  C   UNL     1      -1.304   1.933   0.019  0.00  0.00    +0.038 A 
ATOM     29  C   UNL     1      -1.325   3.329   0.032  0.00  0.00    +0.016 A 
ATOM     30  C   UNL     1      -2.531   3.997   0.036  0.00  0.00    +0.039 A 
ATOM     31  C   UNL     1      -3.721   3.285   0.038  0.00  0.00    +0.123 A 
ATOM     32  C   UNL     1      -3.705   1.898   0.030  0.00  0.00    +0.039 A 
ATOM     33  C   UNL     1      -2.505   1.220   0.021  0.00  0.00    +0.016 A 
ATOM     34  F   UNL     1      -4.900   3.944   0.048  0.00  0.00    -0.205 F 
ENDBRANCH  25  28
ENDBRANCH  22  24
ENDBRANCH  19  20
ENDBRANCH  18  19
ENDBRANCH   4  18
TORSDOF 7
