REMARK  Name = ZINC12774895
REMARK  12 active torsions:
REMARK  status: ('A' for Active; 'I' for Inactive)
REMARK    1  A    between atoms: C_1  and  C_2
REMARK    2  A    between atoms: C_7  and  C_10
REMARK    3  A    between atoms: C_11  and  C_13
REMARK    4  A    between atoms: C_13  and  C_15
REMARK    5  A    between atoms: C_13  and  O_16
REMARK    6  A    between atoms: O_16  and  C_17
REMARK    7  A    between atoms: C_17  and  C_19
REMARK    8  A    between atoms: N_24  and  C_26
REMARK    9  A    between atoms: C_29  and  O_34
REMARK   10  A    between atoms: C_31  and  O_32
REMARK   11  A    between atoms: O_32  and  C_33
REMARK   12  A    between atoms: O_34  and  C_35
REMARK                            x       y       z     vdW  Elec       q    Type
REMARK                         _______ _______ _______ _____ _____    ______ ____
ROOT
ATOM      1  C   UNL     1       1.139  -0.874   3.461  0.00  0.00    +0.124 C 
ATOM      2  C   UNL     1       1.427  -0.052   4.738  0.00  0.00    +0.112 C 
ATOM      3  C   UNL     1       1.656  -1.097   5.809  0.00  0.00    +0.221 C 
ATOM      4  O   UNL     1       2.179  -0.888   6.883  0.00  0.00    -0.275 OA
ATOM      5  N   UNL     1       1.195  -2.290   5.396  0.00  0.00    -0.267 N 
ATOM      6  C   UNL     1       0.610  -2.200   4.053  0.00  0.00    +0.129 C 
ENDROOT
BRANCH   5   7
ATOM      7  C   UNL     1       1.262  -3.470   6.152  0.00  0.00    +0.080 A 
ATOM      8  C   UNL     1       2.367  -4.301   6.044  0.00  0.00    +0.051 A 
ATOM      9  C   UNL     1       2.434  -5.463   6.790  0.00  0.00    +0.084 A 
ATOM     10  C   UNL     1       1.396  -5.801   7.648  0.00  0.00    +0.142 A 
ATOM     11  C   UNL     1       0.290  -4.972   7.759  0.00  0.00    +0.094 A 
ATOM     12  C   UNL     1       0.223  -3.804   7.017  0.00  0.00    +0.145 A 
ATOM     13 CL   UNL     1       3.818  -6.503   6.652  0.00  0.00    -0.080 Cl
BRANCH  12  14
ATOM     14  O   UNL     1      -0.859  -2.988   7.128  0.00  0.00    -0.493 OA
ATOM     15  C   UNL     1      -1.887  -3.394   8.034  0.00  0.00    +0.277 C 
ENDBRANCH  12  14
BRANCH  10  16
ATOM     16  O   UNL     1       1.465  -6.944   8.381  0.00  0.00    -0.494 OA
ATOM     17  C   UNL     1       0.362  -7.229   9.243  0.00  0.00    +0.277 C 
ENDBRANCH  10  16
ENDBRANCH   5   7
BRANCH   1  18
ATOM     18  C   UNL     1       0.087  -0.204   2.615  0.00  0.00    +0.313 C 
ATOM     19  O   UNL     1      -0.978  -0.746   2.433  0.00  0.00    -0.250 OA
BRANCH  18  20
ATOM     20  O   UNL     1       0.333   0.994   2.062  0.00  0.00    -0.452 OA
BRANCH  20  21
ATOM     21  C   UNL     1      -0.725   1.579   1.259  0.00  0.00    +0.259 C 
ATOM     22  C   UNL     1      -0.566   1.135  -0.196  0.00  0.00    +0.062 C 
BRANCH  21  31
ATOM     23  C   UNL     1      -4.569   3.321  -1.491  0.00  0.00    +0.039 C 
ATOM     24  C   UNL     1      -3.190   3.795  -1.030  0.00  0.00    +0.133 C 
ATOM     25  C   UNL     1      -2.887   3.221   0.355  0.00  0.00    +0.139 C 
ATOM     26  N   UNL     1      -1.649   3.838   0.858  0.00  0.00    -0.294 N 
ATOM     27  C   UNL     1      -1.541   5.305   0.816  0.00  0.00    +0.139 C 
ATOM     28  C   UNL     1      -1.908   5.777  -0.596  0.00  0.00    +0.133 C 
ATOM     29  O   UNL     1      -3.174   5.223  -0.964  0.00  0.00    -0.371 OA
ATOM     30  C   UNL     1      -1.992   7.304  -0.619  0.00  0.00    +0.039 C 
ATOM     31  C   UNL     1      -0.642   3.082   1.337  0.00  0.00    +0.256 C 
ATOM     32  O   UNL     1       0.331   3.611   1.832  0.00  0.00    -0.272 OA
ENDBRANCH  21  31
ENDBRANCH  20  21
ENDBRANCH  18  20
ENDBRANCH   1  18
TORSDOF 7
