REMARK  Name = ZINC21247520
REMARK  12 active torsions:
REMARK  status: ('A' for Active; 'I' for Inactive)
REMARK    1  A    between atoms: C_1  and  C_2
REMARK    2  A    between atoms: C_2  and  C_3
REMARK    3  A    between atoms: C_2  and  C_4
REMARK    4  A    between atoms: C_2  and  C_5
REMARK    5  A    between atoms: C_8  and  C_11
REMARK    6  A    between atoms: C_16  and  C_26
REMARK    7  A    between atoms: C_28  and  O_36
REMARK    8  A    between atoms: C_29  and  O_34
REMARK    9  A    between atoms: C_31  and  O_32
REMARK   10  A    between atoms: O_32  and  C_33
REMARK   11  A    between atoms: O_34  and  C_35
REMARK   12  A    between atoms: O_36  and  C_37
REMARK                            x       y       z     vdW  Elec       q    Type
REMARK                         _______ _______ _______ _____ _____    ______ ____
ROOT
ATOM      1  C   UNL     1      -3.404   3.641  -4.161  0.00  0.00    +0.032 C 
ATOM      2  C   UNL     1      -3.718   4.997  -3.533  0.00  0.00    +0.059 C 
ATOM      3  C   UNL     1      -3.156   5.060  -2.123  0.00  0.00    +0.017 C 
ATOM      4  C   UNL     1      -3.078   3.953  -1.368  0.00  0.00    +0.037 C 
ATOM      5  C   UNL     1      -2.558   3.874   0.046  0.00  0.00    +0.140 C 
ATOM      6  N   UNL     1      -2.358   5.158   0.684  0.00  0.00    -0.331 N 
ATOM      7  C   UNL     1      -1.406   6.056   0.205  0.00  0.00    +0.049 A 
ATOM      8  C   UNL     1      -0.301   6.413   0.961  0.00  0.00    +0.025 A 
ATOM      9  C   UNL     1       0.643   7.271   0.424  0.00  0.00    +0.002 A 
ATOM     10  C   UNL     1       0.488   7.768  -0.858  0.00  0.00    +0.002 A 
ATOM     11  C   UNL     1      -0.624   7.427  -1.609  0.00  0.00    +0.025 A 
ATOM     12  C   UNL     1      -1.579   6.587  -1.064  0.00  0.00    +0.052 A 
ATOM     13  N   UNL     1      -2.772   6.297  -1.716  0.00  0.00    -0.316 N 
ATOM     14  C   UNL     1      -3.511   2.706  -1.886  0.00  0.00    +0.163 C 
ATOM     15  O   UNL     1      -3.449   1.721  -1.176  0.00  0.00    -0.292 OA
ATOM     16  C   UNL     1      -4.042   2.559  -3.281  0.00  0.00    +0.088 C 
ATOM     17  H   UNL     1      -2.962   5.437   1.560  0.00  0.00    +0.147 HD
ATOM     18  H   UNL     1      -3.426   7.162  -1.897  0.00  0.00    +0.152 HD
ENDROOT
BRANCH   1  22
ATOM     19  C   UNL     1      -5.041   3.456  -8.102  0.00  0.00    -0.042 A 
ATOM     20  C   UNL     1      -3.679   3.314  -7.912  0.00  0.00    +0.004 A 
ATOM     21  C   UNL     1      -3.149   3.374  -6.637  0.00  0.00    +0.004 A 
ATOM     22  C   UNL     1      -3.981   3.576  -5.551  0.00  0.00    -0.043 A 
ATOM     23  C   UNL     1      -5.344   3.713  -5.741  0.00  0.00    +0.004 A 
ATOM     24  C   UNL     1      -5.873   3.658  -7.017  0.00  0.00    +0.004 A 
BRANCH  19  26
ATOM     25  C   UNL     1      -5.298   2.031 -10.115  0.00  0.00    +0.015 C 
ATOM     26  C   UNL     1      -5.619   3.392  -9.492  0.00  0.00    -0.013 C 
ATOM     27  C   UNL     1      -7.136   3.576  -9.424  0.00  0.00    +0.015 C 
ATOM     28  C   UNL     1      -5.008   4.502 -10.351  0.00  0.00    +0.015 C 
ENDBRANCH  19  26
ENDBRANCH   1  22
BRANCH   5  29
ATOM     29  C   UNL     1      -1.242   3.140   0.030  0.00  0.00    +0.023 A 
ATOM     30  C   UNL     1      -0.505   3.069  -1.137  0.00  0.00    +0.058 A 
ATOM     31  C   UNL     1       0.705   2.395  -1.155  0.00  0.00    +0.162 A 
ATOM     32  C   UNL     1       1.178   1.788   0.005  0.00  0.00    +0.165 A 
ATOM     33  C   UNL     1       0.439   1.859   1.174  0.00  0.00    +0.095 A 
ATOM     34  C   UNL     1      -0.774   2.531   1.185  0.00  0.00    +0.129 A 
BRANCH  34  35
ATOM     35  O   UNL     1      -1.504   2.597   2.331  0.00  0.00    -0.495 OA
ATOM     36  C   UNL     1      -0.960   1.952   3.484  0.00  0.00    +0.277 C 
ENDBRANCH  34  35
BRANCH  32  37
ATOM     37  O   UNL     1       2.366   1.125  -0.010  0.00  0.00    -0.491 OA
ATOM     38  C   UNL     1       2.790   0.526   1.216  0.00  0.00    +0.277 C 
ENDBRANCH  32  37
BRANCH  31  39
ATOM     39  O   UNL     1       1.429   2.325  -2.304  0.00  0.00    -0.491 OA
ATOM     40  C   UNL     1       0.882   2.971  -3.456  0.00  0.00    +0.277 C 
ENDBRANCH  31  39
ENDBRANCH   5  29
TORSDOF 6
