REMARK  Name = ZINC60208183
REMARK  12 active torsions:
REMARK  status: ('A' for Active; 'I' for Inactive)
REMARK    1  A    between atoms: C_1  and  C_2
REMARK    2  A    between atoms: C_5  and  C_8
REMARK    3  A    between atoms: C_8  and  C_10
REMARK    4  A    between atoms: C_8  and  N_15
REMARK    5  A    between atoms: C_16  and  C_18
REMARK    6  A    between atoms: C_18  and  N_19
REMARK    7  A    between atoms: N_19  and  C_20
REMARK    8  A    between atoms: N_19  and  C_29
REMARK    9  A    between atoms: C_20  and  C_21
REMARK   10  A    between atoms: C_24  and  C_27
REMARK   11  A    between atoms: C_29  and  C_30
REMARK   12  A    between atoms: C_29  and  C_31
REMARK                            x       y       z     vdW  Elec       q    Type
REMARK                         _______ _______ _______ _____ _____    ______ ____
ROOT
ATOM      1  N   UNL     1      -0.321  -5.195   3.091  0.00  0.00    -0.306 N 
ATOM      2  C   UNL     1      -0.769  -6.285   2.436  0.00  0.00    +0.197 C 
ATOM      3  O   UNL     1      -0.073  -6.818   1.598  0.00  0.00    -0.278 OA
ATOM      4  H   UNL     1      -0.878  -4.769   3.761  0.00  0.00    +0.150 HD
ENDROOT
BRANCH   1   5
ATOM      5  C   UNL     1       1.007  -4.654   2.790  0.00  0.00    +0.140 C 
BRANCH   5  10
ATOM      6  C   UNL     1       1.143   0.966   4.125  0.00  0.00    +0.044 C 
ATOM      7  C   UNL     1       1.108  -0.499   3.777  0.00  0.00    -0.050 A 
ATOM      8  C   UNL     1       1.734  -0.953   2.631  0.00  0.00    +0.004 A 
ATOM      9  C   UNL     1       1.701  -2.298   2.312  0.00  0.00    +0.006 A 
ATOM     10  C   UNL     1       1.043  -3.189   3.139  0.00  0.00    -0.022 A 
ATOM     11  C   UNL     1       0.418  -2.735   4.285  0.00  0.00    +0.006 A 
ATOM     12  C   UNL     1       0.454  -1.391   4.607  0.00  0.00    +0.004 A 
ENDBRANCH   5  10
BRANCH   5  13
ATOM     13  C   UNL     1       2.044  -5.389   3.600  0.00  0.00    +0.014 A 
ATOM     14  C   UNL     1       3.283  -5.797   3.232  0.00  0.00    +0.013 A 
ATOM     15  C   UNL     1       4.071  -6.462   4.153  0.00  0.00    +0.008 A 
ATOM     16  C   UNL     1       3.581  -6.687   5.396  0.00  0.00    +0.045 A 
ATOM     17  S   UNL     1       1.962  -5.942   5.296  0.00  0.00    -0.099 S 
ENDBRANCH   5  13
ENDBRANCH   1   5
BRANCH   2  18
ATOM     18  C   UNL     1      -2.135  -6.841   2.746  0.00  0.00    +0.019 C 
BRANCH  18  19
ATOM     19  N   UNL     1      -2.468  -7.891   1.774  0.00  0.00    +0.390 N 
ATOM     20  H   UNL     1      -1.638  -8.421   1.554  0.00  0.00    -0.080 HD
BRANCH  19  21
ATOM     21  C   UNL     1      -2.995  -7.275   0.549  0.00  0.00    -0.074 C 
ATOM     22  C   UNL     1      -4.210  -6.411   0.893  0.00  0.00    -0.013 C 
ATOM     23  C   UNL     1      -1.912  -6.402  -0.089  0.00  0.00    -0.013 C 
ENDBRANCH  19  21
BRANCH  19  24
ATOM     24  C   UNL     1      -3.482  -8.785   2.347  0.00  0.00    -0.042 C 
BRANCH  24  25
ATOM     25  C   UNL     1      -3.722  -9.940   1.410  0.00  0.00    -0.064 A 
ATOM     26  C   UNL     1      -4.762  -9.884   0.499  0.00  0.00    +0.003 A 
ATOM     27  C   UNL     1      -4.986 -10.938  -0.363  0.00  0.00    +0.019 A 
ATOM     28  C   UNL     1      -4.161 -12.063  -0.314  0.00  0.00    +0.052 A 
ATOM     29  C   UNL     1      -3.113 -12.113   0.607  0.00  0.00    +0.019 A 
ATOM     30  C   UNL     1      -2.897 -11.050   1.460  0.00  0.00    +0.003 A 
BRANCH  28  31
ATOM     31  C   UNL     1      -4.388 -13.161  -1.205  0.00  0.00    +0.099 C 
ATOM     32  N   UNL     1      -4.569 -14.032  -1.911  0.00  0.00    -0.191 NA
ENDBRANCH  28  31
ENDBRANCH  24  25
ENDBRANCH  19  24
ENDBRANCH  18  19
ENDBRANCH   2  18
TORSDOF 9
