REMARK  Name = ZINC63361835
REMARK  7 active torsions:
REMARK  status: ('A' for Active; 'I' for Inactive)
REMARK    1  A    between atoms: C_1  and  C_2
REMARK    2  A    between atoms: C_8  and  O_13
REMARK    3  A    between atoms: O_13  and  C_14
REMARK    4  A    between atoms: N_21  and  C_24
REMARK    5  A    between atoms: C_24  and  C_25
REMARK    6  A    between atoms: C_25  and  C_26
REMARK    7  A    between atoms: C_26  and  N_27
REMARK                            x       y       z     vdW  Elec       q    Type
REMARK                         _______ _______ _______ _____ _____    ______ ____
ROOT
ATOM      1  C   UNL     1      -0.019   1.526   0.010  0.00  0.00    +0.044 C 
ATOM      2  C   UNL     1       0.002  -0.004   0.002  0.00  0.00    +0.135 C 
ATOM      3  C   UNL     1       0.497  -0.386  -1.357  0.00  0.00    +0.139 C 
ATOM      4  C   UNL     1       1.584  -1.439  -1.225  0.00  0.00    -0.034 C 
ATOM      5  C   UNL     1       1.260  -2.423  -2.051  0.00  0.00    +0.003 A 
ATOM      6  C   UNL     1       1.951  -3.666  -2.426  0.00  0.00    +0.055 A 
ATOM      7  C   UNL     1       1.315  -4.475  -3.316  0.00  0.00    +0.121 A 
ATOM      8  C   UNL     1       0.062  -4.190  -3.879  0.00  0.00    +0.047 A 
ATOM      9  C   UNL     1      -0.660  -3.072  -3.608  0.00  0.00    +0.029 A 
ATOM     10  C   UNL     1      -0.072  -2.115  -2.662  0.00  0.00    +0.043 A 
ATOM     11  N   UNL     1      -0.512  -0.988  -2.227  0.00  0.00    -0.375 N 
ATOM     12  C   UNL     1       2.704  -1.279  -0.228  0.00  0.00    +0.052 C 
ATOM     13  C   UNL     1       2.038  -1.169   1.146  0.00  0.00    +0.113 C 
ATOM     14  N   UNL     1       0.822  -0.378   1.140  0.00  0.00    -0.284 N 
ATOM     15  C   UNL     1       0.344   0.040   2.360  0.00  0.00    +0.234 C 
ATOM     16  O   UNL     1       0.983  -0.112   3.379  0.00  0.00    -0.274 OA
ATOM     17  C   UNL     1      -1.020   0.698   2.368  0.00  0.00    +0.203 C 
ATOM     18  N   UNL     1      -1.920  -0.069   1.486  0.00  0.00    -0.291 N 
ATOM     19  C   UNL     1      -1.425  -0.412   0.258  0.00  0.00    +0.242 C 
ATOM     20  O   UNL     1      -2.089  -1.005  -0.567  0.00  0.00    -0.273 OA
ATOM     21  H   UNL     1      -1.375  -0.603  -2.449  0.00  0.00    +0.160 HD
ENDROOT
BRANCH   7  22
ATOM     22  O   UNL     1       1.931  -5.630  -3.683  0.00  0.00    -0.495 OA
ATOM     23  C   UNL     1       1.243  -6.463  -4.618  0.00  0.00    +0.277 C 
ENDBRANCH   7  22
BRANCH  18  24
ATOM     24  C   UNL     1      -3.273  -0.442   1.903  0.00  0.00    +0.110 C 
BRANCH  24  25
ATOM     25  C   UNL     1      -4.254   0.660   1.498  0.00  0.00    +0.040 C 
BRANCH  25  26
ATOM     26  C   UNL     1      -5.668   0.270   1.934  0.00  0.00    +0.124 C 
BRANCH  26  27
ATOM     27  N   UNL     1      -6.607   1.325   1.545  0.00  0.00    -0.338 N 
ATOM     28  C   UNL     1      -6.963   2.413   2.296  0.00  0.00    +0.104 A 
ATOM     29  C   UNL     1      -7.843   3.121   1.564  0.00  0.00    +0.101 A 
ATOM     30  N   UNL     1      -8.021   2.483   0.398  0.00  0.00    -0.352 N 
ATOM     31  C   UNL     1      -7.280   1.409   0.377  0.00  0.00    +0.173 A 
ATOM     32  H   UNL     1      -8.605   2.776  -0.319  0.00  0.00    +0.166 HD
ENDBRANCH  26  27
ENDBRANCH  25  26
ENDBRANCH  24  25
ENDBRANCH  18  24
TORSDOF 5
