REMARK  Name = ZINC63514429
REMARK  5 active torsions:
REMARK  status: ('A' for Active; 'I' for Inactive)
REMARK    1  A    between atoms: C_1  and  C_2
REMARK    2  A    between atoms: C_4  and  N_8
REMARK    3  A    between atoms: C_9  and  C_11
REMARK    4  A    between atoms: C_11  and  N_12
REMARK    5  A    between atoms: N_12  and  C_13
REMARK                            x       y       z     vdW  Elec       q    Type
REMARK                         _______ _______ _______ _____ _____    ______ ____
ROOT
ATOM      1  N   UNL     1      -2.281  -6.274   1.955  0.00  0.00    -0.273 N 
ATOM      2  C   UNL     1      -3.612  -6.619   1.880  0.00  0.00    +0.136 C 
ATOM      3  N   UNL     1      -4.118  -7.821   1.881  0.00  0.00    -0.362 N 
ATOM      4  C   UNL     1      -5.561  -8.027   1.724  0.00  0.00    +0.117 C 
ATOM      5  C   UNL     1      -5.795  -8.317   0.220  0.00  0.00    +0.191 C 
ATOM      6  S   UNL     1      -7.426  -7.551  -0.114  0.00  0.00    -0.028 S 
ATOM      7  O   UNL     1      -8.427  -8.558  -0.064  0.00  0.00    -0.174 OA
ATOM      8  O   UNL     1      -7.322  -6.729  -1.269  0.00  0.00    -0.174 OA
ATOM      9  C   UNL     1      -7.588  -6.479   1.366  0.00  0.00    +0.182 C 
ATOM     10  C   UNL     1      -6.314  -6.749   2.156  0.00  0.00    +0.099 C 
ATOM     11  S   UNL     1      -5.013  -5.514   1.768  0.00  0.00    -0.085 S 
ATOM     12  H   UNL     1      -3.533  -8.587   1.987  0.00  0.00    +0.162 HD
ENDROOT
BRANCH   1  13
ATOM     13  C   UNL     1      -1.297  -7.266   1.898  0.00  0.00    +0.036 A 
ATOM     14  C   UNL     1      -1.096  -7.980   0.724  0.00  0.00    +0.023 A 
ATOM     15  C   UNL     1      -0.123  -8.959   0.671  0.00  0.00    +0.002 A 
ATOM     16  C   UNL     1       0.650  -9.229   1.785  0.00  0.00    +0.000 A 
ATOM     17  C   UNL     1       0.452  -8.520   2.956  0.00  0.00    +0.002 A 
ATOM     18  C   UNL     1      -0.515  -7.535   3.013  0.00  0.00    +0.023 A 
ENDBRANCH   1  13
BRANCH   1  19
ATOM     19  C   UNL     1      -1.896  -4.867   2.094  0.00  0.00    +0.208 C 
BRANCH  19  21
ATOM     20  N   UNL     1      -1.361  -2.963   0.608  0.00  0.00    -0.288 N 
ATOM     21  C   UNL     1      -1.717  -4.257   0.727  0.00  0.00    +0.233 C 
ATOM     22  O   UNL     1      -1.894  -4.931  -0.265  0.00  0.00    -0.274 OA
ATOM     23  H   UNL     1      -1.219  -2.424   1.402  0.00  0.00    +0.151 HD
BRANCH  20  27
ATOM     24  C   UNL     1      -0.996   1.320  -1.218  0.00  0.00    +0.067 C 
ATOM     25  C   UNL     1      -0.848  -0.171  -1.051  0.00  0.00    +0.060 C 
ATOM     26  C   UNL     1      -1.854  -1.008  -0.792  0.00  0.00    +0.045 C 
ATOM     27  C   UNL     1      -1.187  -2.370  -0.720  0.00  0.00    +0.239 C 
ATOM     28  N   UNL     1       0.230  -2.059  -0.975  0.00  0.00    -0.160 NA
ATOM     29  N   UNL     1       0.322  -0.842  -1.149  0.00  0.00    -0.157 NA
ENDBRANCH  20  27
ENDBRANCH  19  21
ENDBRANCH   1  19
TORSDOF 4
