REMARK  Name = ZINC44361950
REMARK  10 active torsions:
REMARK  status: ('A' for Active; 'I' for Inactive)
REMARK    1  A    between atoms: C_1  and  C_2
REMARK    2  A    between atoms: N_4  and  C_5
REMARK    3  A    between atoms: N_4  and  C_6
REMARK    4  A    between atoms: C_6  and  C_7
REMARK    5  A    between atoms: C_12  and  N_13
REMARK    6  A    between atoms: N_16  and  C_17
REMARK    7  A    between atoms: C_17  and  C_18
REMARK    8  A    between atoms: C_17  and  C_26
REMARK    9  A    between atoms: C_21  and  O_24
REMARK   10  A    between atoms: O_24  and  C_25
REMARK                            x       y       z     vdW  Elec       q    Type
REMARK                         _______ _______ _______ _____ _____    ______ ____
ROOT
ATOM      1  N   UNL     1      -2.554  -2.924  -3.221  0.00  0.00    -0.269 N 
ATOM      2  C   UNL     1      -3.397  -2.904  -4.272  0.00  0.00    +0.304 C 
ATOM      3  O   UNL     1      -4.599  -2.884  -4.087  0.00  0.00    -0.252 OA
ATOM      4  N   UNL     1      -2.909  -2.907  -5.528  0.00  0.00    -0.292 N 
ATOM      5  H   UNL     1      -1.597  -2.859  -3.365  0.00  0.00    +0.156 HD
ATOM      6  H   UNL     1      -1.950  -2.923  -5.675  0.00  0.00    +0.151 HD
ENDROOT
BRANCH   1  12
ATOM      7  C   UNL     1      -2.279  -2.661  -0.836  0.00  0.00    -0.009 A 
ATOM      8  C   UNL     1      -2.783  -2.771   0.446  0.00  0.00    +0.007 A 
ATOM      9  C   UNL     1      -4.059  -3.262   0.650  0.00  0.00    +0.000 A 
ATOM     10  C   UNL     1      -4.835  -3.645  -0.429  0.00  0.00    +0.002 A 
ATOM     11  C   UNL     1      -4.338  -3.538  -1.712  0.00  0.00    +0.023 A 
ATOM     12  C   UNL     1      -3.059  -3.039  -1.921  0.00  0.00    +0.039 A 
BRANCH   7  13
ATOM     13  C   UNL     1      -0.888  -2.126  -1.056  0.00  0.00    +0.144 C 
BRANCH  13  17
ATOM     14  C   UNL     1      -1.260   1.681  -0.936  0.00  0.00    +0.109 C 
ATOM     15  C   UNL     1      -1.075   0.244  -0.521  0.00  0.00    +0.213 C 
ATOM     16  O   UNL     1      -1.027  -0.046   0.656  0.00  0.00    -0.276 OA
ATOM     17  N   UNL     1      -0.964  -0.719  -1.458  0.00  0.00    -0.300 N 
ATOM     18  C   UNL     1      -0.919  -0.358  -2.877  0.00  0.00    +0.132 C 
ENDBRANCH  13  17
ENDBRANCH   7  13
ENDBRANCH   1  12
BRANCH   4  19
ATOM     19  C   UNL     1      -3.825  -2.885  -6.670  0.00  0.00    +0.108 C 
BRANCH  19  20
ATOM     20  C   UNL     1      -3.146  -3.491  -7.871  0.00  0.00    -0.027 A 
ATOM     21  C   UNL     1      -1.812  -3.224  -8.117  0.00  0.00    +0.009 A 
ATOM     22  C   UNL     1      -1.187  -3.779  -9.218  0.00  0.00    +0.046 A 
ATOM     23  C   UNL     1      -1.900  -4.604 -10.076  0.00  0.00    +0.120 A 
ATOM     24  C   UNL     1      -3.238  -4.871  -9.826  0.00  0.00    +0.046 A 
ATOM     25  C   UNL     1      -3.857  -4.318  -8.721  0.00  0.00    +0.009 A 
BRANCH  23  26
ATOM     26  O   UNL     1      -1.287  -5.151 -11.159  0.00  0.00    -0.495 OA
ATOM     27  C   UNL     1      -2.082  -5.991 -11.998  0.00  0.00    +0.277 C 
ENDBRANCH  23  26
ENDBRANCH  19  20
BRANCH  19  28
ATOM     28  C   UNL     1      -4.217  -1.439  -6.982  0.00  0.00    +0.014 C 
ATOM     29  C   UNL     1      -3.470  -0.329  -6.240  0.00  0.00    +0.006 C 
ATOM     30  C   UNL     1      -4.924  -0.645  -5.881  0.00  0.00    +0.006 C 
ENDBRANCH  19  28
ENDBRANCH   4  19
TORSDOF 7
