REMARK  Name = ZINC00709400
REMARK  2 active torsions:
REMARK  status: ('A' for Active; 'I' for Inactive)
REMARK    1  A    between atoms: C_15  and  C_17
REMARK    2  A    between atoms: C_22  and  C_23
REMARK                            x       y       z     vdW  Elec       q    Type
REMARK                         _______ _______ _______ _____ _____    ______ ____
ROOT
ATOM      1  C   UNL     1       1.191   1.779   0.000  0.00  0.00    +0.001 A 
ATOM      2  C   UNL     1      -0.013   1.076   0.008  0.00  0.00    +0.001 A 
ATOM      3  C   UNL     1      -1.206   1.730   0.017  0.00  0.00    +0.010 A 
ATOM      4  C   UNL     1      -1.229   3.134   0.030  0.00  0.00    +0.005 A 
ATOM      5  C   UNL     1      -0.006   3.849   0.022  0.00  0.00    -0.002 A 
ATOM      6  C   UNL     1       1.207   3.140   0.007  0.00  0.00    +0.009 A 
ATOM      7  C   UNL     1      -0.028   5.255   0.028  0.00  0.00    +0.026 A 
ATOM      8  C   UNL     1      -1.219   5.917   0.040  0.00  0.00    +0.022 A 
ATOM      9  C   UNL     1      -2.428   5.225   0.048  0.00  0.00    -0.017 A 
ATOM     10  C   UNL     1      -2.446   3.847   0.044  0.00  0.00    +0.045 A 
ATOM     11  N   UNL     1      -3.662   3.162   0.055  0.00  0.00    -0.285 N 
ATOM     12  C   UNL     1      -4.793   3.780   0.441  0.00  0.00    +0.218 C 
ATOM     13  O   UNL     1      -5.842   3.172   0.437  0.00  0.00    -0.275 OA
ATOM     14  C   UNL     1      -4.766   5.221   0.878  0.00  0.00    +0.109 C 
ATOM     15  C   UNL     1      -3.727   5.989   0.060  0.00  0.00    +0.060 C 
ATOM     16 BR   UNL     1       1.594   6.227   0.018  0.00  0.00    -0.050 Br
ATOM     17  H   UNL     1      -3.692   2.231  -0.219  0.00  0.00    +0.155 HD
ENDROOT
BRANCH  15  18
ATOM     18  C   UNL     1      -4.224   6.157  -1.353  0.00  0.00    -0.028 A 
ATOM     19  C   UNL     1      -4.498   5.044  -2.126  0.00  0.00    +0.005 A 
ATOM     20  C   UNL     1      -4.953   5.197  -3.422  0.00  0.00    +0.000 A 
ATOM     21  C   UNL     1      -5.135   6.464  -3.945  0.00  0.00    +0.001 A 
ATOM     22  C   UNL     1      -4.861   7.577  -3.173  0.00  0.00    +0.012 A 
ATOM     23  C   UNL     1      -4.410   7.423  -1.875  0.00  0.00    +0.059 A 
BRANCH  23  24
ATOM     24  C   UNL     1      -4.117   8.637  -1.030  0.00  0.00    +0.418 C 
ATOM     25  F   UNL     1      -4.381   9.794  -1.770  0.00  0.00    -0.166 F 
ATOM     26  F   UNL     1      -4.928   8.618   0.110  0.00  0.00    -0.166 F 
ATOM     27  F   UNL     1      -2.772   8.624  -0.646  0.00  0.00    -0.166 F 
ENDBRANCH  23  24
ENDBRANCH  15  18
TORSDOF 2
