REMARK  Name = ZINC40317579
REMARK  15 active torsions:
REMARK  status: ('A' for Active; 'I' for Inactive)
REMARK    1  A    between atoms: C_1  and  C_2
REMARK    2  A    between atoms: C_4  and  C_34
REMARK    3  A    between atoms: C_6  and  O_8
REMARK    4  A    between atoms: O_8  and  C_9
REMARK    5  A    between atoms: C_9  and  C_10
REMARK    6  A    between atoms: C_10  and  C_12
REMARK    7  A    between atoms: C_10  and  O_33
REMARK    8  A    between atoms: C_12  and  N_13
REMARK    9  A    between atoms: N_13  and  C_14
REMARK   10  A    between atoms: N_13  and  C_25
REMARK   11  A    between atoms: C_14  and  C_15
REMARK   12  A    between atoms: C_18  and  C_21
REMARK   13  A    between atoms: C_21  and  C_22
REMARK   14  A    between atoms: C_21  and  C_23
REMARK   15  A    between atoms: C_21  and  C_24
REMARK                            x       y       z     vdW  Elec       q    Type
REMARK                         _______ _______ _______ _____ _____    ______ ____
ROOT
ATOM      1  N   UNL     1       0.725  -2.535   7.391  0.00  0.00    +0.387 N 
ATOM      2  H   UNL     1       1.716  -2.696   7.485  0.00  0.00    -0.081 HD
ENDROOT
BRANCH   1   3
ATOM      3  C   UNL     1       0.190  -3.388   6.321  0.00  0.00    -0.045 C 
ATOM      4  C   UNL     1      -0.143  -4.780   6.883  0.00  0.00    +0.009 C 
ATOM      5  C   UNL     1      -0.398  -5.771   5.722  0.00  0.00    +0.164 C 
ATOM      6  S   UNL     1       0.626  -5.073   4.363  0.00  0.00    -0.033 S 
ATOM      7  O   UNL     1      -0.226  -4.686   3.293  0.00  0.00    -0.174 OA
ATOM      8  O   UNL     1       1.715  -5.950   4.107  0.00  0.00    -0.174 OA
ATOM      9  C   UNL     1       1.258  -3.560   5.203  0.00  0.00    +0.151 C 
ENDBRANCH   1   3
BRANCH   1  10
ATOM     10  C   UNL     1       0.487  -1.124   7.058  0.00  0.00    -0.043 C 
BRANCH  10  11
ATOM     11  C   UNL     1       1.593  -0.628   6.123  0.00  0.00    +0.135 C 
BRANCH  11  12
ATOM     12  O   UNL     1       2.868  -0.973   6.668  0.00  0.00    -0.390 OA
ATOM     13  H   UNL     1       3.039  -0.592   7.540  0.00  0.00    +0.210 HD
ENDBRANCH  11  12
BRANCH  11  14
ATOM     14  C   UNL     1       1.494   0.892   5.979  0.00  0.00    +0.258 C 
BRANCH  14  15
ATOM     15  O   UNL     1       2.450   1.342   5.017  0.00  0.00    -0.489 OA
BRANCH  15  21
ATOM     16  C   UNL     1       0.747   5.828   5.908  0.00  0.00    +0.044 C 
ATOM     17  C   UNL     1       1.680   4.894   5.183  0.00  0.00    -0.047 A 
ATOM     18  C   UNL     1       2.583   5.396   4.263  0.00  0.00    +0.007 A 
ATOM     19  C   UNL     1       3.441   4.541   3.596  0.00  0.00    -0.047 A 
ATOM     20  C   UNL     1       3.399   3.183   3.847  0.00  0.00    +0.049 A 
ATOM     21  C   UNL     1       2.494   2.678   4.769  0.00  0.00    +0.121 A 
ATOM     22  C   UNL     1       1.638   3.538   5.441  0.00  0.00    +0.049 A 
ATOM     23  C   UNL     1       4.423   5.092   2.595  0.00  0.00    +0.044 C 
ENDBRANCH  15  21
ENDBRANCH  14  15
ENDBRANCH  11  14
ENDBRANCH  10  11
ENDBRANCH   1  10
BRANCH   1  24
ATOM     24  C   UNL     1       0.053  -2.859   8.656  0.00  0.00    -0.042 C 
BRANCH  24  25
ATOM     25  C   UNL     1       0.618  -4.142   9.211  0.00  0.00    -0.064 A 
ATOM     26  C   UNL     1      -0.231  -5.164   9.591  0.00  0.00    +0.002 A 
ATOM     27  C   UNL     1       0.287  -6.340  10.100  0.00  0.00    +0.004 A 
ATOM     28  C   UNL     1       1.655  -6.494  10.228  0.00  0.00    -0.042 A 
ATOM     29  C   UNL     1       2.504  -5.473   9.847  0.00  0.00    +0.004 A 
ATOM     30  C   UNL     1       1.986  -4.298   9.334  0.00  0.00    +0.002 A 
BRANCH  28  31
ATOM     31  C   UNL     1       2.220  -7.776  10.783  0.00  0.00    -0.013 C 
ATOM     32  C   UNL     1       1.797  -8.947   9.894  0.00  0.00    +0.015 C 
ATOM     33  C   UNL     1       3.747  -7.688  10.818  0.00  0.00    +0.015 C 
ATOM     34  C   UNL     1       1.689  -7.995  12.201  0.00  0.00    +0.015 C 
ENDBRANCH  28  31
ENDBRANCH  24  25
ENDBRANCH   1  24
TORSDOF 10
