REMARK  Name = ZINC03897839
REMARK  7 active torsions:
REMARK  status: ('A' for Active; 'I' for Inactive)
REMARK    1  A    between atoms: C_1  and  C_2
REMARK    2  A    between atoms: C_5  and  N_22
REMARK    3  A    between atoms: C_7  and  N_8
REMARK    4  A    between atoms: N_8  and  C_9
REMARK    5  A    between atoms: C_11  and  O_21
REMARK    6  A    between atoms: C_13  and  O_20
REMARK    7  A    between atoms: C_15  and  O_19
REMARK                            x       y       z     vdW  Elec       q    Type
REMARK                         _______ _______ _______ _____ _____    ______ ____
ROOT
ATOM      1  N   UNL     1       3.440   2.205   1.034  0.00  0.00    -0.317 N 
ATOM      2  H   UNL     1       4.066   1.835   0.393  0.00  0.00    +0.149 HD
ENDROOT
BRANCH   1   9
ATOM      3  C   UNL     1       5.995   3.378   0.603  0.00  0.00    +0.045 C 
ATOM      4  C   UNL     1       4.964   4.018   1.495  0.00  0.00    -0.029 A 
ATOM      5  C   UNL     1       5.246   5.210   2.133  0.00  0.00    +0.007 A 
ATOM      6  C   UNL     1       4.301   5.799   2.952  0.00  0.00    +0.033 A 
ATOM      7  C   UNL     1       3.069   5.197   3.135  0.00  0.00    +0.128 A 
ATOM      8  C   UNL     1       2.778   4.008   2.496  0.00  0.00    +0.056 A 
ATOM      9  C   UNL     1       3.728   3.411   1.677  0.00  0.00    +0.034 A 
BRANCH   7  10
ATOM     10  N   UNL     1       2.059   5.831   4.012  0.00  0.00    +0.056 N 
ATOM     11  O   UNL     1       2.313   6.883   4.572  0.00  0.00    -0.126 OA
ATOM     12  O   UNL     1       0.975   5.301   4.174  0.00  0.00    -0.126 OA
ENDBRANCH   7  10
ENDBRANCH   1   9
BRANCH   1  13
ATOM     13  C   UNL     1       2.190   1.499   1.328  0.00  0.00    +0.235 C 
ATOM     14  C   UNL     1       2.418  -0.011   1.217  0.00  0.00    +0.192 C 
ATOM     15  C   UNL     1       1.094  -0.739   1.467  0.00  0.00    +0.178 C 
ATOM     16  C   UNL     1       0.050  -0.235   0.466  0.00  0.00    +0.171 C 
ATOM     17  C   UNL     1      -0.087   1.284   0.605  0.00  0.00    +0.196 C 
ATOM     18  O   UNL     1       1.186   1.897   0.392  0.00  0.00    -0.354 OA
BRANCH  16  19
ATOM     19  O   UNL     1       0.468  -0.556  -0.863  0.00  0.00    -0.387 OA
ATOM     20  H   UNL     1      -0.145  -0.262  -1.550  0.00  0.00    +0.210 HD
ENDBRANCH  16  19
BRANCH  15  21
ATOM     21  O   UNL     1       1.282  -2.145   1.293  0.00  0.00    -0.386 OA
ATOM     22  H   UNL     1       0.481  -2.669   1.430  0.00  0.00    +0.210 HD
ENDBRANCH  15  21
BRANCH  14  23
ATOM     23  O   UNL     1       2.898  -0.327  -0.091  0.00  0.00    -0.385 OA
ATOM     24  H   UNL     1       3.061  -1.269  -0.233  0.00  0.00    +0.210 HD
ENDBRANCH  14  23
ENDBRANCH   1  13
TORSDOF 6
