REMARK  Name = ZINC40802207
REMARK  9 active torsions:
REMARK  status: ('A' for Active; 'I' for Inactive)
REMARK    1  A    between atoms: C_1  and  O_2
REMARK    2  A    between atoms: O_2  and  C_3
REMARK    3  A    between atoms: C_8  and  O_9
REMARK    4  A    between atoms: O_9  and  C_10
REMARK    5  A    between atoms: C_11  and  N_24
REMARK    6  A    between atoms: C_12  and  N_16
REMARK    7  A    between atoms: N_16  and  C_17
REMARK    8  A    between atoms: C_17  and  C_18
REMARK    9  A    between atoms: C_18  and  C_19
REMARK                            x       y       z     vdW  Elec       q    Type
REMARK                         _______ _______ _______ _____ _____    ______ ____
ROOT
ATOM      1  C   UNL     1       0.283  -4.099   0.157  0.00  0.00    +0.246 A 
ATOM      2  C   UNL     1      -0.182  -4.904  -0.883  0.00  0.00    +0.128 A 
ATOM      3  C   UNL     1       0.018  -6.284  -0.789  0.00  0.00    +0.147 A 
ATOM      4  N   UNL     1       0.640  -6.773   0.280  0.00  0.00    -0.219 NA
ATOM      5  C   UNL     1       1.065  -5.976   1.240  0.00  0.00    +0.227 A 
ATOM      6  N   UNL     1       0.900  -4.670   1.187  0.00  0.00    -0.199 NA
ENDROOT
BRANCH   2   7
ATOM      7  N   UNL     1      -0.834  -4.343  -1.992  0.00  0.00    -0.351 N 
ATOM      8  H   UNL     1      -0.967  -3.384  -2.043  0.00  0.00    +0.143 HD
ATOM      9  H   UNL     1      -1.153  -4.915  -2.708  0.00  0.00    +0.143 HD
ENDBRANCH   2   7
BRANCH   3  10
ATOM     10  N   UNL     1      -0.426  -7.131  -1.797  0.00  0.00    -0.327 N 
ATOM     11  H   UNL     1      -0.880  -6.766  -2.573  0.00  0.00    +0.148 HD
BRANCH  10  12
ATOM     12  C   UNL     1      -0.211  -8.576  -1.688  0.00  0.00    +0.108 C 
BRANCH  12  13
ATOM     13  C   UNL     1      -0.791  -9.273  -2.920  0.00  0.00    +0.061 C 
BRANCH  13  14
ATOM     14  C   UNL     1      -0.569 -10.759  -2.807  0.00  0.00    -0.009 A 
ATOM     15  C   UNL     1      -1.371 -11.703  -2.255  0.00  0.00    +0.011 A 
ATOM     16  C   UNL     1      -0.958 -13.022  -2.266  0.00  0.00    +0.008 A 
ATOM     17  C   UNL     1       0.235 -13.333  -2.827  0.00  0.00    +0.045 A 
ATOM     18  S   UNL     1       0.815 -11.735  -3.373  0.00  0.00    -0.102 S 
ENDBRANCH  13  14
ENDBRANCH  12  13
ENDBRANCH  10  12
ENDBRANCH   3  10
BRANCH   1  19
ATOM     19  O   UNL     1       0.115  -2.754   0.114  0.00  0.00    -0.433 OA
BRANCH  19  25
ATOM     20  C   UNL     1       1.970  -1.605   1.072  0.00  0.00    +0.162 A 
ATOM     21  C   UNL     1       2.500  -0.845   2.102  0.00  0.00    +0.049 A 
ATOM     22  C   UNL     1       1.710  -0.497   3.182  0.00  0.00    +0.004 A 
ATOM     23  C   UNL     1       0.391  -0.907   3.238  0.00  0.00    +0.004 A 
ATOM     24  C   UNL     1      -0.144  -1.666   2.214  0.00  0.00    +0.050 A 
ATOM     25  C   UNL     1       0.641  -2.013   1.125  0.00  0.00    +0.172 A 
BRANCH  20  27
ATOM     26  C   UNL     1       4.101  -1.494   0.022  0.00  0.00    +0.277 C 
ATOM     27  O   UNL     1       2.746  -1.947   0.009  0.00  0.00    -0.491 OA
ENDBRANCH  20  27
ENDBRANCH  19  25
ENDBRANCH   1  19
TORSDOF 8
