REMARK  Name = ZINC24775424
REMARK  6 active torsions:
REMARK  status: ('A' for Active; 'I' for Inactive)
REMARK    1  A    between atoms: C_5  and  C_7
REMARK    2  A    between atoms: C_7  and  C_9
REMARK    3  A    between atoms: C_7  and  N_25
REMARK    4  A    between atoms: C_9  and  C_10
REMARK    5  A    between atoms: N_12  and  C_13
REMARK    6  A    between atoms: C_13  and  C_14
REMARK                            x       y       z     vdW  Elec       q    Type
REMARK                         _______ _______ _______ _____ _____    ______ ____
ROOT
ATOM      1  C   UNL     1       1.402   4.283   1.349  0.00  0.00    +0.123 C 
ENDROOT
BRANCH   1   2
ATOM      2  C   UNL     1       1.599   5.759   1.122  0.00  0.00    +0.215 C 
ATOM      3  O   UNL     1       1.544   6.212  -0.002  0.00  0.00    -0.276 OA
ATOM      4  N   UNL     1       1.838   6.576   2.167  0.00  0.00    -0.312 N 
ATOM      5  H   UNL     1       1.887   6.165   3.186  0.00  0.00    +0.149 HD
BRANCH   4   6
ATOM      6  C   UNL     1       2.030   8.011   1.946  0.00  0.00    +0.152 C 
BRANCH   6   7
ATOM      7  C   UNL     1       2.282   8.705   3.287  0.00  0.00    +0.228 C 
ATOM      8  C   UNL     1       2.454  10.213   3.065  0.00  0.00    +0.275 C 
ATOM      9  O   UNL     1       2.674  10.831   4.337  0.00  0.00    -0.485 OA
ATOM     10  C   UNL     1       1.845  10.457   5.350  0.00  0.00    +0.162 A 
ATOM     11  C   UNL     1       1.757  11.249   6.485  0.00  0.00    +0.049 A 
ATOM     12  C   UNL     1       0.923  10.881   7.524  0.00  0.00    +0.004 A 
ATOM     13  C   UNL     1       0.174   9.722   7.434  0.00  0.00    +0.004 A 
ATOM     14  C   UNL     1       0.256   8.929   6.305  0.00  0.00    +0.049 A 
ATOM     15  C   UNL     1       1.091   9.294   5.259  0.00  0.00    +0.163 A 
ATOM     16  O   UNL     1       1.159   8.504   4.152  0.00  0.00    -0.480 OA
ENDBRANCH   6   7
ENDBRANCH   4   6
ENDBRANCH   1   2
BRANCH   1  17
ATOM     17  C   UNL     1       1.150   3.589   0.009  0.00  0.00    +0.115 C 
BRANCH  17  22
ATOM     18  C   UNL     1       0.851   0.222   1.690  0.00  0.00    +0.000 A 
ATOM     19  C   UNL     1       0.936  -0.635   0.609  0.00  0.00    +0.001 A 
ATOM     20  C   UNL     1       1.091  -0.127  -0.666  0.00  0.00    +0.020 A 
ATOM     21  C   UNL     1       1.160   1.242  -0.862  0.00  0.00    +0.046 A 
ATOM     22  C   UNL     1       1.074   2.099   0.221  0.00  0.00    -0.008 A 
ATOM     23  C   UNL     1       0.920   1.589   1.496  0.00  0.00    +0.007 A 
ATOM     24 CL   UNL     1       1.355   1.882  -2.463  0.00  0.00    -0.083 Cl
ENDBRANCH  17  22
BRANCH  17  25
ATOM     25  N   UNL     1      -0.114   4.067  -0.558  0.00  0.00    -0.292 N 
ATOM     26  C   UNL     1      -1.276   3.807   0.073  0.00  0.00    +0.298 C 
ATOM     27  O   UNL     1      -1.270   3.259   1.158  0.00  0.00    -0.253 OA
ATOM     28  N   UNL     1      -2.446   4.154  -0.500  0.00  0.00    -0.313 N 
ATOM     29  H   UNL     1      -0.114   4.638  -1.498  0.00  0.00    +0.151 HD
ATOM     30  H   UNL     1      -3.394   3.942   0.015  0.00  0.00    +0.146 HD
ATOM     31  H   UNL     1      -2.452   4.650  -1.482  0.00  0.00    +0.146 HD
ENDBRANCH  17  25
ENDBRANCH   1  17
TORSDOF 6
