REMARK  Name = ZINC13684681
REMARK  9 active torsions:
REMARK  status: ('A' for Active; 'I' for Inactive)
REMARK    1  A    between atoms: C_1  and  C_2
REMARK    2  A    between atoms: C_2  and  C_3
REMARK    3  A    between atoms: C_2  and  N_4
REMARK    4  A    between atoms: N_4  and  C_5
REMARK    5  A    between atoms: C_5  and  N_7
REMARK    6  A    between atoms: N_7  and  N_8
REMARK    7  A    between atoms: C_9  and  C_10
REMARK    8  A    between atoms: C_9  and  C_11
REMARK    9  A    between atoms: C_15  and  N_17
REMARK                            x       y       z     vdW  Elec       q    Type
REMARK                         _______ _______ _______ _____ _____    ______ ____
ROOT
ATOM      1  N   UNL     1       2.066  -1.394   3.370  0.00  0.00    -0.185 NA
ATOM      2  C   UNL     1       2.694  -1.824   4.421  0.00  0.00    +0.063 C 
ATOM      3  C   UNL     1       1.956  -1.985   5.725  0.00  0.00    +0.068 C 
ENDROOT
BRANCH   2   4
ATOM      4  C   UNL     1       4.129  -2.155   4.339  0.00  0.00    -0.000 A 
ATOM      5  C   UNL     1       4.806  -2.623   5.468  0.00  0.00    +0.011 A 
ATOM      6  C   UNL     1       6.147  -2.932   5.385  0.00  0.00    +0.023 A 
ATOM      7  C   UNL     1       6.823  -2.777   4.186  0.00  0.00    +0.071 A 
ATOM      8  C   UNL     1       6.158  -2.313   3.063  0.00  0.00    +0.145 A 
ATOM      9  C   UNL     1       4.815  -2.007   3.132  0.00  0.00    +0.044 A 
ATOM     10 CL   UNL     1       8.513  -3.166   4.090  0.00  0.00    -0.081 Cl
BRANCH   8  11
ATOM     11  N   UNL     1       6.888  -2.150   1.786  0.00  0.00    +0.058 N 
ATOM     12  O   UNL     1       6.309  -1.745   0.806  0.00  0.00    -0.126 OA
ATOM     13  O   UNL     1       8.065  -2.422   1.724  0.00  0.00    -0.126 OA
ENDBRANCH   8  11
ENDBRANCH   2   4
BRANCH   1  14
ATOM     14  N   UNL     1       0.703  -1.080   3.447  0.00  0.00    -0.218 N 
ATOM     15  H   UNL     1       0.229  -1.184   4.287  0.00  0.00    +0.176 HD
BRANCH  14  16
ATOM     16  C   UNL     1       0.051  -0.633   2.355  0.00  0.00    +0.150 C 
ATOM     17  S   UNL     1      -1.615  -0.249   2.450  0.00  0.00    -0.017 S 
BRANCH  16  18
ATOM     18  N   UNL     1       0.711  -0.489   1.189  0.00  0.00    -0.323 N 
ATOM     19  H   UNL     1       1.654  -0.707   1.135  0.00  0.00    +0.148 HD
BRANCH  18  21
ATOM     20  C   UNL     1      -0.019   1.526   0.010  0.00  0.00    +0.027 C 
ATOM     21  C   UNL     1       0.002  -0.004   0.002  0.00  0.00    +0.066 C 
ATOM     22  C   UNL     1       0.718  -0.497  -1.257  0.00  0.00    +0.027 C 
ENDBRANCH  18  21
ENDBRANCH  16  18
ENDBRANCH  14  16
ENDBRANCH   1  14
TORSDOF 6
