REMARK  Name = ZINC36723303
REMARK  15 active torsions:
REMARK  status: ('A' for Active; 'I' for Inactive)
REMARK    1  A    between atoms: C_1  and  C_2
REMARK    2  A    between atoms: C_2  and  C_3
REMARK    3  A    between atoms: C_3  and  C_4
REMARK    4  A    between atoms: C_4  and  N_5
REMARK    5  A    between atoms: N_14  and  C_33
REMARK    6  A    between atoms: C_15  and  C_17
REMARK    7  A    between atoms: C_17  and  O_18
REMARK    8  A    between atoms: O_18  and  C_19
REMARK    9  A    between atoms: C_19  and  C_21
REMARK   10  A    between atoms: C_21  and  C_23
REMARK   11  A    between atoms: C_21  and  O_24
REMARK   12  A    between atoms: O_24  and  C_25
REMARK   13  A    between atoms: C_30  and  C_31
REMARK   14  A    between atoms: C_33  and  C_34
REMARK   15  A    between atoms: C_34  and  C_35
REMARK                            x       y       z     vdW  Elec       q    Type
REMARK                         _______ _______ _______ _____ _____    ______ ____
ROOT
ATOM      1  N   UNL     1       1.109  -2.494  -2.011  0.00  0.00    -0.277 N 
ATOM      2  C   UNL     1       0.403  -2.620  -3.197  0.00  0.00    +0.169 A 
ATOM      3  C   UNL     1       1.107  -2.825  -4.377  0.00  0.00    +0.152 A 
ATOM      4  C   UNL     1       2.516  -2.898  -4.333  0.00  0.00    +0.280 A 
ATOM      5  O   UNL     1       3.156  -3.076  -5.355  0.00  0.00    -0.265 OA
ATOM      6  N   UNL     1       3.146  -2.767  -3.147  0.00  0.00    -0.273 N 
ATOM      7  H   UNL     1       4.114  -2.816  -3.113  0.00  0.00    +0.173 HD
ATOM      8  C   UNL     1       2.453  -2.564  -2.014  0.00  0.00    +0.331 A 
ATOM      9  O   UNL     1       3.055  -2.445  -0.964  0.00  0.00    -0.246 OA
ATOM     10  N   UNL     1       0.163  -2.913  -5.380  0.00  0.00    -0.319 N 
ATOM     11  C   UNL     1      -1.044  -2.764  -4.799  0.00  0.00    +0.151 A 
ATOM     12  N   UNL     1      -0.894  -2.591  -3.510  0.00  0.00    -0.211 NA
ENDROOT
BRANCH   1  13
ATOM     13  C   UNL     1       0.390  -2.277  -0.753  0.00  0.00    +0.128 C 
BRANCH  13  14
ATOM     14  C   UNL     1       0.214  -0.776  -0.518  0.00  0.00    +0.021 C 
BRANCH  14  16
ATOM     15  C   UNL     1      -0.712   0.952   1.031  0.00  0.00    +0.004 C 
ATOM     16  C   UNL     1      -0.536  -0.549   0.796  0.00  0.00    -0.002 C 
ENDBRANCH  14  16
ENDBRANCH  13  14
ENDBRANCH   1  13
BRANCH  11  17
ATOM     17  C   UNL     1      -2.365  -2.790  -5.523  0.00  0.00    +0.306 C 
BRANCH  17  18
ATOM     18  O   UNL     1      -2.857  -4.131  -5.566  0.00  0.00    -0.454 OA
BRANCH  18  19
ATOM     19  C   UNL     1      -4.034  -4.328  -6.182  0.00  0.00    +0.348 C 
ATOM     20  O   UNL     1      -4.626  -3.394  -6.668  0.00  0.00    -0.247 OA
BRANCH  19  21
ATOM     21  C   UNL     1      -4.616  -5.716  -6.267  0.00  0.00    +0.278 C 
ATOM     22  C   UNL     1      -4.957  -6.213  -4.860  0.00  0.00    +0.064 C 
BRANCH  21  23
ATOM     23  O   UNL     1      -5.803  -5.686  -7.062  0.00  0.00    -0.478 OA
BRANCH  23  24
ATOM     24  C   UNL     1      -6.166  -6.846  -7.672  0.00  0.00    +0.125 A 
ATOM     25  C   UNL     1      -5.462  -8.014  -7.419  0.00  0.00    +0.047 A 
ATOM     26  C   UNL     1      -5.832  -9.191  -8.039  0.00  0.00    +0.023 A 
ATOM     27  C   UNL     1      -6.905  -9.205  -8.913  0.00  0.00    +0.041 A 
ATOM     28  C   UNL     1      -7.609  -8.041  -9.167  0.00  0.00    +0.027 A 
ATOM     29  C   UNL     1      -7.245  -6.863  -8.543  0.00  0.00    -0.007 A 
ATOM     30  C   UNL     1      -8.016  -5.597  -8.815  0.00  0.00    +0.047 C 
ATOM     31 CL   UNL     1      -7.369 -10.686  -9.692  0.00  0.00    -0.084 Cl
ENDBRANCH  23  24
ENDBRANCH  21  23
ENDBRANCH  19  21
ENDBRANCH  18  19
ENDBRANCH  17  18
ENDBRANCH  11  17
BRANCH  10  32
ATOM     32  C   UNL     1       0.423  -3.126  -6.806  0.00  0.00    +0.123 C 
BRANCH  32  33
ATOM     33  C   UNL     1       0.434  -4.627  -7.103  0.00  0.00    +0.018 C 
ATOM     34  C   UNL     1       0.706  -4.850  -8.592  0.00  0.00    +0.005 C 
ENDBRANCH  32  33
ENDBRANCH  10  32
TORSDOF 11
