REMARK  Name = ZINC41583665
REMARK  7 active torsions:
REMARK  status: ('A' for Active; 'I' for Inactive)
REMARK    1  A    between atoms: C_1  and  C_2
REMARK    2  A    between atoms: C_4  and  O_32
REMARK    3  A    between atoms: C_5  and  C_21
REMARK    4  A    between atoms: C_11  and  C_12
REMARK    5  A    between atoms: C_21  and  N_22
REMARK    6  A    between atoms: C_24  and  C_31
REMARK    7  A    between atoms: C_27  and  C_30
REMARK                            x       y       z     vdW  Elec       q    Type
REMARK                         _______ _______ _______ _____ _____    ______ ____
ROOT
ATOM      1  C   UNL     1       1.079   1.377   0.035  0.00  0.00    +0.045 C 
ATOM      2  C   UNL     1       0.692  -0.080   0.017  0.00  0.00    -0.033 A 
ATOM      3  C   UNL     1       0.572  -0.741  -1.173  0.00  0.00    +0.050 A 
ATOM      4  C   UNL     1       0.215  -2.087  -1.192  0.00  0.00    +0.122 A 
ATOM      5  C   UNL     1      -0.022  -2.770  -0.010  0.00  0.00    +0.020 A 
ATOM      6  C   UNL     1       0.095  -2.112   1.208  0.00  0.00    +0.145 A 
ATOM      7  C   UNL     1       0.462  -0.756   1.215  0.00  0.00    +0.071 A 
ATOM      8  C   UNL     1       0.511  -0.346   2.630  0.00  0.00    +0.232 C 
ATOM      9  O   UNL     1       0.783   0.753   3.079  0.00  0.00    -0.283 OA
ATOM     10  C   UNL     1       0.156  -1.562   3.379  0.00  0.00    +0.176 C 
ATOM     11  C   UNL     1       0.068  -1.676   4.728  0.00  0.00    +0.058 C 
ATOM     12  O   UNL     1      -0.080  -2.543   2.476  0.00  0.00    -0.451 OA
ENDROOT
BRANCH  11  13
ATOM     13  C   UNL     1       0.169  -0.479   5.574  0.00  0.00    -0.020 A 
ATOM     14  C   UNL     1      -0.452   0.714   5.183  0.00  0.00    +0.009 A 
ATOM     15  C   UNL     1      -0.353   1.832   5.981  0.00  0.00    +0.022 A 
ATOM     16  C   UNL     1       0.358   1.780   7.169  0.00  0.00    +0.059 A 
ATOM     17  C   UNL     1       0.976   0.603   7.564  0.00  0.00    +0.060 A 
ATOM     18  C   UNL     1       0.881  -0.527   6.777  0.00  0.00    +0.029 A 
ATOM     19 CL   UNL     1       1.866   0.548   9.054  0.00  0.00    -0.082 Cl
ATOM     20 CL   UNL     1       0.477   3.194   8.169  0.00  0.00    -0.082 Cl
ENDBRANCH  11  13
BRANCH   4  21
ATOM     21  O   UNL     1       0.099  -2.735  -2.379  0.00  0.00    -0.506 OA
ATOM     22  H   UNL     1       0.918  -3.150  -2.683  0.00  0.00    +0.292 HD
ENDBRANCH   4  21
BRANCH   5  23
ATOM     23  C   UNL     1      -0.408  -4.226  -0.045  0.00  0.00    -0.036 C 
BRANCH  23  24
ATOM     24  N   UNL     1       0.804  -5.055   0.006  0.00  0.00    +0.383 N 
ATOM     25  C   UNL     1       1.603  -4.827  -1.204  0.00  0.00    -0.075 C 
ATOM     26  C   UNL     1       2.905  -5.626  -1.119  0.00  0.00    -0.031 C 
ATOM     27  C   UNL     1       2.575  -7.117  -0.997  0.00  0.00    +0.003 C 
ATOM     28  C   UNL     1       1.680  -7.333   0.227  0.00  0.00    -0.031 C 
ATOM     29  C   UNL     1       0.423  -6.470   0.092  0.00  0.00    -0.075 C 
ATOM     30  C   UNL     1       2.441  -6.934   1.493  0.00  0.00    +0.005 C 
ATOM     31  C   UNL     1       3.735  -5.387  -2.382  0.00  0.00    +0.005 C 
ATOM     32  H   UNL     1       1.348  -4.804   0.818  0.00  0.00    -0.081 HD
ENDBRANCH  23  24
ENDBRANCH   5  23
TORSDOF 4
