REMARK  Name = ZINC19116893
REMARK  7 active torsions:
REMARK  status: ('A' for Active; 'I' for Inactive)
REMARK    1  A    between atoms: C_1  and  C_2
REMARK    2  A    between atoms: C_4  and  C_26
REMARK    3  A    between atoms: C_9  and  C_11
REMARK    4  A    between atoms: C_16  and  C_17
REMARK    5  A    between atoms: C_16  and  N_49
REMARK    6  A    between atoms: C_20  and  O_24
REMARK    7  A    between atoms: O_24  and  C_25
REMARK                            x       y       z     vdW  Elec       q    Type
REMARK                         _______ _______ _______ _____ _____    ______ ____
ROOT
ATOM      1  C   UNL     1      -2.060   2.789   0.777  0.00  0.00    -0.016 C 
ATOM      2  C   UNL     1      -1.467   1.539   1.478  0.00  0.00    -0.011 C 
ATOM      3  C   UNL     1      -0.498   0.975   0.414  0.00  0.00    -0.020 C 
ATOM      4  C   UNL     1      -0.998   1.541  -0.928  0.00  0.00    -0.077 C 
ATOM      5  N   UNL     1      -2.186   2.336  -0.618  0.00  0.00    +0.388 N 
ATOM      6  H   UNL     1      -3.028   1.757  -0.720  0.00  0.00    -0.080 HD
ENDROOT
BRANCH   1  15
ATOM      7  C   UNL     1      -7.857   5.381   4.553  0.00  0.00    +0.066 C 
ATOM      8  C   UNL     1      -7.040   4.615   3.546  0.00  0.00    +0.043 A 
ATOM      9  C   UNL     1      -7.678   3.772   2.625  0.00  0.00    +0.055 A 
ATOM     10  C   UNL     1      -6.936   3.086   1.722  0.00  0.00    +0.149 A 
ATOM     11  N   UNL     1      -5.578   3.232   1.730  0.00  0.00    -0.210 N 
ATOM     12  C   UNL     1      -4.988   4.066   2.646  0.00  0.00    +0.156 A 
ATOM     13  N   UNL     1      -5.733   4.739   3.533  0.00  0.00    -0.233 NA
ATOM     14  C   UNL     1      -3.619   4.009   2.420  0.00  0.00    +0.071 A 
ATOM     15  C   UNL     1      -3.404   3.143   1.359  0.00  0.00    +0.052 A 
ATOM     16  N   UNL     1      -4.561   2.676   0.947  0.00  0.00    -0.171 NA
BRANCH  10  17
ATOM     17  C   UNL     1      -7.599   2.174   0.722  0.00  0.00    +0.434 C 
ATOM     18  F   UNL     1      -7.701   0.887   1.261  0.00  0.00    -0.164 F 
ATOM     19  F   UNL     1      -8.878   2.659   0.426  0.00  0.00    -0.164 F 
ATOM     20  F   UNL     1      -6.835   2.131  -0.448  0.00  0.00    -0.164 F 
ENDBRANCH  10  17
ENDBRANCH   1  15
BRANCH   5  21
ATOM     21  C   UNL     1      -2.285   3.509  -1.538  0.00  0.00    -0.039 C 
BRANCH  21  22
ATOM     22  C   UNL     1      -2.498   3.029  -2.951  0.00  0.00    -0.028 A 
ATOM     23  C   UNL     1      -1.456   3.071  -3.858  0.00  0.00    +0.008 A 
ATOM     24  C   UNL     1      -1.647   2.628  -5.153  0.00  0.00    +0.046 A 
ATOM     25  C   UNL     1      -2.888   2.150  -5.546  0.00  0.00    +0.123 A 
ATOM     26  C   UNL     1      -3.935   2.113  -4.638  0.00  0.00    +0.084 A 
ATOM     27  C   UNL     1      -3.739   2.553  -3.340  0.00  0.00    +0.128 A 
ATOM     28  F   UNL     1      -4.757   2.517  -2.453  0.00  0.00    -0.205 F 
BRANCH  25  29
ATOM     29  O   UNL     1      -3.079   1.719  -6.821  0.00  0.00    -0.495 OA
ATOM     30  C   UNL     1      -1.956   1.786  -7.703  0.00  0.00    +0.277 C 
ENDBRANCH  25  29
ENDBRANCH  21  22
ENDBRANCH   5  21
TORSDOF 5
