REMARK  Name = ZINC02338396
REMARK  9 active torsions:
REMARK  status: ('A' for Active; 'I' for Inactive)
REMARK    1  A    between atoms: C_1  and  C_2
REMARK    2  A    between atoms: C_2  and  C_3
REMARK    3  A    between atoms: C_3  and  O_4
REMARK    4  A    between atoms: O_4  and  C_5
REMARK    5  A    between atoms: C_8  and  C_11
REMARK    6  A    between atoms: C_12  and  C_22
REMARK    7  A    between atoms: N_24  and  N_25
REMARK    8  A    between atoms: C_26  and  C_27
REMARK    9  A    between atoms: C_28  and  C_29
REMARK                            x       y       z     vdW  Elec       q    Type
REMARK                         _______ _______ _______ _____ _____    ______ ____
ROOT
ATOM      1  C   UNL     1      -5.238   9.603   0.085  0.00  0.00    +0.109 A 
ATOM      2  C   UNL     1      -5.079   8.221   0.071  0.00  0.00    +0.177 A 
ATOM      3  N   UNL     1      -6.300   7.660   0.074  0.00  0.00    -0.124 NA
ATOM      4  N   UNL     1      -7.206   8.573   0.084  0.00  0.00    -0.058 NA
ATOM      5  N   UNL     1      -6.586   9.831   0.088  0.00  0.00    -0.187 N 
ATOM      6  C   UNL     1      -7.222  11.075   0.099  0.00  0.00    +0.241 A 
ATOM      7  C   UNL     1      -8.671  11.298   0.107  0.00  0.00    +0.206 A 
ATOM      8  N   UNL     1      -8.888  12.585   0.116  0.00  0.00    -0.032 NA
ATOM      9  O   UNL     1      -7.631  13.237   0.114  0.00  0.00    -0.239 OA
ATOM     10  N   UNL     1      -6.629  12.236   0.108  0.00  0.00    -0.027 NA
ATOM     11  N   UNL     1      -9.647  10.308   0.106  0.00  0.00    -0.337 N 
ATOM     12  H   UNL     1      -9.389   9.373   0.099  0.00  0.00    +0.144 HD
ATOM     13  H   UNL     1     -10.586  10.552   0.113  0.00  0.00    +0.144 HD
ENDROOT
BRANCH   1  17
ATOM     14  C   UNL     1      -2.156  12.524   0.104  0.00  0.00    +0.121 A 
ATOM     15  C   UNL     1      -2.071  11.422   0.945  0.00  0.00    +0.046 A 
ATOM     16  C   UNL     1      -3.068  10.472   0.942  0.00  0.00    +0.013 A 
ATOM     17  C   UNL     1      -4.167  10.618   0.092  0.00  0.00    +0.003 A 
ATOM     18  C   UNL     1      -4.247  11.726  -0.756  0.00  0.00    +0.013 A 
ATOM     19  C   UNL     1      -3.247  12.674  -0.743  0.00  0.00    +0.046 A 
BRANCH  14  20
ATOM     20  O   UNL     1      -1.170  13.458   0.110  0.00  0.00    -0.492 OA
BRANCH  20  21
ATOM     21  C   UNL     1      -1.321  14.566  -0.780  0.00  0.00    +0.229 C 
BRANCH  21  23
ATOM     22  C   UNL     1      -0.283  16.692  -1.585  0.00  0.00    +0.007 C 
ATOM     23  C   UNL     1      -0.122  15.505  -0.633  0.00  0.00    +0.038 C 
ENDBRANCH  21  23
ENDBRANCH  20  21
ENDBRANCH  14  20
ENDBRANCH   1  17
BRANCH   2  24
ATOM     24  C   UNL     1      -3.798   7.499   0.061  0.00  0.00    +0.286 C 
ATOM     25  O   UNL     1      -2.751   8.118   0.059  0.00  0.00    -0.267 OA
ATOM     26  N   UNL     1      -3.784   6.151   0.053  0.00  0.00    -0.202 N 
ATOM     27  H   UNL     1      -4.618   5.657   0.055  0.00  0.00    +0.178 HD
BRANCH  26  28
ATOM     28  N   UNL     1      -2.563   5.463   0.044  0.00  0.00    -0.188 NA
ATOM     29  C   UNL     1      -2.549   4.161   0.037  0.00  0.00    +0.130 C 
BRANCH  29  30
ATOM     30  C   UNL     1      -1.314   3.465   0.027  0.00  0.00    +0.022 C 
ATOM     31  C   UNL     1      -1.299   2.116   0.020  0.00  0.00    +0.009 C 
BRANCH  31  32
ATOM     32  C   UNL     1      -0.017   1.394   0.010  0.00  0.00    -0.025 A 
ATOM     33  C   UNL     1       1.189   2.103   0.002  0.00  0.00    +0.008 A 
ATOM     34  C   UNL     1       2.386   1.419  -0.013  0.00  0.00    +0.001 A 
ATOM     35  C   UNL     1       2.397   0.035  -0.021  0.00  0.00    +0.000 A 
ATOM     36  C   UNL     1       1.208  -0.673  -0.013  0.00  0.00    +0.001 A 
ATOM     37  C   UNL     1       0.002  -0.004   0.002  0.00  0.00    +0.008 A 
ENDBRANCH  31  32
ENDBRANCH  29  30
ENDBRANCH  26  28
ENDBRANCH   2  24
TORSDOF 8
