REMARK  Name = ZINC65383427
REMARK  4 active torsions:
REMARK  status: ('A' for Active; 'I' for Inactive)
REMARK    1  A    between atoms: C_1  and  C_2
REMARK    2  A    between atoms: C_4  and  N_9
REMARK    3  A    between atoms: C_19  and  N_21
REMARK    4  A    between atoms: C_24  and  O_27
REMARK                            x       y       z     vdW  Elec       q    Type
REMARK                         _______ _______ _______ _____ _____    ______ ____
ROOT
ATOM      1  N   UNL     1       0.030  -2.826  -2.330  0.00  0.00    -0.312 N 
ATOM      2  C   UNL     1       0.044  -4.295  -2.293  0.00  0.00    +0.125 C 
ATOM      3  C   UNL     1      -1.147  -4.818  -3.106  0.00  0.00    +0.127 C 
ATOM      4  N   UNL     1      -1.157  -4.142  -4.411  0.00  0.00    -0.297 N 
ATOM      5  C   UNL     1      -1.172  -2.673  -4.448  0.00  0.00    +0.127 C 
ATOM      6  C   UNL     1       0.013  -2.151  -3.635  0.00  0.00    +0.125 C 
ATOM      7  C   UNL     1      -1.153  -4.876  -5.584  0.00  0.00    +0.220 A 
ATOM      8  N   UNL     1      -1.145  -6.199  -5.518  0.00  0.00    -0.223 NA
ATOM      9  C   UNL     1      -1.142  -6.936  -6.619  0.00  0.00    +0.118 A 
ATOM     10  C   UNL     1      -1.146  -6.311  -7.851  0.00  0.00    +0.063 A 
ATOM     11  C   UNL     1      -1.155  -4.915  -7.889  0.00  0.00    +0.126 A 
ATOM     12  N   UNL     1      -1.163  -4.239  -6.745  0.00  0.00    -0.199 NA
ENDROOT
BRANCH   1  16
ATOM     13  C   UNL     1       0.421   1.475   0.029  0.00  0.00    +0.063 C 
ATOM     14  C   UNL     1       0.211  -0.017   0.011  0.00  0.00    +0.019 A 
ATOM     15  C   UNL     1       0.224  -0.709  -1.184  0.00  0.00    +0.064 A 
ATOM     16  C   UNL     1       0.026  -2.091  -1.156  0.00  0.00    +0.127 A 
ATOM     17  N   UNL     1      -0.168  -2.691   0.014  0.00  0.00    -0.201 NA
ATOM     18  C   UNL     1      -0.173  -1.991   1.139  0.00  0.00    +0.192 A 
ATOM     19  N   UNL     1       0.018  -0.680   1.142  0.00  0.00    -0.332 N 
ATOM     20  N   UNL     1      -0.377  -2.646   2.340  0.00  0.00    -0.329 N 
ATOM     21  H   UNL     1      -0.514  -3.607   2.352  0.00  0.00    +0.145 HD
ATOM     22  H   UNL     1      -0.382  -2.145   3.171  0.00  0.00    +0.145 HD
ATOM     23  H   UNL     1       0.012  -0.198   1.984  0.00  0.00    +0.168 HD
ENDBRANCH   1  16
BRANCH  11  24
ATOM     24  N   UNL     1      -1.160  -4.245  -9.102  0.00  0.00    -0.313 N 
ATOM     25  C   UNL     1      -1.058  -2.785  -9.277  0.00  0.00    +0.109 C 
ATOM     26  C   UNL     1      -0.493  -2.596 -10.707  0.00  0.00    +0.052 C 
ATOM     27  C   UNL     1      -1.201  -3.743 -11.476  0.00  0.00    +0.133 C 
ATOM     28  C   UNL     1      -1.261  -4.873 -10.427  0.00  0.00    +0.137 C 
BRANCH  27  29
ATOM     29  O   UNL     1      -0.429  -4.144 -12.609  0.00  0.00    -0.390 OA
ATOM     30  H   UNL     1      -0.295  -3.443 -13.262  0.00  0.00    +0.210 HD
ENDBRANCH  27  29
ENDBRANCH  11  24
TORSDOF 3
