REMARK  Name = ZINC34830174
REMARK  7 active torsions:
REMARK  status: ('A' for Active; 'I' for Inactive)
REMARK    1  A    between atoms: C_1  and  C_2
REMARK    2  A    between atoms: C_5  and  C_8
REMARK    3  A    between atoms: N_17  and  C_18
REMARK    4  A    between atoms: C_18  and  C_19
REMARK    5  A    between atoms: C_19  and  C_20
REMARK    6  A    between atoms: C_26  and  C_29
REMARK    7  A    between atoms: C_30  and  C_32
REMARK                            x       y       z     vdW  Elec       q    Type
REMARK                         _______ _______ _______ _____ _____    ______ ____
ROOT
ATOM      1  C   UNL     1       3.554  -6.059   1.931  0.00  0.00    +0.077 C 
ENDROOT
BRANCH   1   2
ATOM      2  C   UNL     1       4.960  -5.635   1.592  0.00  0.00    +0.214 C 
ATOM      3  O   UNL     1       5.253  -5.367   0.446  0.00  0.00    -0.276 OA
ATOM      4  N   UNL     1       5.891  -5.553   2.563  0.00  0.00    -0.298 N 
ATOM      5  C   UNL     1       5.552  -5.881   3.954  0.00  0.00    +0.127 C 
ATOM      6  C   UNL     1       5.916  -4.684   4.842  0.00  0.00    +0.127 C 
ATOM      7  N   UNL     1       7.290  -4.267   4.527  0.00  0.00    -0.292 N 
ATOM      8  C   UNL     1       7.629  -3.940   3.136  0.00  0.00    +0.091 C 
ATOM      9  C   UNL     1       7.266  -5.142   2.247  0.00  0.00    +0.130 C 
ATOM     10  C   UNL     1       6.840  -2.707   2.691  0.00  0.00    +0.029 C 
ATOM     11  C   UNL     1       8.221  -4.186   5.498  0.00  0.00    +0.247 C 
ATOM     12  O   UNL     1       7.911  -4.385   6.656  0.00  0.00    -0.270 OA
BRANCH  11  13
ATOM     13  C   UNL     1       9.620  -3.854   5.154  0.00  0.00    +0.040 A 
ATOM     14  C   UNL     1       9.903  -2.725   4.383  0.00  0.00    +0.013 A 
ATOM     15  C   UNL     1      11.210  -2.420   4.065  0.00  0.00    +0.004 A 
ATOM     16  C   UNL     1      12.241  -3.229   4.508  0.00  0.00    +0.038 A 
ATOM     17  C   UNL     1      11.969  -4.351   5.274  0.00  0.00    +0.124 A 
ATOM     18  C   UNL     1      10.663  -4.664   5.604  0.00  0.00    +0.051 A 
ATOM     19  F   UNL     1      12.980  -5.137   5.703  0.00  0.00    -0.205 F 
ENDBRANCH  11  13
ENDBRANCH   1   2
BRANCH   1  20
ATOM     20  C   UNL     1       2.704  -6.068   0.659  0.00  0.00    -0.068 C 
BRANCH  20  29
ATOM     21  C   UNL     1       0.494  -6.374  -0.211  0.00  0.00    -0.006 C 
ATOM     22  C   UNL     1      -0.900  -6.902   0.113  0.00  0.00    -0.047 A 
ATOM     23  C   UNL     1      -2.038  -6.606  -0.632  0.00  0.00    +0.010 A 
ATOM     24  C   UNL     1      -3.238  -7.118  -0.269  0.00  0.00    +0.045 A 
ATOM     25  S   UNL     1      -2.808  -8.068   1.183  0.00  0.00    -0.101 S 
ATOM     26  C   UNL     1      -1.075  -7.715   1.193  0.00  0.00    -0.010 A 
ATOM     27  C   UNL     1      -0.012  -8.175   2.137  0.00  0.00    +0.024 C 
ATOM     28  C   UNL     1       1.349  -7.862   1.492  0.00  0.00    -0.072 C 
ATOM     29  N   UNL     1       1.333  -6.481   0.989  0.00  0.00    +0.388 N 
ATOM     30  H   UNL     1       0.967  -5.873   1.705  0.00  0.00    -0.080 HD
BRANCH  21  35
ATOM     31  C   UNL     1       0.138  -0.841  -1.839  0.00  0.00    +0.044 C 
ATOM     32  C   UNL     1       0.231  -2.284  -1.415  0.00  0.00    -0.050 A 
ATOM     33  C   UNL     1       0.354  -3.278  -2.367  0.00  0.00    +0.003 A 
ATOM     34  C   UNL     1       0.440  -4.602  -1.977  0.00  0.00    +0.002 A 
ATOM     35  C   UNL     1       0.402  -4.931  -0.635  0.00  0.00    -0.057 A 
ATOM     36  C   UNL     1       0.280  -3.937   0.317  0.00  0.00    +0.002 A 
ATOM     37  C   UNL     1       0.199  -2.613  -0.072  0.00  0.00    +0.003 A 
ENDBRANCH  21  35
ENDBRANCH  20  29
ENDBRANCH   1  20
TORSDOF 5
