REMARK  Name = ZINC40014534
REMARK  14 active torsions:
REMARK  status: ('A' for Active; 'I' for Inactive)
REMARK    1  A    between atoms: C_1  and  C_2
REMARK    2  A    between atoms: C_2  and  N_3
REMARK    3  A    between atoms: N_3  and  C_4
REMARK    4  A    between atoms: N_3  and  C_6
REMARK    5  A    between atoms: C_4  and  C_5
REMARK    6  A    between atoms: C_6  and  C_7
REMARK    7  A    between atoms: C_7  and  C_8
REMARK    8  A    between atoms: C_8  and  N_9
REMARK    9  A    between atoms: C_10  and  C_26
REMARK   10  A    between atoms: C_29  and  O_34
REMARK   11  A    between atoms: C_30  and  O_32
REMARK   12  A    between atoms: O_32  and  C_33
REMARK   13  A    between atoms: O_34  and  C_35
REMARK   14  A    between atoms: C_35  and  C_36
REMARK                            x       y       z     vdW  Elec       q    Type
REMARK                         _______ _______ _______ _____ _____    ______ ____
ROOT
ATOM      1  N   UNL     1       2.127  -4.548  -3.841  0.00  0.00    -0.284 N 
ATOM      2  C   UNL     1       1.661  -4.679  -5.231  0.00  0.00    +0.145 C 
ATOM      3  C   UNL     1       2.827  -5.199  -6.005  0.00  0.00    +0.072 A 
ATOM      4  C   UNL     1       2.971  -5.537  -7.425  0.00  0.00    +0.199 A 
ATOM      5  O   UNL     1       2.132  -5.263  -8.265  0.00  0.00    -0.287 OA
ATOM      6  C   UNL     1       4.238  -6.245  -7.742  0.00  0.00    +0.067 A 
ATOM      7  C   UNL     1       4.435  -6.808  -9.003  0.00  0.00    +0.053 A 
ATOM      8  C   UNL     1       5.615  -7.465  -9.278  0.00  0.00    +0.124 A 
ATOM      9  C   UNL     1       6.600  -7.565  -8.302  0.00  0.00    +0.042 A 
ATOM     10  C   UNL     1       6.415  -7.011  -7.055  0.00  0.00    +0.050 A 
ATOM     11  C   UNL     1       5.231  -6.338  -6.754  0.00  0.00    +0.140 A 
ATOM     12  O   UNL     1       5.081  -5.795  -5.524  0.00  0.00    -0.450 OA
ATOM     13  C   UNL     1       3.871  -5.347  -5.137  0.00  0.00    +0.199 A 
ATOM     14  C   UNL     1       3.418  -4.935  -3.796  0.00  0.00    +0.283 C 
ATOM     15  O   UNL     1       4.107  -4.945  -2.796  0.00  0.00    -0.267 OA
ATOM     16  F   UNL     1       5.815  -8.014 -10.496  0.00  0.00    -0.205 F 
ENDROOT
BRANCH   2  17
ATOM     17  C   UNL     1       1.237  -3.335  -5.766  0.00  0.00    -0.019 A 
ATOM     18  C   UNL     1       1.978  -2.208  -5.464  0.00  0.00    +0.009 A 
ATOM     19  C   UNL     1       1.594  -0.973  -5.953  0.00  0.00    +0.050 A 
ATOM     20  C   UNL     1       0.464  -0.863  -6.747  0.00  0.00    +0.162 A 
ATOM     21  C   UNL     1      -0.282  -1.998  -7.051  0.00  0.00    +0.162 A 
ATOM     22  C   UNL     1       0.111  -3.233  -6.562  0.00  0.00    +0.055 A 
BRANCH  21  23
ATOM     23  O   UNL     1      -1.392  -1.895  -7.830  0.00  0.00    -0.491 OA
ATOM     24  C   UNL     1      -2.108  -3.101  -8.101  0.00  0.00    +0.277 C 
ENDBRANCH  21  23
BRANCH  20  25
ATOM     25  O   UNL     1       0.084   0.351  -7.227  0.00  0.00    -0.484 OA
BRANCH  25  26
ATOM     26  C   UNL     1       0.897   1.472  -6.874  0.00  0.00    +0.256 C 
BRANCH  26  27
ATOM     27  C   UNL     1       0.326   2.722  -7.492  0.00  0.00    +0.006 C 
ATOM     28  C   UNL     1       0.221   3.816  -6.780  0.00  0.00    +0.007 C 
ENDBRANCH  26  27
ENDBRANCH  25  26
ENDBRANCH  20  25
ENDBRANCH   2  17
BRANCH   1  29
ATOM     29  C   UNL     1       1.330  -4.075  -2.707  0.00  0.00    +0.107 C 
BRANCH  29  30
ATOM     30  C   UNL     1       1.469  -2.556  -2.585  0.00  0.00    +0.000 C 
BRANCH  30  31
ATOM     31  C   UNL     1       0.636  -2.062  -1.400  0.00  0.00    -0.077 C 
BRANCH  31  32
ATOM     32  N   UNL     1       0.866  -0.623  -1.207  0.00  0.00    +0.379 N 
ATOM     33  H   UNL     1       1.855  -0.451  -1.106  0.00  0.00    -0.082 HD
BRANCH  32  35
ATOM     34  C   UNL     1       0.706   1.597  -2.227  0.00  0.00    -0.017 C 
ATOM     35  C   UNL     1       0.357   0.115  -2.370  0.00  0.00    -0.082 C 
ENDBRANCH  32  35
BRANCH  32  36
ATOM     36  C   UNL     1       0.165  -0.174   0.003  0.00  0.00    -0.082 C 
ATOM     37  C   UNL     1       0.801  -0.825   1.233  0.00  0.00    -0.017 C 
ENDBRANCH  32  36
ENDBRANCH  31  32
ENDBRANCH  30  31
ENDBRANCH  29  30
ENDBRANCH   1  29
TORSDOF 11
