REMARK  Name = ZINC23277654
REMARK  13 active torsions:
REMARK  status: ('A' for Active; 'I' for Inactive)
REMARK    1  A    between atoms: C_1  and  C_2
REMARK    2  A    between atoms: C_7  and  N_8
REMARK    3  A    between atoms: C_9  and  C_11
REMARK    4  A    between atoms: C_11  and  C_13
REMARK    5  A    between atoms: C_11  and  O_14
REMARK    6  A    between atoms: O_14  and  C_15
REMARK    7  A    between atoms: C_15  and  C_17
REMARK    8  A    between atoms: C_21  and  S_23
REMARK    9  A    between atoms: S_23  and  N_26
REMARK   10  A    between atoms: N_26  and  C_27
REMARK   11  A    between atoms: C_27  and  C_28
REMARK   12  A    between atoms: C_27  and  C_29
REMARK   13  A    between atoms: C_27  and  C_30
REMARK                            x       y       z     vdW  Elec       q    Type
REMARK                         _______ _______ _______ _____ _____    ______ ____
ROOT
ATOM      1  C   UNL     1      -1.199  -0.331   0.377  0.00  0.00    +0.340 C 
ATOM      2  O   UNL     1      -2.210   0.341   0.422  0.00  0.00    -0.245 OA
ENDROOT
BRANCH   1   3
ATOM      3  C   UNL     1       0.115   0.323   0.214  0.00  0.00    +0.061 A 
ATOM      4  C   UNL     1       1.280  -0.447   0.162  0.00  0.00    +0.016 A 
ATOM      5  C   UNL     1       2.503   0.168   0.009  0.00  0.00    +0.023 A 
ATOM      6  C   UNL     1       2.580   1.548  -0.091  0.00  0.00    +0.067 A 
ATOM      7  C   UNL     1       1.430   2.317  -0.040  0.00  0.00    +0.124 A 
ATOM      8  C   UNL     1       0.199   1.713   0.112  0.00  0.00    +0.045 A 
ATOM      9 CL   UNL     1       4.125   2.316  -0.283  0.00  0.00    -0.082 Cl
BRANCH   7  10
ATOM     10  S   UNL     1       1.538   4.071  -0.169  0.00  0.00    +0.060 S 
ATOM     11  O   UNL     1       2.342   4.345  -1.308  0.00  0.00    -0.153 OA
ATOM     12  O   UNL     1       0.214   4.571  -0.032  0.00  0.00    -0.153 OA
BRANCH  10  13
ATOM     13  N   UNL     1       2.385   4.608   1.148  0.00  0.00    -0.185 NA
ATOM     14  H   UNL     1       3.293   5.209   0.995  0.00  0.00    +0.149 HD
BRANCH  13  15
ATOM     15  C   UNL     1       1.815   4.472   2.491  0.00  0.00    +0.032 C 
ATOM     16  C   UNL     1       1.667   2.988   2.834  0.00  0.00    +0.029 C 
ATOM     17  C   UNL     1       2.741   5.140   3.509  0.00  0.00    +0.029 C 
ATOM     18  C   UNL     1       0.442   5.144   2.533  0.00  0.00    +0.029 C 
ENDBRANCH  13  15
ENDBRANCH  10  13
ENDBRANCH   7  10
ENDBRANCH   1   3
BRANCH   1  19
ATOM     19  O   UNL     1      -1.277  -1.672   0.475  0.00  0.00    -0.449 OA
BRANCH  19  20
ATOM     20  C   UNL     1      -2.601  -2.246   0.633  0.00  0.00    +0.259 C 
ATOM     21  C   UNL     1      -3.195  -2.545  -0.745  0.00  0.00    +0.062 C 
BRANCH  20  23
ATOM     22  N   UNL     1      -3.616  -4.234   1.699  0.00  0.00    -0.282 N 
ATOM     23  C   UNL     1      -2.504  -3.523   1.426  0.00  0.00    +0.258 C 
ATOM     24  O   UNL     1      -1.424  -3.912   1.819  0.00  0.00    -0.271 OA
ATOM     25  H   UNL     1      -4.604  -3.838   1.419  0.00  0.00    +0.155 HD
BRANCH  22  32
ATOM     26  C   UNL     1      -5.859  -5.172   3.176  0.00  0.00    +0.045 C 
ATOM     27  C   UNL     1      -4.586  -5.971   3.068  0.00  0.00    -0.029 A 
ATOM     28  C   UNL     1      -4.485  -7.199   3.693  0.00  0.00    +0.006 A 
ATOM     29  C   UNL     1      -3.315  -7.930   3.600  0.00  0.00    +0.020 A 
ATOM     30  C   UNL     1      -2.244  -7.437   2.875  0.00  0.00    +0.043 A 
ATOM     31  C   UNL     1      -2.341  -6.211   2.243  0.00  0.00    +0.043 A 
ATOM     32  C   UNL     1      -3.515  -5.475   2.336  0.00  0.00    +0.038 A 
ATOM     33 CL   UNL     1      -0.777  -8.358   2.760  0.00  0.00    -0.083 Cl
ENDBRANCH  22  32
ENDBRANCH  20  23
ENDBRANCH  19  20
ENDBRANCH   1  19
TORSDOF 8
