REMARK  Name = ZINC39773347
REMARK  9 active torsions:
REMARK  status: ('A' for Active; 'I' for Inactive)
REMARK    1  A    between atoms: C_1  and  C_2
REMARK    2  A    between atoms: C_2  and  C_3
REMARK    3  A    between atoms: C_2  and  C_4
REMARK    4  A    between atoms: C_2  and  C_5
REMARK    5  A    between atoms: C_8  and  C_11
REMARK    6  A    between atoms: C_15  and  S_19
REMARK    7  A    between atoms: N_17  and  C_18
REMARK    8  A    between atoms: S_19  and  C_20
REMARK    9  A    between atoms: C_20  and  C_21
REMARK                            x       y       z     vdW  Elec       q    Type
REMARK                         _______ _______ _______ _____ _____    ______ ____
ROOT
ATOM      1  C   UNL     1       2.707  -1.868  -4.752  0.00  0.00    +0.049 C 
ATOM      2  N   UNL     1       1.753  -1.969  -5.888  0.00  0.00    -0.267 NA
ATOM      3  N   UNL     1       2.628  -1.868  -7.066  0.00  0.00    -0.262 NA
ATOM      4  C   UNL     1       3.655  -0.873  -6.681  0.00  0.00    +0.077 C 
ATOM      5  N   UNL     1       3.709  -0.874  -5.202  0.00  0.00    +0.409 N 
ATOM      6  C   UNL     1       5.049  -1.266  -4.744  0.00  0.00    -0.090 C 
ATOM      7  H   UNL     1       1.267  -2.853  -5.874  0.00  0.00    +0.139 HD
ATOM      8  H   UNL     1       3.051  -2.759  -7.280  0.00  0.00    +0.140 HD
ATOM      9  H   UNL     1       3.474   0.040  -4.846  0.00  0.00    -0.076 HD
ENDROOT
BRANCH   1  13
ATOM     10  C   UNL     1       0.707  -0.490  -1.238  0.00  0.00    -0.042 A 
ATOM     11  C   UNL     1       0.036  -1.284  -2.148  0.00  0.00    +0.004 A 
ATOM     12  C   UNL     1       0.683  -1.730  -3.286  0.00  0.00    +0.003 A 
ATOM     13  C   UNL     1       2.001  -1.381  -3.513  0.00  0.00    -0.046 A 
ATOM     14  C   UNL     1       2.672  -0.586  -2.603  0.00  0.00    +0.003 A 
ATOM     15  C   UNL     1       2.024  -0.137  -1.467  0.00  0.00    +0.004 A 
BRANCH  10  17
ATOM     16  C   UNL     1      -0.019   1.526   0.010  0.00  0.00    +0.015 C 
ATOM     17  C   UNL     1       0.002  -0.004   0.002  0.00  0.00    -0.013 C 
ATOM     18  C   UNL     1       0.742  -0.511   1.242  0.00  0.00    +0.015 C 
ATOM     19  C   UNL     1      -1.433  -0.534   0.013  0.00  0.00    +0.015 C 
ENDBRANCH  10  17
ENDBRANCH   1  13
BRANCH   4  20
ATOM     20  S   UNL     1       3.185   0.771  -7.288  0.00  0.00    -0.152 S 
BRANCH  20  21
ATOM     21  C   UNL     1       1.571   1.078  -6.519  0.00  0.00    +0.143 C 
BRANCH  21  22
ATOM     22  C   UNL     1       1.060   2.430  -6.947  0.00  0.00    +0.120 A 
ATOM     23  N   UNL     1      -0.141   2.846  -6.468  0.00  0.00    -0.310 N 
ATOM     24  H   UNL     1      -0.643   2.273  -5.867  0.00  0.00    +0.170 HD
ATOM     25  C   UNL     1      -0.643   4.052  -6.821  0.00  0.00    +0.259 A 
ATOM     26  O   UNL     1      -1.718   4.438  -6.399  0.00  0.00    -0.267 OA
ATOM     27  C   UNL     1       0.160   4.879  -7.734  0.00  0.00    +0.065 A 
ATOM     28  C   UNL     1      -0.267   6.135  -8.159  0.00  0.00    +0.015 A 
ATOM     29  C   UNL     1       0.525   6.867  -9.015  0.00  0.00    +0.001 A 
ATOM     30  C   UNL     1       1.742   6.364  -9.457  0.00  0.00    +0.002 A 
ATOM     31  C   UNL     1       2.182   5.124  -9.049  0.00  0.00    +0.028 A 
ATOM     32  C   UNL     1       1.397   4.363  -8.181  0.00  0.00    +0.078 A 
ATOM     33  N   UNL     1       1.794   3.140  -7.749  0.00  0.00    -0.233 NA
ENDBRANCH  21  22
ENDBRANCH  20  21
ENDBRANCH   4  20
TORSDOF 5
