REMARK  Name = ZINC14461336
REMARK  6 active torsions:
REMARK  status: ('A' for Active; 'I' for Inactive)
REMARK    1  A    between atoms: C_4  and  C_7
REMARK    2  A    between atoms: C_7  and  C_8
REMARK    3  A    between atoms: C_8  and  C_9
REMARK    4  A    between atoms: N_11  and  C_12
REMARK    5  A    between atoms: C_25  and  C_28
REMARK    6  A    between atoms: C_33  and  O_34
REMARK                            x       y       z     vdW  Elec       q    Type
REMARK                         _______ _______ _______ _____ _____    ______ ____
ROOT
ATOM      1  C   UNL     1       2.729   9.589   0.725  0.00  0.00    +0.034 A 
ATOM      2  C   UNL     1       3.502   8.733  -0.048  0.00  0.00    +0.025 A 
ATOM      3  C   UNL     1       2.996   7.513  -0.445  0.00  0.00    +0.025 A 
ATOM      4  C   UNL     1       1.712   7.129  -0.076  0.00  0.00    +0.031 A 
ATOM      5  C   UNL     1       0.932   8.000   0.693  0.00  0.00    -0.018 A 
ATOM      6  C   UNL     1       1.443   9.216   1.091  0.00  0.00    +0.029 A 
ATOM      7  C   UNL     1      -0.436   7.561   1.044  0.00  0.00    +0.049 C 
ATOM      8  C   UNL     1      -1.135   8.065   2.254  0.00  0.00    -0.023 C 
ATOM      9  C   UNL     1      -1.944   7.114   2.704  0.00  0.00    -0.030 C 
ATOM     10  C   UNL     1      -1.820   5.865   1.829  0.00  0.00    +0.033 C 
ATOM     11  C   UNL     1      -0.400   6.020   1.270  0.00  0.00    +0.029 C 
ATOM     12  C   UNL     1      -0.124   5.417  -0.096  0.00  0.00    +0.108 C 
ATOM     13  N   UNL     1       1.236   5.868  -0.463  0.00  0.00    -0.336 N 
ATOM     14  H   UNL     1       1.810   5.281  -0.981  0.00  0.00    +0.147 HD
ENDROOT
BRANCH  12  15
ATOM     15  C   UNL     1      -0.171   3.913  -0.021  0.00  0.00    +0.015 A 
ATOM     16  C   UNL     1       0.995   3.193   0.158  0.00  0.00    +0.024 A 
ATOM     17  C   UNL     1       0.952   1.812   0.228  0.00  0.00    +0.018 A 
ATOM     18  C   UNL     1      -0.257   1.149   0.118  0.00  0.00    +0.019 A 
ATOM     19  C   UNL     1      -1.424   1.865  -0.066  0.00  0.00    +0.047 A 
ATOM     20  C   UNL     1      -1.384   3.250  -0.130  0.00  0.00    +0.122 A 
ATOM     21 BR   UNL     1       2.549   0.829   0.473  0.00  0.00    -0.050 Br
BRANCH  20  22
ATOM     22  O   UNL     1      -2.532   3.956  -0.306  0.00  0.00    -0.506 OA
ATOM     23  H   UNL     1      -2.759   4.114  -1.232  0.00  0.00    +0.292 HD
ENDBRANCH  20  22
ENDBRANCH  12  15
BRANCH   1  26
ATOM     24  C   UNL     1       4.099  11.496   0.336  0.00  0.00    +0.218 C 
ATOM     25  O   UNL     1       4.347  11.078  -0.775  0.00  0.00    -0.275 OA
ATOM     26  N   UNL     1       3.245  10.826   1.134  0.00  0.00    -0.285 N 
ATOM     27  H   UNL     1       2.988  11.199   1.992  0.00  0.00    +0.155 HD
BRANCH  24  28
ATOM     28  C   UNL     1       4.747  12.767   0.824  0.00  0.00    +0.101 C 
BRANCH  28  29
ATOM     29  C   UNL     1       5.664  13.324  -0.267  0.00  0.00    +0.044 C 
BRANCH  29  33
ATOM     30  C   UNL     1       7.500  16.924   1.116  0.00  0.00    +0.000 A 
ATOM     31  C   UNL     1       8.116  15.706   1.336  0.00  0.00    +0.000 A 
ATOM     32  C   UNL     1       7.521  14.541   0.888  0.00  0.00    +0.003 A 
ATOM     33  C   UNL     1       6.312  14.594   0.221  0.00  0.00    -0.047 A 
ATOM     34  C   UNL     1       5.699  15.812  -0.002  0.00  0.00    +0.003 A 
ATOM     35  C   UNL     1       6.290  16.977   0.449  0.00  0.00    +0.000 A 
ENDBRANCH  29  33
ENDBRANCH  28  29
ENDBRANCH  24  28
ENDBRANCH   1  26
TORSDOF 6
