REMARK  Name = ZINC51124077
REMARK  7 active torsions:
REMARK  status: ('A' for Active; 'I' for Inactive)
REMARK    1  A    between atoms: C_1  and  C_2
REMARK    2  A    between atoms: C_5  and  C_7
REMARK    3  A    between atoms: C_7  and  C_9
REMARK    4  A    between atoms: C_7  and  N_10
REMARK    5  A    between atoms: C_11  and  C_13
REMARK    6  A    between atoms: C_17  and  N_19
REMARK    7  A    between atoms: N_19  and  N_20
REMARK                            x       y       z     vdW  Elec       q    Type
REMARK                         _______ _______ _______ _____ _____    ______ ____
ROOT
ATOM      1  N   UNL     1       2.210  -4.147   0.855  0.00  0.00    -0.303 N 
ATOM      2  C   UNL     1       2.553  -5.328   1.406  0.00  0.00    +0.264 C 
ATOM      3  O   UNL     1       1.894  -6.322   1.171  0.00  0.00    -0.268 OA
ATOM      4  H   UNL     1       2.735  -3.354   1.042  0.00  0.00    +0.150 HD
ENDROOT
BRANCH   2   5
ATOM      5  C   UNL     1       3.732  -5.415   2.297  0.00  0.00    +0.146 A 
ATOM      6  C   UNL     1       4.084  -6.640   2.859  0.00  0.00    +0.072 A 
ATOM      7  C   UNL     1       5.193  -6.709   3.693  0.00  0.00    +0.026 A 
ATOM      8  C   UNL     1       5.910  -5.553   3.937  0.00  0.00    +0.046 A 
ATOM      9  C   UNL     1       5.503  -4.359   3.343  0.00  0.00    +0.133 A 
ATOM     10  N   UNL     1       4.448  -4.324   2.550  0.00  0.00    -0.225 NA
ATOM     11 CL   UNL     1       3.149  -8.063   2.520  0.00  0.00    -0.081 Cl
BRANCH   9  12
ATOM     12  N   UNL     1       6.219  -3.192   3.584  0.00  0.00    -0.268 N 
ATOM     13  H   UNL     1       6.997  -3.211   4.163  0.00  0.00    +0.167 HD
BRANCH  12  14
ATOM     14  N   UNL     1       5.827  -2.018   3.006  0.00  0.00    -0.255 NA
ATOM     15  H   UNL     1       4.869  -1.804   3.236  0.00  0.00    +0.140 HD
ATOM     16  H   UNL     1       6.440  -1.262   3.272  0.00  0.00    +0.140 HD
ENDBRANCH  12  14
ENDBRANCH   9  12
ENDBRANCH   2   5
BRANCH   1  17
ATOM     17  C   UNL     1       1.043  -4.062  -0.027  0.00  0.00    +0.107 C 
ATOM     18  C   UNL     1       1.452  -4.441  -1.452  0.00  0.00    +0.033 C 
BRANCH  17  23
ATOM     19  C   UNL     1      -0.018   1.503   0.010  0.00  0.00    +0.051 C 
ATOM     20  C   UNL     1       0.002  -0.004   0.002  0.00  0.00    -0.013 A 
ATOM     21  C   UNL     1      -1.039  -0.872   0.002  0.00  0.00    +0.011 A 
ATOM     22  C   UNL     1      -0.780  -2.230  -0.007  0.00  0.00    +0.013 A 
ATOM     23  C   UNL     1       0.507  -2.653  -0.016  0.00  0.00    +0.010 A 
ATOM     24  S   UNL     1       1.404  -1.109  -0.018  0.00  0.00    -0.097 S 
ENDBRANCH  17  23
ENDBRANCH   1  17
TORSDOF 5
