REMARK  Name = ZINC06878433
REMARK  9 active torsions:
REMARK  status: ('A' for Active; 'I' for Inactive)
REMARK    1  A    between atoms: C_1  and  C_2
REMARK    2  A    between atoms: C_2  and  N_3
REMARK    3  A    between atoms: C_4  and  C_21
REMARK    4  A    between atoms: C_7  and  S_8
REMARK    5  A    between atoms: S_8  and  C_9
REMARK    6  A    between atoms: C_9  and  C_10
REMARK    7  A    between atoms: N_12  and  C_13
REMARK    8  A    between atoms: C_18  and  C_19
REMARK    9  A    between atoms: C_24  and  N_27
REMARK                            x       y       z     vdW  Elec       q    Type
REMARK                         _______ _______ _______ _____ _____    ______ ____
ROOT
ATOM      1  N   UNL     1      -1.167  -1.511  -0.397  0.00  0.00    -0.302 N 
ATOM      2  C   UNL     1      -0.207  -0.585  -0.062  0.00  0.00    +0.165 A 
ATOM      3  N   UNL     1       0.911  -1.244   0.135  0.00  0.00    -0.128 NA
ATOM      4  N   UNL     1       0.720  -2.501  -0.056  0.00  0.00    -0.122 NA
ATOM      5  C   UNL     1      -0.533  -2.721  -0.387  0.00  0.00    +0.192 A 
ENDROOT
BRANCH   2   6
ATOM      6  C   UNL     1      -0.399   0.875   0.059  0.00  0.00    +0.019 A 
ATOM      7  C   UNL     1      -1.498   1.490  -0.541  0.00  0.00    +0.014 A 
ATOM      8  C   UNL     1      -1.675   2.853  -0.419  0.00  0.00    +0.033 A 
ATOM      9  C   UNL     1      -0.758   3.612   0.287  0.00  0.00    +0.126 A 
ATOM     10  C   UNL     1       0.337   3.009   0.880  0.00  0.00    +0.033 A 
ATOM     11  C   UNL     1       0.522   1.647   0.770  0.00  0.00    +0.014 A 
BRANCH   9  12
ATOM     12  N   UNL     1      -0.950   5.075   0.409  0.00  0.00    +0.056 N 
ATOM     13  O   UNL     1      -0.145   5.745   1.029  0.00  0.00    -0.126 OA
ATOM     14  O   UNL     1      -1.914   5.608  -0.112  0.00  0.00    -0.126 OA
ENDBRANCH   9  12
ENDBRANCH   2   6
BRANCH   1  16
ATOM     15  C   UNL     1      -2.741  -1.050  -2.211  0.00  0.00    +0.027 C 
ATOM     16  C   UNL     1      -2.577  -1.253  -0.704  0.00  0.00    +0.122 C 
ENDBRANCH   1  16
BRANCH   5  17
ATOM     17  S   UNL     1      -1.261  -4.285  -0.744  0.00  0.00    -0.077 S 
BRANCH  17  18
ATOM     18  C   UNL     1       0.178  -5.360  -0.517  0.00  0.00    +0.173 C 
BRANCH  18  19
ATOM     19  C   UNL     1      -0.217  -6.791  -0.778  0.00  0.00    +0.227 C 
ATOM     20  O   UNL     1      -1.360  -7.058  -1.086  0.00  0.00    -0.275 OA
ATOM     21  N   UNL     1       0.698  -7.774  -0.668  0.00  0.00    -0.285 N 
ATOM     22  H   UNL     1       1.593  -7.570  -0.353  0.00  0.00    +0.155 HD
BRANCH  21  23
ATOM     23  C   UNL     1       0.358  -9.087  -1.009  0.00  0.00    +0.038 A 
ATOM     24  C   UNL     1      -0.961  -9.511  -0.917  0.00  0.00    +0.023 A 
ATOM     25  C   UNL     1      -1.294 -10.808  -1.255  0.00  0.00    +0.003 A 
ATOM     26  C   UNL     1      -0.315 -11.686  -1.684  0.00  0.00    +0.020 A 
ATOM     27  C   UNL     1       1.000 -11.267  -1.776  0.00  0.00    +0.046 A 
ATOM     28  C   UNL     1       1.339  -9.969  -1.445  0.00  0.00    -0.011 A 
ATOM     29  C   UNL     1       2.771  -9.511  -1.551  0.00  0.00    +0.047 C 
ATOM     30 CL   UNL     1       2.226 -12.372  -2.315  0.00  0.00    -0.083 Cl
ENDBRANCH  21  23
ENDBRANCH  18  19
ENDBRANCH  17  18
ENDBRANCH   5  17
TORSDOF 7
