REMARK  Name = ZINC06544390
REMARK  8 active torsions:
REMARK  status: ('A' for Active; 'I' for Inactive)
REMARK    1  A    between atoms: C_1  and  N_2
REMARK    2  A    between atoms: N_2  and  C_3
REMARK    3  A    between atoms: N_2  and  S_20
REMARK    4  A    between atoms: C_3  and  C_4
REMARK    5  A    between atoms: N_6  and  N_7
REMARK    6  A    between atoms: C_8  and  C_9
REMARK    7  A    between atoms: C_18  and  O_19
REMARK    8  A    between atoms: S_20  and  C_23
REMARK                            x       y       z     vdW  Elec       q    Type
REMARK                         _______ _______ _______ _____ _____    ______ ____
ROOT
ATOM      1  C   UNL     1      -3.246   1.275  -1.331  0.00  0.00    +0.248 C 
ATOM      2  O   UNL     1      -3.382   2.166  -0.519  0.00  0.00    -0.273 OA
ATOM      3  N   UNL     1      -4.315   0.556  -1.728  0.00  0.00    -0.206 N 
ATOM      4  H   UNL     1      -4.207  -0.156  -2.377  0.00  0.00    +0.177 HD
ENDROOT
BRANCH   3   5
ATOM      5  N   UNL     1      -5.583   0.838  -1.201  0.00  0.00    -0.188 NA
ATOM      6  C   UNL     1      -6.613   0.144  -1.583  0.00  0.00    +0.142 C 
BRANCH   6   7
ATOM      7  C   UNL     1      -7.943   0.439  -1.031  0.00  0.00    +0.044 A 
ATOM      8  C   UNL     1      -9.113  -0.330  -1.450  0.00  0.00    -0.006 A 
ATOM      9  C   UNL     1      -9.009  -1.368  -2.384  0.00  0.00    +0.009 A 
ATOM     10  C   UNL     1     -10.124  -2.062  -2.748  0.00  0.00    +0.001 A 
ATOM     11  C   UNL     1     -11.368  -1.753  -2.202  0.00  0.00    +0.001 A 
ATOM     12  C   UNL     1     -11.505  -0.751  -1.291  0.00  0.00    +0.008 A 
ATOM     13  C   UNL     1     -10.376  -0.014  -0.893  0.00  0.00    -0.017 A 
ATOM     14  C   UNL     1     -10.479   1.028   0.046  0.00  0.00    +0.012 A 
ATOM     15  C   UNL     1      -9.380   1.734   0.424  0.00  0.00    +0.046 A 
ATOM     16  C   UNL     1      -8.115   1.456  -0.092  0.00  0.00    +0.126 A 
BRANCH  16  17
ATOM     17  O   UNL     1      -7.045   2.183   0.318  0.00  0.00    -0.506 OA
ATOM     18  H   UNL     1      -6.877   2.972  -0.215  0.00  0.00    +0.292 HD
ENDBRANCH  16  17
ENDBRANCH   6   7
ENDBRANCH   3   5
BRANCH   1  19
ATOM     19  C   UNL     1      -1.883   0.973  -1.897  0.00  0.00    +0.206 C 
BRANCH  19  21
ATOM     20  C   UNL     1      -0.691   3.213  -1.897  0.00  0.00    +0.132 C 
ATOM     21  N   UNL     1      -0.897   1.885  -1.312  0.00  0.00    -0.171 NA
BRANCH  21  22
ATOM     22  S   UNL     1      -0.017   1.417   0.010  0.00  0.00    +0.061 S 
ATOM     23  O   UNL     1       0.002  -0.004   0.002  0.00  0.00    -0.153 OA
ATOM     24  O   UNL     1       1.172   2.195   0.003  0.00  0.00    -0.153 OA
BRANCH  22  25
ATOM     25  C   UNL     1      -0.927   1.900   1.439  0.00  0.00    +0.106 A 
ATOM     26  C   UNL     1      -0.717   3.145   2.003  0.00  0.00    +0.031 A 
ATOM     27  C   UNL     1      -1.433   3.527   3.122  0.00  0.00    +0.040 A 
ATOM     28  C   UNL     1      -2.354   2.659   3.684  0.00  0.00    +0.124 A 
ATOM     29  C   UNL     1      -2.559   1.410   3.121  0.00  0.00    +0.040 A 
ATOM     30  C   UNL     1      -1.846   1.032   2.000  0.00  0.00    +0.031 A 
ATOM     31  F   UNL     1      -3.051   3.029   4.780  0.00  0.00    -0.205 F 
ENDBRANCH  22  25
ENDBRANCH  21  22
ENDBRANCH  19  21
ENDBRANCH   1  19
TORSDOF 7
