REMARK  Name = ZINC38600625
REMARK  11 active torsions:
REMARK  status: ('A' for Active; 'I' for Inactive)
REMARK    1  A    between atoms: C_1  and  C_2
REMARK    2  A    between atoms: C_2  and  O_3
REMARK    3  A    between atoms: O_3  and  C_4
REMARK    4  A    between atoms: C_4  and  C_6
REMARK    5  A    between atoms: C_8  and  N_18
REMARK    6  A    between atoms: C_11  and  O_16
REMARK    7  A    between atoms: O_16  and  C_17
REMARK    8  A    between atoms: C_19  and  C_21
REMARK    9  A    between atoms: C_21  and  C_23
REMARK   10  A    between atoms: C_21  and  N_24
REMARK   11  A    between atoms: C_27  and  C_30
REMARK                            x       y       z     vdW  Elec       q    Type
REMARK                         _______ _______ _______ _____ _____    ______ ____
ROOT
ATOM      1  C   UNL     1       3.500  -3.611  -3.063  0.00  0.00    +0.234 C 
ATOM      2  C   UNL     1       3.136  -2.471  -2.139  0.00  0.00    +0.053 C 
ATOM      3  C   UNL     1       1.800  -2.649  -1.829  0.00  0.00    +0.021 A 
ATOM      4  C   UNL     1       0.902  -1.914  -1.017  0.00  0.00    +0.057 A 
ATOM      5  C   UNL     1      -0.386  -2.331  -0.891  0.00  0.00    +0.121 A 
ATOM      6  C   UNL     1      -0.853  -3.477  -1.549  0.00  0.00    +0.047 A 
ATOM      7  C   UNL     1      -0.048  -4.225  -2.340  0.00  0.00    +0.029 A 
ATOM      8  C   UNL     1       1.310  -3.854  -2.521  0.00  0.00    +0.045 A 
ATOM      9  N   UNL     1       2.279  -4.407  -3.226  0.00  0.00    -0.367 N 
ATOM     10  H   UNL     1       2.197  -5.209  -3.765  0.00  0.00    +0.161 HD
ENDROOT
BRANCH   2  11
ATOM     11  N   UNL     1       3.957  -1.473  -1.700  0.00  0.00    -0.288 N 
ATOM     12  C   UNL     1       5.261  -1.474  -2.041  0.00  0.00    +0.203 C 
ATOM     13  O   UNL     1       5.698  -2.346  -2.761  0.00  0.00    -0.277 OA
ATOM     14  H   UNL     1       3.602  -0.763  -1.143  0.00  0.00    +0.155 HD
BRANCH  12  15
ATOM     15  C   UNL     1       6.174  -0.391  -1.528  0.00  0.00    +0.016 C 
ATOM     16  C   UNL     1       6.154   0.794  -2.496  0.00  0.00    -0.004 C 
BRANCH  15  17
ATOM     17  N   UNL     1       7.543  -0.914  -1.424  0.00  0.00    +0.387 N 
ATOM     18  C   UNL     1       8.430   0.139  -0.915  0.00  0.00    -0.078 C 
ATOM     19  C   UNL     1       9.871  -0.376  -0.881  0.00  0.00    -0.015 C 
ATOM     20  C   UNL     1       9.949  -1.598   0.038  0.00  0.00    -0.018 C 
ATOM     21  C   UNL     1       8.965  -2.661  -0.459  0.00  0.00    -0.015 C 
ATOM     22  C   UNL     1       7.558  -2.062  -0.509  0.00  0.00    -0.078 C 
ATOM     23  C   UNL     1      11.370  -2.166   0.015  0.00  0.00    +0.007 C 
ATOM     24  H   UNL     1       7.861  -1.208  -2.335  0.00  0.00    -0.081 HD
ENDBRANCH  15  17
ENDBRANCH  12  15
ENDBRANCH   2  11
BRANCH   1  25
ATOM     25  C   UNL     1       3.952  -3.075  -4.397  0.00  0.00    +0.336 C 
ATOM     26  O   UNL     1       3.142  -2.627  -5.173  0.00  0.00    -0.248 OA
BRANCH  25  27
ATOM     27  O   UNL     1       5.254  -3.095  -4.722  0.00  0.00    -0.463 OA
BRANCH  27  29
ATOM     28  C   UNL     1       7.125  -2.676  -6.193  0.00  0.00    +0.048 C 
ATOM     29  C   UNL     1       5.611  -2.570  -6.003  0.00  0.00    +0.229 C 
ENDBRANCH  27  29
ENDBRANCH  25  27
ENDBRANCH   1  25
BRANCH   5  30
ATOM     30  O   UNL     1      -1.241  -1.619  -0.108  0.00  0.00    -0.495 OA
ATOM     31  C   UNL     1      -2.583  -2.099  -0.010  0.00  0.00    +0.277 C 
ENDBRANCH   5  30
TORSDOF 7
