REMARK  Name = ZINC39622805
REMARK  6 active torsions:
REMARK  status: ('A' for Active; 'I' for Inactive)
REMARK    1  A    between atoms: C_1  and  N_2
REMARK    2  A    between atoms: C_6  and  C_8
REMARK    3  A    between atoms: C_8  and  O_9
REMARK    4  A    between atoms: O_9  and  C_10
REMARK    5  A    between atoms: C_10  and  C_12
REMARK    6  A    between atoms: C_18  and  C_20
REMARK                            x       y       z     vdW  Elec       q    Type
REMARK                         _______ _______ _______ _____ _____    ______ ____
ROOT
ATOM      1  C   UNL     1      -4.405  -6.919  -0.547  0.00  0.00    +0.110 C 
ATOM      2  C   UNL     1      -5.171  -6.451  -1.786  0.00  0.00    +0.015 C 
ATOM      3  C   UNL     1      -6.623  -6.153  -1.406  0.00  0.00    +0.001 C 
ATOM      4  C   UNL     1      -7.276  -7.421  -0.852  0.00  0.00    +0.001 C 
ATOM      5  C   UNL     1      -6.510  -7.889   0.387  0.00  0.00    +0.013 C 
ATOM      6  C   UNL     1      -5.058  -8.187   0.007  0.00  0.00    +0.089 C 
ENDROOT
BRANCH   6   7
ATOM      7  C   UNL     1      -4.304  -8.648   1.227  0.00  0.00    +0.224 C 
ATOM      8  O   UNL     1      -3.809  -7.834   1.978  0.00  0.00    -0.275 OA
ATOM      9  N   UNL     1      -4.178  -9.965   1.484  0.00  0.00    -0.271 N 
ATOM     10  C   UNL     1      -4.633 -11.041   0.599  0.00  0.00    +0.118 C 
ATOM     11  C   UNL     1      -4.268 -12.344   1.328  0.00  0.00    +0.056 C 
ATOM     12  C   UNL     1      -3.613 -11.891   2.613  0.00  0.00    -0.024 A 
ATOM     13  C   UNL     1      -3.591 -10.505   2.632  0.00  0.00    +0.039 A 
ATOM     14  C   UNL     1      -3.024  -9.851   3.728  0.00  0.00    +0.024 A 
ATOM     15  C   UNL     1      -2.491 -10.578   4.772  0.00  0.00    +0.002 A 
ATOM     16  C   UNL     1      -2.514 -11.960   4.741  0.00  0.00    +0.000 A 
ATOM     17  C   UNL     1      -3.082 -12.615   3.664  0.00  0.00    +0.005 A 
ENDBRANCH   6   7
BRANCH   1  18
ATOM     18  C   UNL     1      -2.976  -7.213  -0.922  0.00  0.00    +0.311 C 
ATOM     19  O   UNL     1      -2.525  -8.322  -0.762  0.00  0.00    -0.251 OA
BRANCH  18  20
ATOM     20  O   UNL     1      -2.203  -6.241  -1.433  0.00  0.00    -0.455 OA
BRANCH  20  21
ATOM     21  C   UNL     1      -0.858  -6.590  -1.766  0.00  0.00    +0.328 C 
BRANCH  21  27
ATOM     22  C   UNL     1       3.752  -3.313  -4.128  0.00  0.00    +0.129 C 
ATOM     23  N   UNL     1       3.063  -4.487  -3.588  0.00  0.00    -0.302 N 
ATOM     24  C   UNL     1       1.774  -4.395  -3.203  0.00  0.00    +0.306 C 
ATOM     25  O   UNL     1       1.185  -3.337  -3.305  0.00  0.00    -0.252 OA
ATOM     26  N   UNL     1       1.140  -5.475  -2.706  0.00  0.00    -0.237 N 
ATOM     27  C   UNL     1      -0.148  -5.382  -2.322  0.00  0.00    +0.258 C 
ATOM     28  O   UNL     1      -0.737  -4.327  -2.423  0.00  0.00    -0.272 OA
ATOM     29  H   UNL     1       3.534  -5.332  -3.506  0.00  0.00    +0.150 HD
ATOM     30  H   UNL     1       1.611  -6.319  -2.625  0.00  0.00    +0.159 HD
ENDBRANCH  21  27
ENDBRANCH  20  21
ENDBRANCH  18  20
ENDBRANCH   1  18
TORSDOF 5
