REMARK  Name = ZINC03765524
REMARK  11 active torsions:
REMARK  status: ('A' for Active; 'I' for Inactive)
REMARK    1  A    between atoms: C_1  and  N_2
REMARK    2  A    between atoms: N_2  and  C_3
REMARK    3  A    between atoms: N_2  and  S_4
REMARK    4  A    between atoms: S_4  and  N_7
REMARK    5  A    between atoms: C_9  and  C_16
REMARK    6  A    between atoms: C_17  and  C_18
REMARK    7  A    between atoms: C_17  and  N_33
REMARK    8  A    between atoms: N_20  and  C_21
REMARK    9  A    between atoms: C_21  and  C_22
REMARK   10  A    between atoms: C_22  and  C_23
REMARK   11  A    between atoms: C_34  and  C_36
REMARK                            x       y       z     vdW  Elec       q    Type
REMARK                         _______ _______ _______ _____ _____    ______ ____
ROOT
ATOM      1  C   UNL     1      -3.376   5.047  -0.022  0.00  0.00    +0.038 C 
ATOM      2  C   UNL     1      -4.636   5.352   0.381  0.00  0.00    +0.097 C 
ENDROOT
BRANCH   1   5
ATOM      3  N   UNL     1      -3.081   1.438  -0.460  0.00  0.00    -0.208 N 
ATOM      4  C   UNL     1      -3.815   2.571  -0.304  0.00  0.00    +0.122 A 
ATOM      5  C   UNL     1      -2.982   3.647  -0.199  0.00  0.00    +0.004 A 
ATOM      6  C   UNL     1      -1.607   3.125  -0.316  0.00  0.00    +0.009 A 
ATOM      7  C   UNL     1      -1.734   1.736  -0.475  0.00  0.00    +0.074 A 
ATOM      8  C   UNL     1      -0.589   0.957  -0.607  0.00  0.00    +0.028 A 
ATOM      9  C   UNL     1       0.653   1.552  -0.591  0.00  0.00    +0.002 A 
ATOM     10  C   UNL     1       0.777   2.926  -0.439  0.00  0.00    +0.001 A 
ATOM     11  C   UNL     1      -0.345   3.714  -0.302  0.00  0.00    +0.010 A 
BRANCH   3  12
ATOM     12  S   UNL     1      -3.714  -0.085  -0.609  0.00  0.00    +0.123 S 
ATOM     13  O   UNL     1      -2.959  -0.925   0.253  0.00  0.00    -0.136 OA
ATOM     14  O   UNL     1      -5.125   0.049  -0.499  0.00  0.00    -0.136 OA
BRANCH  12  16
ATOM     15  C   UNL     1      -2.167  -1.315  -2.455  0.00  0.00    +0.133 C 
ATOM     16  N   UNL     1      -3.406  -0.594  -2.155  0.00  0.00    -0.168 NA
ATOM     17  C   UNL     1      -4.372  -0.323  -3.221  0.00  0.00    +0.133 C 
ENDBRANCH  12  16
ENDBRANCH   3  12
ENDBRANCH   1   5
BRANCH   2  18
ATOM     18  C   UNL     1      -5.064   6.750   0.451  0.00  0.00    +0.258 C 
ATOM     19  O   UNL     1      -4.290   7.640   0.147  0.00  0.00    -0.269 OA
ATOM     20  N   UNL     1      -6.315   7.053   0.852  0.00  0.00    -0.310 N 
ATOM     21  H   UNL     1      -6.931   6.344   1.094  0.00  0.00    +0.149 HD
BRANCH  20  22
ATOM     22  C   UNL     1      -6.743   8.452   0.921  0.00  0.00    +0.109 C 
BRANCH  22  23
ATOM     23  C   UNL     1      -8.194   8.517   1.401  0.00  0.00    +0.056 C 
BRANCH  23  24
ATOM     24  C   UNL     1      -8.635   9.957   1.473  0.00  0.00    -0.021 A 
ATOM     25  C   UNL     1      -8.620  10.743   2.560  0.00  0.00    +0.087 A 
ATOM     26  N   UNL     1      -9.091  11.988   2.243  0.00  0.00    -0.360 N 
ATOM     27  H   UNL     1      -9.173  12.728   2.864  0.00  0.00    +0.165 HD
ATOM     28  C   UNL     1      -9.438  12.031   0.911  0.00  0.00    +0.047 A 
ATOM     29  C   UNL     1      -9.168  10.761   0.370  0.00  0.00    +0.003 A 
ATOM     30  C   UNL     1      -9.424  10.509  -0.979  0.00  0.00    +0.010 A 
ATOM     31  C   UNL     1      -9.937  11.500  -1.768  0.00  0.00    +0.001 A 
ATOM     32  C   UNL     1     -10.206  12.755  -1.240  0.00  0.00    +0.002 A 
ATOM     33  C   UNL     1      -9.960  13.025   0.089  0.00  0.00    +0.026 A 
ENDBRANCH  23  24
ENDBRANCH  22  23
ENDBRANCH  20  22
ENDBRANCH   2  18
BRANCH   2  34
ATOM     34  N   UNL     1      -5.527   4.327   0.731  0.00  0.00    -0.277 N 
ATOM     35  C   UNL     1      -6.689   4.188   0.064  0.00  0.00    +0.248 C 
ATOM     36  O   UNL     1      -6.927   4.894  -0.897  0.00  0.00    -0.270 OA
ATOM     37  H   UNL     1      -5.306   3.719   1.454  0.00  0.00    +0.155 HD
BRANCH  35  38
ATOM     38  C   UNL     1      -7.676   3.177   0.500  0.00  0.00    +0.037 A 
ATOM     39  C   UNL     1      -7.456   2.441   1.665  0.00  0.00    +0.013 A 
ATOM     40  C   UNL     1      -8.383   1.502   2.070  0.00  0.00    +0.001 A 
ATOM     41  C   UNL     1      -9.523   1.283   1.317  0.00  0.00    +0.000 A 
ATOM     42  C   UNL     1      -9.744   2.006   0.158  0.00  0.00    +0.001 A 
ATOM     43  C   UNL     1      -8.828   2.951  -0.254  0.00  0.00    +0.013 A 
ENDBRANCH  35  38
ENDBRANCH   2  34
TORSDOF 9
