REMARK  Name = ZINC12740644
REMARK  10 active torsions:
REMARK  status: ('A' for Active; 'I' for Inactive)
REMARK    1  A    between atoms: C_1  and  C_2
REMARK    2  A    between atoms: C_5  and  C_8
REMARK    3  A    between atoms: N_14  and  C_15
REMARK    4  A    between atoms: C_15  and  C_16
REMARK    5  A    between atoms: C_16  and  C_17
REMARK    6  A    between atoms: N_19  and  C_20
REMARK    7  A    between atoms: C_20  and  C_21
REMARK    8  A    between atoms: C_21  and  N_62
REMARK    9  A    between atoms: C_28  and  N_62
REMARK   10  A    between atoms: C_29  and  N_62
REMARK                            x       y       z     vdW  Elec       q    Type
REMARK                         _______ _______ _______ _____ _____    ______ ____
ROOT
ATOM      1  C   UNL     1       6.067   2.569   1.478  0.00  0.00    +0.117 C 
ENDROOT
BRANCH   1   2
ATOM      2  C   UNL     1       4.819   1.737   1.628  0.00  0.00    +0.215 C 
ATOM      3  O   UNL     1       4.885   0.628   2.115  0.00  0.00    -0.276 OA
ATOM      4  N   UNL     1       3.631   2.225   1.220  0.00  0.00    -0.317 N 
ATOM      5  H   UNL     1       3.578   3.112   0.831  0.00  0.00    +0.149 HD
BRANCH   4   6
ATOM      6  C   UNL     1       2.418   1.416   1.366  0.00  0.00    +0.092 C 
BRANCH   6   7
ATOM      7  C   UNL     1       1.205   2.228   0.906  0.00  0.00    -0.050 C 
ATOM      8  C   UNL     1       0.972   3.349   1.883  0.00  0.00    -0.010 C 
ATOM      9  C   UNL     1       1.528   2.925   3.258  0.00  0.00    -0.001 C 
ATOM     10  C   UNL     1       0.618   2.046   3.978  0.00  0.00    -0.000 C 
ATOM     11  C   UNL     1       0.362   0.723   3.228  0.00  0.00    -0.000 C 
ATOM     12  C   UNL     1      -0.657   0.973   2.150  0.00  0.00    -0.001 C 
ATOM     13  C   UNL     1      -0.009   1.287   0.788  0.00  0.00    -0.010 C 
BRANCH   7  16
ATOM     14  C   UNL     1       1.667   1.744  -1.421  0.00  0.00    -0.096 C 
ATOM     15  C   UNL     1       0.443   3.745  -0.820  0.00  0.00    -0.096 C 
ATOM     16  N   UNL     1       1.518   2.816  -0.413  0.00  0.00    +0.381 N 
ATOM     17  H   UNL     1       2.401   3.336  -0.346  0.00  0.00    -0.082 HD
ENDBRANCH   7  16
ENDBRANCH   6   7
ENDBRANCH   4   6
ENDBRANCH   1   2
BRANCH   1  18
ATOM     18  C   UNL     1       7.268   1.788   2.014  0.00  0.00    +0.135 C 
BRANCH  18  25
ATOM     19  C   UNL     1       9.375   2.533   0.818  0.00  0.00    +0.163 A 
ATOM     20  N   UNL     1      10.325   3.400   1.029  0.00  0.00    -0.153 NA
ATOM     21  N   UNL     1      10.062   4.044   2.246  0.00  0.00    -0.254 N 
ATOM     22  H   UNL     1      10.604   4.735   2.658  0.00  0.00    +0.191 HD
ATOM     23  C   UNL     1       8.918   3.527   2.740  0.00  0.00    +0.176 A 
ATOM     24  S   UNL     1       8.159   3.974   4.208  0.00  0.00    -0.011 S 
ATOM     25  N   UNL     1       8.481   2.597   1.869  0.00  0.00    -0.303 N 
BRANCH  19  30
ATOM     26  C   UNL     1       8.969  -0.967  -3.733  0.00  0.00    +0.044 C 
ATOM     27  C   UNL     1       9.075  -0.050  -2.542  0.00  0.00    -0.050 A 
ATOM     28  C   UNL     1      10.306   0.468  -2.179  0.00  0.00    +0.004 A 
ATOM     29  C   UNL     1      10.410   1.307  -1.089  0.00  0.00    +0.012 A 
ATOM     30  C   UNL     1       9.271   1.633  -0.352  0.00  0.00    +0.019 A 
ATOM     31  C   UNL     1       8.034   1.103  -0.720  0.00  0.00    +0.012 A 
ATOM     32  C   UNL     1       7.942   0.270  -1.816  0.00  0.00    +0.004 A 
ENDBRANCH  19  30
ENDBRANCH  18  25
ENDBRANCH   1  18
TORSDOF 7
