REMARK  Name = ZINC12457045
REMARK  9 active torsions:
REMARK  status: ('A' for Active; 'I' for Inactive)
REMARK    1  A    between atoms: C_4  and  C_7
REMARK    2  A    between atoms: C_7  and  N_64
REMARK    3  A    between atoms: C_8  and  C_9
REMARK    4  A    between atoms: C_8  and  N_64
REMARK    5  A    between atoms: C_9  and  O_10
REMARK    6  A    between atoms: C_11  and  C_12
REMARK    7  A    between atoms: C_11  and  N_64
REMARK    8  A    between atoms: C_20  and  N_22
REMARK    9  A    between atoms: C_28  and  C_30
REMARK                            x       y       z     vdW  Elec       q    Type
REMARK                         _______ _______ _______ _____ _____    ______ ____
ROOT
ATOM      1  C   UNL     1      -1.555  -1.493   0.022  0.00  0.00    +0.115 A 
ATOM      2  N   UNL     1      -1.744  -0.199   0.116  0.00  0.00    -0.234 NA
ATOM      3  C   UNL     1      -0.753   0.656  -0.177  0.00  0.00    +0.076 A 
ATOM      4  C   UNL     1      -0.920   2.045  -0.088  0.00  0.00    +0.028 A 
ATOM      5  C   UNL     1       0.121   2.869  -0.398  0.00  0.00    +0.002 A 
ATOM      6  C   UNL     1       1.349   2.353  -0.802  0.00  0.00    +0.001 A 
ATOM      7  C   UNL     1       1.546   1.007  -0.898  0.00  0.00    +0.013 A 
ATOM      8  C   UNL     1       0.498   0.134  -0.588  0.00  0.00    +0.040 A 
ATOM      9  C   UNL     1       0.640  -1.273  -0.670  0.00  0.00    +0.133 A 
ATOM     10  N   UNL     1      -0.405  -2.028  -0.357  0.00  0.00    -0.219 NA
ENDROOT
BRANCH   9  11
ATOM     11  N   UNL     1       1.832  -1.842  -1.063  0.00  0.00    -0.312 N 
ATOM     12  C   UNL     1       1.700  -2.486  -2.377  0.00  0.00    +0.125 C 
ATOM     13  C   UNL     1       3.081  -2.945  -2.858  0.00  0.00    +0.127 C 
ATOM     14  N   UNL     1       3.684  -3.785  -1.812  0.00  0.00    -0.292 N 
ATOM     15  C   UNL     1       3.728  -3.261  -0.438  0.00  0.00    +0.127 C 
ATOM     16  C   UNL     1       2.322  -2.789  -0.052  0.00  0.00    +0.125 C 
ATOM     17  C   UNL     1       4.184  -5.002  -2.105  0.00  0.00    +0.282 C 
ATOM     18  O   UNL     1       4.577  -5.729  -1.212  0.00  0.00    -0.267 OA
BRANCH  17  19
ATOM     19  C   UNL     1       4.255  -5.450  -3.499  0.00  0.00    +0.189 A 
ATOM     20  C   UNL     1       4.611  -6.697  -3.925  0.00  0.00    +0.054 A 
ATOM     21  C   UNL     1       4.541  -6.681  -5.326  0.00  0.00    +0.042 A 
ATOM     22  C   UNL     1       4.150  -5.440  -5.691  0.00  0.00    +0.196 A 
ATOM     23  O   UNL     1       3.973  -4.703  -4.587  0.00  0.00    -0.458 OA
ENDBRANCH  17  19
ENDBRANCH   9  11
BRANCH   1  24
ATOM     24  C   UNL     1      -2.699  -2.414   0.361  0.00  0.00    -0.001 C 
BRANCH  24  25
ATOM     25  N   UNL     1      -3.496  -2.654  -0.860  0.00  0.00    +0.389 N 
ATOM     26  H   UNL     1      -3.740  -1.750  -1.282  0.00  0.00    -0.081 HD
BRANCH  25  27
ATOM     27  C   UNL     1      -4.740  -3.374  -0.517  0.00  0.00    -0.042 C 
BRANCH  27  31
ATOM     28  C   UNL     1      -7.513  -0.594   1.165  0.00  0.00    +0.000 A 
ATOM     29  C   UNL     1      -7.405  -0.718  -0.208  0.00  0.00    +0.000 A 
ATOM     30  C   UNL     1      -6.507  -1.617  -0.752  0.00  0.00    +0.002 A 
ATOM     31  C   UNL     1      -5.719  -2.393   0.076  0.00  0.00    -0.064 A 
ATOM     32  C   UNL     1      -5.831  -2.274   1.449  0.00  0.00    +0.002 A 
ATOM     33  C   UNL     1      -6.725  -1.371   1.993  0.00  0.00    +0.000 A 
ENDBRANCH  27  31
ENDBRANCH  25  27
BRANCH  25  34
ATOM     34  C   UNL     1      -2.708  -3.440  -1.832  0.00  0.00    -0.050 C 
BRANCH  34  35
ATOM     35  C   UNL     1      -3.385  -3.351  -3.200  0.00  0.00    +0.137 C 
BRANCH  35  36
ATOM     36  O   UNL     1      -3.342  -2.001  -3.667  0.00  0.00    -0.397 OA
ATOM     37  H   UNL     1      -3.754  -1.870  -4.532  0.00  0.00    +0.209 HD
ENDBRANCH  35  36
ENDBRANCH  34  35
ENDBRANCH  25  34
ENDBRANCH  24  25
ENDBRANCH   1  24
TORSDOF 9
