REMARK  Name = ZINC05093347
REMARK  8 active torsions:
REMARK  status: ('A' for Active; 'I' for Inactive)
REMARK    1  A    between atoms: C_1  and  C_2
REMARK    2  A    between atoms: C_2  and  C_3
REMARK    3  A    between atoms: C_9  and  C_10
REMARK    4  A    between atoms: C_9  and  N_58
REMARK    5  A    between atoms: C_11  and  O_30
REMARK    6  A    between atoms: C_19  and  C_22
REMARK    7  A    between atoms: C_20  and  C_21
REMARK    8  A    between atoms: C_22  and  C_23
REMARK                            x       y       z     vdW  Elec       q    Type
REMARK                         _______ _______ _______ _____ _____    ______ ____
ROOT
ATOM      1  C   UNL     1       0.949   1.677  -2.809  0.00  0.00    +0.022 A 
ATOM      2  C   UNL     1       0.939   2.888  -3.481  0.00  0.00    +0.140 A 
ATOM      3  C   UNL     1       2.134   3.539  -3.784  0.00  0.00    +0.083 A 
ATOM      4  C   UNL     1       3.332   2.986  -3.431  0.00  0.00    +0.035 A 
ATOM      5  C   UNL     1       3.360   1.761  -2.756  0.00  0.00    +0.023 A 
ATOM      6  C   UNL     1       2.157   1.101  -2.443  0.00  0.00    +0.144 A 
ATOM      7  O   UNL     1       2.188  -0.082  -1.793  0.00  0.00    -0.422 OA
ATOM      8  C   UNL     1       3.348  -0.652  -1.432  0.00  0.00    +0.341 A 
ATOM      9  O   UNL     1       3.328  -1.720  -0.846  0.00  0.00    -0.245 OA
ATOM     10  C   UNL     1       4.590  -0.047  -1.713  0.00  0.00    +0.045 A 
ATOM     11  C   UNL     1       4.629   1.144  -2.366  0.00  0.00    -0.029 A 
ATOM     12  C   UNL     1       5.943   1.812  -2.679  0.00  0.00    +0.045 C 
ATOM     13 CL   UNL     1       2.099   5.059  -4.622  0.00  0.00    -0.080 Cl
ENDROOT
BRANCH   2  14
ATOM     14  O   UNL     1      -0.243   3.447  -3.843  0.00  0.00    -0.505 OA
ATOM     15  H   UNL     1      -0.579   4.100  -3.213  0.00  0.00    +0.292 HD
ENDBRANCH   2  14
BRANCH   1  16
ATOM     16  C   UNL     1      -0.348   0.984  -2.481  0.00  0.00    -0.035 C 
BRANCH  16  22
ATOM     17  C   UNL     1      -1.992   0.628  -0.740  0.00  0.00    -0.068 C 
ATOM     18  C   UNL     1      -2.283   0.846   0.747  0.00  0.00    -0.015 C 
ATOM     19  C   UNL     1      -2.372   2.349   1.029  0.00  0.00    -0.003 C 
ATOM     20  C   UNL     1      -1.062   3.019   0.606  0.00  0.00    -0.019 C 
ATOM     21  C   UNL     1      -0.808   2.738  -0.877  0.00  0.00    -0.078 C 
ATOM     22  N   UNL     1      -0.707   1.276  -1.078  0.00  0.00    +0.384 N 
ATOM     23  H   UNL     1       0.025   0.905  -0.462  0.00  0.00    -0.081 HD
BRANCH  17  25
ATOM     24  C   UNL     1      -3.230  -1.542  -0.752  0.00  0.00    +0.002 C 
ATOM     25  C   UNL     1      -1.882  -0.871  -1.023  0.00  0.00    -0.019 C 
ENDBRANCH  17  25
ENDBRANCH  16  22
ENDBRANCH   1  16
BRANCH  10  26
ATOM     26  C   UNL     1       5.871  -0.720  -1.292  0.00  0.00    +0.077 C 
BRANCH  26  27
ATOM     27  C   UNL     1       6.248  -0.261   0.093  0.00  0.00    -0.043 A 
ATOM     28  C   UNL     1       7.055   0.850   0.257  0.00  0.00    +0.004 A 
ATOM     29  C   UNL     1       7.396   1.274   1.528  0.00  0.00    +0.000 A 
ATOM     30  C   UNL     1       6.939   0.582   2.634  0.00  0.00    +0.000 A 
ATOM     31  C   UNL     1       6.137  -0.532   2.469  0.00  0.00    +0.000 A 
ATOM     32  C   UNL     1       5.791  -0.953   1.199  0.00  0.00    +0.004 A 
ENDBRANCH  26  27
ENDBRANCH  10  26
TORSDOF 6
