REMARK  Name = ZINC66693803
REMARK  3 active torsions:
REMARK  status: ('A' for Active; 'I' for Inactive)
REMARK    1  A    between atoms: C_1  and  N_2
REMARK    2  A    between atoms: C_8  and  C_14
REMARK    3  A    between atoms: C_20  and  C_23
REMARK                            x       y       z     vdW  Elec       q    Type
REMARK                         _______ _______ _______ _____ _____    ______ ____
ROOT
ATOM      1  C   UNL     1      -0.876  -6.349  -0.029  0.00  0.00    +0.247 C 
ATOM      2  O   UNL     1      -0.933  -5.141   0.084  0.00  0.00    -0.270 OA
ATOM      3  N   UNL     1      -2.010  -7.072  -0.129  0.00  0.00    -0.293 N 
ATOM      4  C   UNL     1      -3.321  -6.412  -0.237  0.00  0.00    +0.136 C 
ATOM      5  C   UNL     1      -4.260  -7.028   0.806  0.00  0.00    +0.179 C 
ATOM      6  O   UNL     1      -4.251  -8.451   0.666  0.00  0.00    -0.369 OA
ATOM      7  C   UNL     1      -2.977  -9.055   0.905  0.00  0.00    +0.166 C 
ATOM      8  C   UNL     1      -1.972  -8.543  -0.140  0.00  0.00    +0.144 C 
ENDROOT
BRANCH   1  16
ATOM      9  C   UNL     1       5.610 -10.671  -1.026  0.00  0.00    +0.154 C 
ATOM     10  N   UNL     1       4.325  -9.970  -0.966  0.00  0.00    -0.290 N 
ATOM     11  C   UNL     1       4.171  -8.934  -0.113  0.00  0.00    +0.262 A 
ATOM     12  O   UNL     1       5.181  -8.539   0.681  0.00  0.00    -0.267 OA
ATOM     13  C   UNL     1       2.922  -8.278  -0.077  0.00  0.00    +0.065 A 
ATOM     14  C   UNL     1       2.687  -7.195   0.782  0.00  0.00    +0.016 A 
ATOM     15  C   UNL     1       1.469  -6.586   0.789  0.00  0.00    +0.014 A 
ATOM     16  C   UNL     1       0.440  -7.029  -0.056  0.00  0.00    +0.039 A 
ATOM     17  C   UNL     1       0.643  -8.097  -0.916  0.00  0.00    +0.041 A 
ATOM     18  C   UNL     1       1.891  -8.736  -0.937  0.00  0.00    +0.080 A 
ATOM     19  N   UNL     1       2.132  -9.773  -1.752  0.00  0.00    -0.222 NA
ATOM     20  C   UNL     1       3.318 -10.362  -1.764  0.00  0.00    +0.183 A 
ATOM     21  S   UNL     1       3.575 -11.677  -2.831  0.00  0.00    -0.011 S 
ENDBRANCH   1  16
BRANCH   7  22
ATOM     22  C   UNL     1      -3.101 -10.552   0.791  0.00  0.00    -0.015 A 
ATOM     23  C   UNL     1      -3.886 -11.107  -0.203  0.00  0.00    +0.006 A 
ATOM     24  C   UNL     1      -4.000 -12.481  -0.309  0.00  0.00    +0.003 A 
ATOM     25  C   UNL     1      -3.331 -13.301   0.580  0.00  0.00    +0.038 A 
ATOM     26  C   UNL     1      -2.546 -12.746   1.576  0.00  0.00    +0.124 A 
ATOM     27  C   UNL     1      -2.427 -11.370   1.677  0.00  0.00    +0.044 A 
ATOM     28  F   UNL     1      -1.891 -13.547   2.445  0.00  0.00    -0.205 F 
ENDBRANCH   7  22
TORSDOF 2
