REMARK  Name = ZINC41580203
REMARK  8 active torsions:
REMARK  status: ('A' for Active; 'I' for Inactive)
REMARK    1  A    between atoms: C_1  and  C_2
REMARK    2  A    between atoms: C_2  and  C_3
REMARK    3  A    between atoms: C_2  and  C_4
REMARK    4  A    between atoms: C_2  and  C_5
REMARK    5  A    between atoms: C_12  and  N_17
REMARK    6  A    between atoms: C_13  and  C_14
REMARK    7  A    between atoms: N_17  and  S_18
REMARK    8  A    between atoms: S_18  and  C_21
REMARK                            x       y       z     vdW  Elec       q    Type
REMARK                         _______ _______ _______ _____ _____    ______ ____
ROOT
ATOM      1  C   UNL     1       0.718  -0.497  -1.257  0.00  0.00    -0.000 C 
ATOM      2  C   UNL     1       0.746  -2.029  -1.264  0.00  0.00    +0.009 C 
ATOM      3  C   UNL     1       1.236  -2.533  -2.623  0.00  0.00    +0.037 C 
ATOM      4  C   UNL     1       2.548  -1.839  -2.958  0.00  0.00    -0.021 A 
ATOM      5  C   UNL     1       2.921  -0.705  -2.330  0.00  0.00    -0.004 A 
ATOM      6  S   UNL     1       4.484  -0.287  -3.044  0.00  0.00    -0.076 S 
ATOM      7  C   UNL     1       4.652  -1.554  -4.134  0.00  0.00    +0.100 A 
ATOM      8  C   UNL     1       3.499  -2.310  -3.953  0.00  0.00    +0.096 A 
ATOM      9  C   UNL     1       2.161   0.028  -1.267  0.00  0.00    +0.046 C 
ENDROOT
BRANCH   1  11
ATOM     10  C   UNL     1      -0.019   1.526   0.010  0.00  0.00    +0.011 C 
ATOM     11  C   UNL     1       0.002  -0.004   0.002  0.00  0.00    -0.035 C 
ATOM     12  C   UNL     1       0.742  -0.511   1.242  0.00  0.00    +0.011 C 
ATOM     13  C   UNL     1      -1.433  -0.534   0.013  0.00  0.00    +0.011 C 
ENDBRANCH   1  11
BRANCH   8  14
ATOM     14  C   UNL     1       3.261  -3.486  -4.704  0.00  0.00    +0.389 C 
ATOM     15  O   UNL     1       2.235  -4.132  -4.523  0.00  0.00    -0.240 OA
ATOM     16  O   UNL     1       4.080  -3.859  -5.536  0.00  0.00    -0.240 OA
ENDBRANCH   8  14
BRANCH   7  17
ATOM     17  N   UNL     1       5.693  -1.790  -5.008  0.00  0.00    -0.214 N 
ATOM     18  H   UNL     1       5.670  -2.564  -5.591  0.00  0.00    +0.174 HD
BRANCH  17  19
ATOM     19  S   UNL     1       6.981  -0.751  -5.060  0.00  0.00    +0.041 S 
ATOM     20  O   UNL     1       7.832  -1.278  -6.068  0.00  0.00    -0.155 OA
ATOM     21  O   UNL     1       6.402   0.539  -5.203  0.00  0.00    -0.155 OA
ATOM     22  C   UNL     1       7.770  -0.904  -3.434  0.00  0.00    +0.218 C 
ENDBRANCH  17  19
ENDBRANCH   7  17
TORSDOF 4
