REMARK  Name = ZINC09046318
REMARK  16 active torsions:
REMARK  status: ('A' for Active; 'I' for Inactive)
REMARK    1  A    between atoms: C_1  and  C_2
REMARK    2  A    between atoms: C_2  and  C_3
REMARK    3  A    between atoms: C_6  and  C_9
REMARK    4  A    between atoms: C_12  and  C_13
REMARK    5  A    between atoms: C_12  and  O_28
REMARK    6  A    between atoms: C_16  and  O_20
REMARK    7  A    between atoms: C_18  and  C_19
REMARK    8  A    between atoms: O_20  and  C_21
REMARK    9  A    between atoms: C_21  and  C_22
REMARK   10  A    between atoms: N_33  and  C_34
REMARK   11  A    between atoms: C_34  and  C_35
REMARK   12  A    between atoms: C_35  and  N_77
REMARK   13  A    between atoms: C_36  and  C_37
REMARK   14  A    between atoms: C_36  and  N_77
REMARK   15  A    between atoms: C_38  and  C_39
REMARK   16  A    between atoms: C_38  and  N_77
REMARK                            x       y       z     vdW  Elec       q    Type
REMARK                         _______ _______ _______ _____ _____    ______ ____
ROOT
ATOM      1  C   UNL     1       1.036   2.402   0.227  0.00  0.00    +0.144 C 
ATOM      2  C   UNL     1       0.649   3.860   0.328  0.00  0.00    +0.071 C 
ATOM      3  C   UNL     1       1.492   4.950   0.234  0.00  0.00    +0.133 C 
ATOM      4  C   UNL     1      -0.738   3.882   0.536  0.00  0.00    +0.249 C 
ATOM      5  O   UNL     1      -1.425   4.879   0.667  0.00  0.00    -0.282 OA
ATOM      6  C   UNL     1      -1.226   2.477   0.562  0.00  0.00    +0.288 C 
ATOM      7  O   UNL     1      -2.383   2.145   0.719  0.00  0.00    -0.266 OA
ATOM      8  N   UNL     1      -0.199   1.628   0.389  0.00  0.00    -0.285 N 
ENDROOT
BRANCH   3   9
ATOM      9  C   UNL     1       0.942   6.313   0.307  0.00  0.00    +0.020 A 
ATOM     10  C   UNL     1       1.276   7.149   1.380  0.00  0.00    +0.015 A 
ATOM     11  C   UNL     1       0.760   8.422   1.444  0.00  0.00    +0.046 A 
ATOM     12  C   UNL     1      -0.093   8.880   0.445  0.00  0.00    +0.121 A 
ATOM     13  C   UNL     1      -0.427   8.054  -0.623  0.00  0.00    +0.049 A 
ATOM     14  C   UNL     1       0.088   6.781  -0.699  0.00  0.00    -0.036 A 
ATOM     15  C   UNL     1      -0.271   5.889  -1.859  0.00  0.00    +0.044 C 
BRANCH  12  16
ATOM     16  O   UNL     1      -0.600  10.137   0.512  0.00  0.00    -0.487 OA
BRANCH  16  17
ATOM     17  C   UNL     1      -0.216  10.932   1.636  0.00  0.00    +0.264 C 
BRANCH  17  18
ATOM     18  C   UNL     1      -0.871  12.286   1.541  0.00  0.00    -0.010 A 
ATOM     19  C   UNL     1      -0.229  13.321   0.888  0.00  0.00    +0.007 A 
ATOM     20  C   UNL     1      -0.832  14.561   0.797  0.00  0.00    +0.000 A 
ATOM     21  C   UNL     1      -2.074  14.769   1.368  0.00  0.00    +0.000 A 
ATOM     22  C   UNL     1      -2.715  13.735   2.025  0.00  0.00    +0.000 A 
ATOM     23  C   UNL     1      -2.113  12.493   2.112  0.00  0.00    +0.007 A 
ENDBRANCH  17  18
ENDBRANCH  16  17
ENDBRANCH  12  16
ENDBRANCH   3   9
BRANCH   1  27
ATOM     24  C   UNL     1       3.804   1.407   3.325  0.00  0.00    -0.048 A 
ATOM     25  C   UNL     1       4.254   1.602   2.033  0.00  0.00    +0.004 A 
ATOM     26  C   UNL     1       3.358   1.924   1.030  0.00  0.00    +0.006 A 
ATOM     27  C   UNL     1       2.012   2.051   1.320  0.00  0.00    -0.022 A 
ATOM     28  C   UNL     1       1.563   1.861   2.614  0.00  0.00    +0.006 A 
ATOM     29  C   UNL     1       2.458   1.535   3.615  0.00  0.00    +0.004 A 
BRANCH  24  31
ATOM     30  C   UNL     1       5.304   2.338   5.067  0.00  0.00    +0.009 C 
ATOM     31  C   UNL     1       4.780   1.055   4.418  0.00  0.00    +0.032 C 
ENDBRANCH  24  31
ENDBRANCH   1  27
BRANCH   3  32
ATOM     32  O   UNL     1       2.820   4.766   0.076  0.00  0.00    -0.506 OA
ATOM     33  H   UNL     1       3.276   5.654   0.027  0.00  0.00    +0.292 HD
ENDBRANCH   3  32
BRANCH   8  34
ATOM     34  C   UNL     1      -0.297   0.167   0.361  0.00  0.00    +0.090 C 
BRANCH  34  35
ATOM     35  C   UNL     1      -0.117  -0.384   1.777  0.00  0.00    -0.060 C 
BRANCH  35  36
ATOM     36  N   UNL     1      -0.367  -1.840   1.754  0.00  0.00    +0.380 N 
ATOM     37  H   UNL     1      -1.184  -2.029   1.161  0.00  0.00    -0.082 HD
BRANCH  36  38
ATOM     38  C   UNL     1       0.805  -2.545   1.194  0.00  0.00    -0.082 C 
ATOM     39  C   UNL     1       0.439  -4.014   0.974  0.00  0.00    -0.017 C 
ENDBRANCH  36  38
BRANCH  36  40
ATOM     40  C   UNL     1      -0.644  -2.327   3.122  0.00  0.00    -0.082 C 
ATOM     41  C   UNL     1      -2.080  -1.952   3.494  0.00  0.00    -0.017 C 
ENDBRANCH  36  40
ENDBRANCH  35  36
ENDBRANCH  34  35
ENDBRANCH   8  34
TORSDOF 12
