REMARK  Name = ZINC22851993
REMARK  6 active torsions:
REMARK  status: ('A' for Active; 'I' for Inactive)
REMARK    1  A    between atoms: C_3  and  C_6
REMARK    2  A    between atoms: C_11  and  O_36
REMARK    3  A    between atoms: C_12  and  C_14
REMARK    4  A    between atoms: C_14  and  C_16
REMARK    5  A    between atoms: C_14  and  N_23
REMARK    6  A    between atoms: C_29  and  C_31
REMARK                            x       y       z     vdW  Elec       q    Type
REMARK                         _______ _______ _______ _____ _____    ______ ____
ROOT
ATOM      1  C   UNL     1      -8.380   0.466   0.122  0.00  0.00    +0.129 C 
ENDROOT
BRANCH   1   8
ATOM      2  C   UNL     1      -2.498   1.476   0.112  0.00  0.00    +0.218 A 
ATOM      3  N   UNL     1      -2.914   0.203   0.049  0.00  0.00    -0.197 NA
ATOM      4  C   UNL     1      -4.217   0.175   0.066  0.00  0.00    +0.200 A 
ATOM      5  N   UNL     1      -4.706   1.450   0.133  0.00  0.00    -0.173 N 
ATOM      6  N   UNL     1      -3.547   2.268   0.161  0.00  0.00    -0.138 NA
ATOM      7  C   UNL     1      -6.072   1.596   0.154  0.00  0.00    +0.228 A 
ATOM      8  C   UNL     1      -6.874   0.526   0.110  0.00  0.00    +0.076 A 
ATOM      9  S   UNL     1      -5.694  -0.812   0.033  0.00  0.00    -0.047 S 
BRANCH   2  12
ATOM     10  C   UNL     1       1.134   1.948   0.093  0.00  0.00    +0.042 A 
ATOM     11  C   UNL     1       0.003   1.108   0.070  0.00  0.00    +0.053 A 
ATOM     12  C   UNL     1      -1.088   1.918   0.120  0.00  0.00    +0.173 A 
ATOM     13  O   UNL     1      -0.660   3.194   0.181  0.00  0.00    -0.460 OA
ATOM     14  C   UNL     1       0.683   3.216   0.162  0.00  0.00    +0.196 A 
ENDBRANCH   2  12
BRANCH   7  15
ATOM     15  O   UNL     1      -6.614   2.842   0.221  0.00  0.00    -0.492 OA
ATOM     16  H   UNL     1      -7.707   2.966   0.238  0.00  0.00    +0.294 HD
ENDBRANCH   7  15
ENDBRANCH   1   8
BRANCH   1  17
ATOM     17  N   UNL     1      -8.821  -0.579   1.055  0.00  0.00    -0.288 NA
ATOM     18  C   UNL     1     -10.281  -0.736   1.018  0.00  0.00    +0.104 C 
ATOM     19  C   UNL     1     -10.682  -1.949   1.863  0.00  0.00    +0.123 C 
ATOM     20  N   UNL     1     -10.108  -1.792   3.208  0.00  0.00    -0.293 N 
ATOM     21  C   UNL     1      -8.672  -1.495   3.321  0.00  0.00    +0.123 C 
ATOM     22  C   UNL     1      -8.350  -0.300   2.418  0.00  0.00    +0.104 C 
ATOM     23  C   UNL     1     -10.877  -1.917   4.308  0.00  0.00    +0.282 C 
ATOM     24  O   UNL     1     -10.373  -1.854   5.414  0.00  0.00    -0.267 OA
BRANCH  23  25
ATOM     25  C   UNL     1     -12.322  -2.131   4.172  0.00  0.00    +0.189 A 
ATOM     26  C   UNL     1     -13.231  -2.143   5.191  0.00  0.00    +0.054 A 
ATOM     27  C   UNL     1     -14.486  -2.379   4.609  0.00  0.00    +0.042 A 
ATOM     28  C   UNL     1     -14.291  -2.498   3.277  0.00  0.00    +0.196 A 
ATOM     29  O   UNL     1     -12.987  -2.343   3.017  0.00  0.00    -0.458 OA
ENDBRANCH  23  25
ENDBRANCH   1  17
BRANCH   1  30
ATOM     30  C   UNL     1      -8.881   0.147  -1.263  0.00  0.00    -0.025 A 
ATOM     31  C   UNL     1      -8.861  -1.157  -1.721  0.00  0.00    +0.007 A 
ATOM     32  C   UNL     1      -9.326  -1.452  -2.989  0.00  0.00    +0.020 A 
ATOM     33  C   UNL     1      -9.800  -0.440  -3.804  0.00  0.00    +0.041 A 
ATOM     34  C   UNL     1      -9.814   0.866  -3.348  0.00  0.00    +0.020 A 
ATOM     35  C   UNL     1      -9.354   1.159  -2.077  0.00  0.00    +0.007 A 
ATOM     36 CL   UNL     1     -10.378  -0.808  -5.399  0.00  0.00    -0.084 Cl
ENDBRANCH   1  30
TORSDOF 6
