REMARK  Name = ZINC56874177
REMARK  15 active torsions:
REMARK  status: ('A' for Active; 'I' for Inactive)
REMARK    1  A    between atoms: C_1  and  C_2
REMARK    2  A    between atoms: C_2  and  C_3
REMARK    3  A    between atoms: C_3  and  C_4
REMARK    4  A    between atoms: C_3  and  C_6
REMARK    5  A    between atoms: C_3  and  N_25
REMARK    6  A    between atoms: C_4  and  C_5
REMARK    7  A    between atoms: C_6  and  N_7
REMARK    8  A    between atoms: C_14  and  N_17
REMARK    9  A    between atoms: C_18  and  O_20
REMARK   10  A    between atoms: O_20  and  C_21
REMARK   11  A    between atoms: C_21  and  C_22
REMARK   12  A    between atoms: C_21  and  C_23
REMARK   13  A    between atoms: C_21  and  C_24
REMARK   14  A    between atoms: N_25  and  C_26
REMARK   15  A    between atoms: N_25  and  C_27
REMARK                            x       y       z     vdW  Elec       q    Type
REMARK                         _______ _______ _______ _____ _____    ______ ____
ROOT
ATOM      1  N   UNL     1       0.856  -0.419  -3.759  0.00  0.00    -0.301 N 
ATOM      2  C   UNL     1       0.544  -0.054  -5.019  0.00  0.00    +0.302 C 
ATOM      3  O   UNL     1      -0.337   0.760  -5.215  0.00  0.00    -0.253 OA
ATOM      4  N   UNL     1       1.208  -0.593  -6.060  0.00  0.00    -0.284 N 
ATOM      5  C   UNL     1       2.183  -1.671  -5.850  0.00  0.00    +0.109 C 
ATOM      6  C   UNL     1       1.817  -2.850  -6.757  0.00  0.00    +0.021 C 
ATOM      7  C   UNL     1       1.721  -2.364  -8.205  0.00  0.00    +0.025 C 
ATOM      8  C   UNL     1       0.620  -1.308  -8.318  0.00  0.00    +0.094 C 
ATOM      9  C   UNL     1       0.967  -0.115  -7.429  0.00  0.00    +0.131 C 
ATOM     10  H   UNL     1       1.609  -1.009  -3.598  0.00  0.00    +0.150 HD
ENDROOT
BRANCH   8  11
ATOM     11  N   UNL     1       0.507  -0.866  -9.710  0.00  0.00    -0.277 N 
ATOM     12  C   UNL     1      -0.656  -0.356 -10.163  0.00  0.00    +0.401 C 
ATOM     13  O   UNL     1      -1.610  -0.263  -9.417  0.00  0.00    -0.226 OA
ATOM     14  H   UNL     1       1.268  -0.941 -10.306  0.00  0.00    +0.152 HD
BRANCH  12  15
ATOM     15  O   UNL     1      -0.760   0.050 -11.443  0.00  0.00    -0.445 OA
BRANCH  15  16
ATOM     16  C   UNL     1      -2.021   0.580 -11.855  0.00  0.00    +0.107 C 
ATOM     17  C   UNL     1      -2.361   1.806 -11.006  0.00  0.00    +0.055 C 
ATOM     18  C   UNL     1      -1.948   0.984 -13.329  0.00  0.00    +0.055 C 
ATOM     19  C   UNL     1      -3.106  -0.484 -11.672  0.00  0.00    +0.055 C 
ENDBRANCH  15  16
ENDBRANCH  12  15
ENDBRANCH   8  11
BRANCH   1  20
ATOM     20  C   UNL     1       0.058   0.075  -2.635  0.00  0.00    +0.094 C 
BRANCH  20  21
ATOM     21  C   UNL     1       0.712  -0.352  -1.319  0.00  0.00    -0.051 C 
BRANCH  21  22
ATOM     22  N   UNL     1       0.939  -1.803  -1.333  0.00  0.00    +0.381 N 
ATOM     23  C   UNL     1       1.450  -2.231  -0.024  0.00  0.00    -0.096 C 
ATOM     24  C   UNL     1      -0.326  -2.494  -1.614  0.00  0.00    -0.096 C 
ATOM     25  H   UNL     1       1.613  -2.031  -2.048  0.00  0.00    -0.082 HD
ENDBRANCH  21  22
BRANCH  21  27
ATOM     26  C   UNL     1       3.024  -0.109  -2.233  0.00  0.00    +0.002 C 
ATOM     27  C   UNL     1       2.050   0.372  -1.156  0.00  0.00    -0.014 C 
ENDBRANCH  21  27
BRANCH  21  28
ATOM     28  C   UNL     1      -0.209   0.009  -0.151  0.00  0.00    -0.014 C 
ATOM     29  C   UNL     1      -0.551   1.499  -0.213  0.00  0.00    +0.002 C 
ENDBRANCH  21  28
ENDBRANCH  20  21
ENDBRANCH   1  20
TORSDOF 8
