REMARK  Name = ZINC09046247
REMARK  14 active torsions:
REMARK  status: ('A' for Active; 'I' for Inactive)
REMARK    1  A    between atoms: C_1  and  C_2
REMARK    2  A    between atoms: C_2  and  C_3
REMARK    3  A    between atoms: C_3  and  O_4
REMARK    4  A    between atoms: O_4  and  C_5
REMARK    5  A    between atoms: C_8  and  C_11
REMARK    6  A    between atoms: C_14  and  C_15
REMARK    7  A    between atoms: C_14  and  O_23
REMARK    8  A    between atoms: C_18  and  O_21
REMARK    9  A    between atoms: O_21  and  C_22
REMARK   10  A    between atoms: N_28  and  C_29
REMARK   11  A    between atoms: C_29  and  C_30
REMARK   12  A    between atoms: C_30  and  N_62
REMARK   13  A    between atoms: C_31  and  N_62
REMARK   14  A    between atoms: C_32  and  N_62
REMARK                            x       y       z     vdW  Elec       q    Type
REMARK                         _______ _______ _______ _____ _____    ______ ____
ROOT
ATOM      1  C   UNL     1       2.654  -4.318  -0.265  0.00  0.00    +0.144 C 
ATOM      2  C   UNL     1       2.454  -2.825  -0.140  0.00  0.00    +0.071 C 
ATOM      3  C   UNL     1       1.251  -2.156  -0.021  0.00  0.00    +0.133 C 
ATOM      4  C   UNL     1       3.736  -2.256  -0.165  0.00  0.00    +0.249 C 
ATOM      5  O   UNL     1       3.992  -1.068  -0.084  0.00  0.00    -0.282 OA
ATOM      6  C   UNL     1       4.729  -3.355  -0.306  0.00  0.00    +0.288 C 
ATOM      7  O   UNL     1       5.932  -3.203  -0.359  0.00  0.00    -0.266 OA
ATOM      8  N   UNL     1       4.099  -4.541  -0.367  0.00  0.00    -0.285 N 
ENDROOT
BRANCH   1  12
ATOM      9  C   UNL     1       0.706  -5.767  -3.782  0.00  0.00    +0.121 A 
ATOM     10  C   UNL     1       0.112  -5.936  -2.539  0.00  0.00    +0.046 A 
ATOM     11  C   UNL     1       0.744  -5.466  -1.404  0.00  0.00    +0.009 A 
ATOM     12  C   UNL     1       1.967  -4.829  -1.505  0.00  0.00    -0.022 A 
ATOM     13  C   UNL     1       2.558  -4.654  -2.743  0.00  0.00    +0.009 A 
ATOM     14  C   UNL     1       1.933  -5.127  -3.881  0.00  0.00    +0.046 A 
BRANCH   9  15
ATOM     15  O   UNL     1       0.086  -6.227  -4.900  0.00  0.00    -0.492 OA
BRANCH  15  16
ATOM     16  C   UNL     1       0.755  -6.018  -6.145  0.00  0.00    +0.229 C 
BRANCH  16  18
ATOM     17  C   UNL     1       0.628  -6.375  -8.615  0.00  0.00    +0.007 C 
ATOM     18  C   UNL     1      -0.089  -6.599  -7.282  0.00  0.00    +0.038 C 
ENDBRANCH  16  18
ENDBRANCH  15  16
ENDBRANCH   9  15
ENDBRANCH   1  12
BRANCH   3  19
ATOM     19  C   UNL     1       1.220  -0.686  -0.063  0.00  0.00    +0.017 A 
ATOM     20  C   UNL     1       1.858   0.001  -1.103  0.00  0.00    +0.015 A 
ATOM     21  C   UNL     1       1.825   1.376  -1.138  0.00  0.00    +0.046 A 
ATOM     22  C   UNL     1       1.161   2.084  -0.142  0.00  0.00    +0.120 A 
ATOM     23  C   UNL     1       0.526   1.407   0.893  0.00  0.00    +0.046 A 
ATOM     24  C   UNL     1       0.552   0.032   0.937  0.00  0.00    +0.015 A 
BRANCH  22  25
ATOM     25  O   UNL     1       1.132   3.440  -0.181  0.00  0.00    -0.495 OA
ATOM     26  C   UNL     1       0.432   4.104   0.873  0.00  0.00    +0.277 C 
ENDBRANCH  22  25
ENDBRANCH   3  19
BRANCH   3  27
ATOM     27  O   UNL     1       0.104  -2.851   0.134  0.00  0.00    -0.506 OA
ATOM     28  H   UNL     1      -0.664  -2.215   0.204  0.00  0.00    +0.292 HD
ENDBRANCH   3  27
BRANCH   8  29
ATOM     29  C   UNL     1       4.751  -5.845  -0.506  0.00  0.00    +0.090 C 
BRANCH  29  30
ATOM     30  C   UNL     1       5.056  -6.414   0.881  0.00  0.00    -0.060 C 
BRANCH  30  33
ATOM     31  C   UNL     1       6.229  -8.191   2.032  0.00  0.00    -0.097 C 
ATOM     32  C   UNL     1       4.794  -8.708   0.152  0.00  0.00    -0.097 C 
ATOM     33  N   UNL     1       5.732  -7.719   0.723  0.00  0.00    +0.377 N 
ATOM     34  H   UNL     1       6.528  -7.606   0.085  0.00  0.00    -0.083 HD
ENDBRANCH  30  33
ENDBRANCH  29  30
ENDBRANCH   8  29
TORSDOF 10
