REMARK  Name = ZINC39762048
REMARK  13 active torsions:
REMARK  status: ('A' for Active; 'I' for Inactive)
REMARK    1  A    between atoms: C_1  and  C_2
REMARK    2  A    between atoms: C_2  and  C_4
REMARK    3  A    between atoms: C_2  and  N_25
REMARK    4  A    between atoms: C_7  and  S_12
REMARK    5  A    between atoms: N_8  and  C_9
REMARK    6  A    between atoms: C_9  and  C_10
REMARK    7  A    between atoms: S_12  and  C_13
REMARK    8  A    between atoms: C_13  and  C_14
REMARK    9  A    between atoms: C_20  and  N_22
REMARK   10  A    between atoms: C_26  and  C_28
REMARK   11  A    between atoms: C_28  and  C_29
REMARK   12  A    between atoms: C_32  and  O_35
REMARK   13  A    between atoms: O_35  and  C_36
REMARK                            x       y       z     vdW  Elec       q    Type
REMARK                         _______ _______ _______ _____ _____    ______ ____
ROOT
ATOM      1  C   UNL     1      -1.412  -0.526   0.013  0.00  0.00    +0.155 A 
ATOM      2  N   UNL     1      -2.222  -0.538   1.033  0.00  0.00    -0.132 NA
ATOM      3  N   UNL     1      -3.351  -1.052   0.693  0.00  0.00    -0.122 NA
ATOM      4  C   UNL     1      -3.320  -1.398  -0.573  0.00  0.00    +0.192 A 
ATOM      5  N   UNL     1      -2.083  -1.068  -1.048  0.00  0.00    -0.301 N 
ENDROOT
BRANCH   1   7
ATOM      6  C   UNL     1      -0.019   1.526   0.010  0.00  0.00    +0.036 C 
ATOM      7  C   UNL     1       0.002  -0.004   0.002  0.00  0.00    +0.138 C 
BRANCH   7   8
ATOM      8  N   UNL     1       0.711  -0.489   1.189  0.00  0.00    -0.305 N 
ATOM      9  C   UNL     1       2.054  -0.600   1.174  0.00  0.00    +0.218 C 
ATOM     10  O   UNL     1       2.676  -0.297   0.177  0.00  0.00    -0.275 OA
ATOM     11  H   UNL     1       0.213  -0.731   1.986  0.00  0.00    +0.149 HD
BRANCH   9  12
ATOM     12  C   UNL     1       2.783  -1.099   2.395  0.00  0.00    +0.130 C 
BRANCH  12  13
ATOM     13  C   UNL     1       4.264  -1.128   2.119  0.00  0.00    -0.038 A 
ATOM     14  C   UNL     1       4.844  -2.264   1.585  0.00  0.00    +0.007 A 
ATOM     15  C   UNL     1       6.202  -2.293   1.331  0.00  0.00    +0.046 A 
ATOM     16  C   UNL     1       6.983  -1.182   1.612  0.00  0.00    +0.120 A 
ATOM     17  C   UNL     1       6.398  -0.043   2.147  0.00  0.00    +0.046 A 
ATOM     18  C   UNL     1       5.039  -0.017   2.394  0.00  0.00    +0.007 A 
BRANCH  16  19
ATOM     19  O   UNL     1       8.319  -1.208   1.364  0.00  0.00    -0.495 OA
ATOM     20  C   UNL     1       9.061  -0.028   1.678  0.00  0.00    +0.277 C 
ENDBRANCH  16  19
ENDBRANCH  12  13
ENDBRANCH   9  12
ENDBRANCH   7   8
ENDBRANCH   1   7
BRANCH   5  21
ATOM     21  C   UNL     1      -1.580  -1.258  -2.410  0.00  0.00    +0.152 C 
BRANCH  21  22
ATOM     22  C   UNL     1      -0.929  -2.613  -2.521  0.00  0.00    -0.013 C 
ATOM     23  C   UNL     1      -1.323  -3.456  -3.443  0.00  0.00    +0.005 C 
ENDBRANCH  21  22
ENDBRANCH   5  21
BRANCH   4  24
ATOM     24  S   UNL     1      -4.630  -2.141  -1.487  0.00  0.00    -0.077 S 
BRANCH  24  25
ATOM     25  C   UNL     1      -5.975  -2.298  -0.280  0.00  0.00    +0.173 C 
BRANCH  25  26
ATOM     26  C   UNL     1      -7.173  -2.928  -0.942  0.00  0.00    +0.229 C 
ATOM     27  O   UNL     1      -7.125  -3.241  -2.112  0.00  0.00    -0.275 OA
ATOM     28  N   UNL     1      -8.298  -3.145  -0.232  0.00  0.00    -0.264 N 
ATOM     29  C   UNL     1      -9.404  -3.726  -0.842  0.00  0.00    +0.166 A 
ATOM     30  N   UNL     1      -9.531  -4.131  -2.087  0.00  0.00    -0.231 NA
ATOM     31  C   UNL     1     -10.657  -4.669  -2.518  0.00  0.00    +0.153 A 
ATOM     32  C   UNL     1     -11.668  -4.782  -1.622  0.00  0.00    +0.185 A 
ATOM     33  S   UNL     1     -10.901  -4.090  -0.166  0.00  0.00    -0.028 S 
ATOM     34  H   UNL     1      -8.337  -2.894   0.704  0.00  0.00    +0.157 HD
BRANCH  32  35
ATOM     35  N   UNL     1     -13.031  -5.333  -1.800  0.00  0.00    +0.065 N 
ATOM     36  O   UNL     1     -13.371  -5.767  -2.876  0.00  0.00    -0.126 OA
ATOM     37  O   UNL     1     -13.803  -5.349  -0.870  0.00  0.00    -0.126 OA
ENDBRANCH  32  35
ENDBRANCH  25  26
ENDBRANCH  24  25
ENDBRANCH   4  24
TORSDOF 11
