REMARK  Name = ZINC63171911
REMARK  4 active torsions:
REMARK  status: ('A' for Active; 'I' for Inactive)
REMARK    1  A    between atoms: C_4  and  C_10
REMARK    2  A    between atoms: C_6  and  N_7
REMARK    3  A    between atoms: N_12  and  C_13
REMARK    4  A    between atoms: C_18  and  N_20
REMARK                            x       y       z     vdW  Elec       q    Type
REMARK                         _______ _______ _______ _____ _____    ______ ____
ROOT
ATOM      1  C   UNL     1       3.695  -0.686  -0.037  0.00  0.00    +0.245 C 
ATOM      2  O   UNL     1       4.738  -0.062  -0.044  0.00  0.00    -0.270 OA
ATOM      3  N   UNL     1       3.716  -2.034  -0.045  0.00  0.00    -0.310 N 
ATOM      4  H   UNL     1       2.883  -2.532  -0.039  0.00  0.00    +0.149 HD
ENDROOT
BRANCH   1   8
ATOM      5  C   UNL     1      -0.017   1.379   0.010  0.00  0.00    +0.034 A 
ATOM      6  C   UNL     1       1.168   2.094   0.002  0.00  0.00    +0.018 A 
ATOM      7  C   UNL     1       2.378   1.429  -0.013  0.00  0.00    +0.030 A 
ATOM      8  C   UNL     1       2.404   0.032  -0.021  0.00  0.00    +0.053 A 
ATOM      9  C   UNL     1       1.204  -0.681  -0.013  0.00  0.00    +0.047 A 
ATOM     10  C   UNL     1       0.002  -0.004   0.002  0.00  0.00    +0.127 A 
ATOM     11 BR   UNL     1       3.997   2.407  -0.024  0.00  0.00    -0.050 Br
BRANCH  10  12
ATOM     12  N   UNL     1      -1.271  -0.760   0.011  0.00  0.00    +0.056 N 
ATOM     13  O   UNL     1      -2.325  -0.168   0.024  0.00  0.00    -0.126 OA
ATOM     14  O   UNL     1      -1.256  -1.968   0.004  0.00  0.00    -0.126 OA
ENDBRANCH  10  12
ENDBRANCH   1   8
BRANCH   3  15
ATOM     15  C   UNL     1       4.996  -2.747  -0.061  0.00  0.00    +0.059 C 
ATOM     16  C   UNL     1       5.508  -2.947   1.380  0.00  0.00    +0.020 C 
ATOM     17  C   UNL     1       5.029  -4.371   1.758  0.00  0.00    +0.000 C 
ATOM     18  C   UNL     1       5.214  -5.157   0.437  0.00  0.00    -0.014 C 
ATOM     19  C   UNL     1       4.809  -4.151  -0.662  0.00  0.00    -0.055 C 
BRANCH  19  20
ATOM     20  N   UNL     1       5.675  -4.314  -1.838  0.00  0.00    +0.381 N 
ATOM     21  H   UNL     1       6.639  -4.195  -1.565  0.00  0.00    -0.090 HD
ATOM     22  H   UNL     1       5.546  -5.237  -2.225  0.00  0.00    -0.090 HD
ATOM     23  H   UNL     1       5.434  -3.622  -2.532  0.00  0.00    -0.090 HD
ENDBRANCH  19  20
ENDBRANCH   3  15
TORSDOF 4
