REMARK  Name = ZINC34829957
REMARK  9 active torsions:
REMARK  status: ('A' for Active; 'I' for Inactive)
REMARK    1  A    between atoms: C_1  and  C_2
REMARK    2  A    between atoms: C_5  and  C_8
REMARK    3  A    between atoms: N_17  and  C_18
REMARK    4  A    between atoms: C_18  and  C_19
REMARK    5  A    between atoms: C_25  and  C_28
REMARK    6  A    between atoms: N_31  and  C_32
REMARK    7  A    between atoms: C_32  and  C_33
REMARK    8  A    between atoms: C_32  and  C_34
REMARK    9  A    between atoms: C_32  and  C_35
REMARK                            x       y       z     vdW  Elec       q    Type
REMARK                         _______ _______ _______ _____ _____    ______ ____
ROOT
ATOM      1  C   UNL     1      -2.203  -4.409   0.760  0.00  0.00    +0.020 C 
ENDROOT
BRANCH   1   2
ATOM      2  C   UNL     1      -3.084  -4.815   1.914  0.00  0.00    +0.199 C 
ATOM      3  O   UNL     1      -2.603  -5.374   2.877  0.00  0.00    -0.278 OA
ATOM      4  N   UNL     1      -4.407  -4.558   1.875  0.00  0.00    -0.300 N 
ATOM      5  C   UNL     1      -5.005  -3.887   0.712  0.00  0.00    +0.126 C 
ATOM      6  C   UNL     1      -5.758  -2.643   1.198  0.00  0.00    +0.128 C 
ATOM      7  N   UNL     1      -6.628  -3.029   2.318  0.00  0.00    -0.280 N 
ATOM      8  C   UNL     1      -6.030  -3.700   3.481  0.00  0.00    +0.092 C 
ATOM      9  C   UNL     1      -5.277  -4.949   2.993  0.00  0.00    +0.130 C 
ATOM     10  C   UNL     1      -5.059  -2.747   4.181  0.00  0.00    +0.030 C 
ATOM     11  C   UNL     1      -7.951  -2.772   2.280  0.00  0.00    +0.303 C 
ATOM     12  O   UNL     1      -8.675  -3.180   3.167  0.00  0.00    -0.253 OA
ATOM     13  N   UNL     1      -8.470  -2.064   1.258  0.00  0.00    -0.294 N 
ATOM     14  H   UNL     1      -7.906  -1.800   0.514  0.00  0.00    +0.151 HD
BRANCH  13  15
ATOM     15  C   UNL     1      -9.887  -1.692   1.270  0.00  0.00    +0.028 C 
ATOM     16  C   UNL     1     -10.178  -0.832   2.501  0.00  0.00    +0.031 C 
ATOM     17  C   UNL     1     -10.217  -0.898   0.004  0.00  0.00    +0.031 C 
ATOM     18  C   UNL     1     -10.746  -2.957   1.317  0.00  0.00    +0.031 C 
ENDBRANCH  13  15
ENDBRANCH   1   2
BRANCH   1  27
ATOM     19  C   UNL     1       0.055  -4.293  -0.026  0.00  0.00    -0.005 C 
ATOM     20  C   UNL     1       1.476  -4.788   0.220  0.00  0.00    -0.047 A 
ATOM     21  C   UNL     1       2.611  -4.212  -0.344  0.00  0.00    +0.010 A 
ATOM     22  C   UNL     1       3.837  -4.716  -0.066  0.00  0.00    +0.045 A 
ATOM     23  S   UNL     1       3.438  -6.068   1.034  0.00  0.00    -0.101 S 
ATOM     24  C   UNL     1       1.681  -5.859   1.038  0.00  0.00    -0.010 A 
ATOM     25  C   UNL     1       0.629  -6.645   1.751  0.00  0.00    +0.024 C 
ATOM     26  C   UNL     1      -0.730  -6.261   1.139  0.00  0.00    -0.072 C 
ATOM     27  N   UNL     1      -0.815  -4.797   1.043  0.00  0.00    +0.393 N 
ATOM     28  H   UNL     1      -0.530  -4.392   1.922  0.00  0.00    -0.080 HD
BRANCH  19  33
ATOM     29  C   UNL     1      -0.017   1.485  -0.019  0.00  0.00    +0.044 C 
ATOM     30  C   UNL     1       0.002  -0.022  -0.021  0.00  0.00    -0.050 A 
ATOM     31  C   UNL     1       0.003  -0.712  -1.219  0.00  0.00    +0.003 A 
ATOM     32  C   UNL     1       0.020  -2.094  -1.220  0.00  0.00    +0.002 A 
ATOM     33  C   UNL     1       0.037  -2.787  -0.024  0.00  0.00    -0.057 A 
ATOM     34  C   UNL     1       0.036  -2.097   1.174  0.00  0.00    +0.002 A 
ATOM     35  C   UNL     1       0.024  -0.715   1.175  0.00  0.00    +0.003 A 
ENDBRANCH  19  33
ENDBRANCH   1  27
TORSDOF 4
