REMARK  Name = ZINC37064231
REMARK  7 active torsions:
REMARK  status: ('A' for Active; 'I' for Inactive)
REMARK    1  A    between atoms: C_1  and  C_2
REMARK    2  A    between atoms: C_5  and  N_9
REMARK    3  A    between atoms: N_9  and  S_10
REMARK    4  A    between atoms: S_10  and  C_13
REMARK    5  A    between atoms: C_14  and  C_21
REMARK    6  A    between atoms: C_15  and  C_20
REMARK    7  A    between atoms: C_18  and  N_19
REMARK                            x       y       z     vdW  Elec       q    Type
REMARK                         _______ _______ _______ _____ _____    ______ ____
ROOT
ATOM      1  S   UNL     1       0.747  -4.733   0.011  0.00  0.00    +0.074 S 
ATOM      2  O   UNL     1       0.194  -3.512   0.481  0.00  0.00    -0.150 OA
ATOM      3  O   UNL     1       0.733  -5.924   0.785  0.00  0.00    -0.150 OA
ENDROOT
BRANCH   1   4
ATOM      4  C   UNL     1       2.434  -4.405  -0.378  0.00  0.00    +0.132 A 
ATOM      5  C   UNL     1       2.791  -3.195  -0.941  0.00  0.00    -0.019 A 
ATOM      6  C   UNL     1       4.115  -2.937  -1.247  0.00  0.00    -0.046 A 
ATOM      7  C   UNL     1       5.085  -3.889  -0.990  0.00  0.00    +0.005 A 
ATOM      8  C   UNL     1       4.735  -5.100  -0.427  0.00  0.00    +0.025 A 
ATOM      9  C   UNL     1       3.407  -5.361  -0.114  0.00  0.00    +0.052 A 
ATOM     10  C   UNL     1       4.500  -1.617  -1.861  0.00  0.00    +0.044 C 
ATOM     11  C   UNL     1       1.737  -2.155  -1.222  0.00  0.00    +0.046 C 
BRANCH   9  12
ATOM     12  N   UNL     1       3.050  -6.583   0.460  0.00  0.00    -0.356 N 
ATOM     13  H   UNL     1       2.162  -6.945   0.316  0.00  0.00    +0.142 HD
ATOM     14  H   UNL     1       3.690  -7.069   1.003  0.00  0.00    +0.142 HD
ENDBRANCH   9  12
ENDBRANCH   1   4
BRANCH   1  15
ATOM     15  N   UNL     1      -0.024  -5.085  -1.412  0.00  0.00    -0.215 N 
ATOM     16  H   UNL     1      -0.701  -4.483  -1.759  0.00  0.00    +0.174 HD
BRANCH  15  21
ATOM     17  C   UNL     1       1.294  -9.811  -4.259  0.00  0.00    +0.044 C 
ATOM     18  C   UNL     1       0.944  -8.555  -3.503  0.00  0.00    -0.049 A 
ATOM     19  C   UNL     1       0.919  -8.566  -2.120  0.00  0.00    +0.005 A 
ATOM     20  C   UNL     1       0.598  -7.417  -1.424  0.00  0.00    +0.026 A 
ATOM     21  C   UNL     1       0.301  -6.249  -2.114  0.00  0.00    +0.066 A 
ATOM     22  C   UNL     1       0.328  -6.240  -3.503  0.00  0.00    +0.064 A 
ATOM     23  C   UNL     1       0.654  -7.393  -4.194  0.00  0.00    +0.025 A 
ATOM     24 CL   UNL     1      -0.043  -4.783  -4.371  0.00  0.00    -0.082 Cl
ENDBRANCH  15  21
ENDBRANCH   1  15
TORSDOF 4
