REMARK  Name = ZINC03364756
REMARK  7 active torsions:
REMARK  status: ('A' for Active; 'I' for Inactive)
REMARK    1  A    between atoms: C_3  and  C_6
REMARK    2  A    between atoms: C_6  and  C_7
REMARK    3  A    between atoms: C_10  and  S_19
REMARK    4  A    between atoms: N_11  and  C_12
REMARK    5  A    between atoms: S_19  and  C_20
REMARK    6  A    between atoms: C_20  and  C_21
REMARK    7  A    between atoms: C_21  and  C_23
REMARK                            x       y       z     vdW  Elec       q    Type
REMARK                         _______ _______ _______ _____ _____    ______ ____
ROOT
ATOM      1  C   UNL     1       4.247   2.008   1.393  0.00  0.00    +0.143 A 
ATOM      2  N   UNL     1       4.137   3.077   2.129  0.00  0.00    -0.133 NA
ATOM      3  N   UNL     1       4.658   2.874   3.286  0.00  0.00    -0.122 NA
ATOM      4  C   UNL     1       5.135   1.652   3.353  0.00  0.00    +0.197 A 
ATOM      5  N   UNL     1       4.882   1.058   2.147  0.00  0.00    -0.274 N 
ENDROOT
BRANCH   5   6
ATOM      6  C   UNL     1       5.209  -0.251   1.762  0.00  0.00    +0.050 A 
ATOM      7  C   UNL     1       4.202  -1.164   1.480  0.00  0.00    +0.028 A 
ATOM      8  C   UNL     1       4.526  -2.452   1.101  0.00  0.00    +0.022 A 
ATOM      9  C   UNL     1       5.853  -2.833   1.003  0.00  0.00    +0.041 A 
ATOM     10  C   UNL     1       6.858  -1.925   1.284  0.00  0.00    +0.022 A 
ATOM     11  C   UNL     1       6.539  -0.634   1.658  0.00  0.00    +0.028 A 
ATOM     12 CL   UNL     1       6.257  -4.453   0.527  0.00  0.00    -0.084 Cl
ENDBRANCH   5   6
BRANCH   1  13
ATOM     13  C   UNL     1       3.761   1.845  -0.024  0.00  0.00    +0.119 C 
BRANCH  13  16
ATOM     14  C   UNL     1      -0.016   1.351   0.009  0.00  0.00    +0.008 A 
ATOM     15  C   UNL     1       1.183   2.038   0.002  0.00  0.00    +0.011 A 
ATOM     16  C   UNL     1       2.343   1.336  -0.013  0.00  0.00    -0.003 A 
ATOM     17  S   UNL     1       1.754  -0.349  -0.017  0.00  0.00    -0.101 S 
ATOM     18  C   UNL     1       0.002  -0.004   0.002  0.00  0.00    +0.045 A 
ENDBRANCH  13  16
ENDBRANCH   1  13
BRANCH   4  19
ATOM     19  S   UNL     1       5.940   0.916   4.736  0.00  0.00    -0.078 S 
BRANCH  19  20
ATOM     20  C   UNL     1       5.941   2.225   5.992  0.00  0.00    +0.157 C 
BRANCH  20  21
ATOM     21  C   UNL     1       6.610   1.720   7.244  0.00  0.00    +0.173 C 
ATOM     22  O   UNL     1       7.044   0.588   7.285  0.00  0.00    -0.291 OA
BRANCH  21  23
ATOM     23  C   UNL     1       6.737   2.598   8.415  0.00  0.00    +0.020 A 
ATOM     24  C   UNL     1       6.231   3.903   8.371  0.00  0.00    +0.015 A 
ATOM     25  C   UNL     1       6.350   4.726   9.468  0.00  0.00    +0.048 A 
ATOM     26  C   UNL     1       6.971   4.265  10.621  0.00  0.00    +0.142 A 
ATOM     27  C   UNL     1       7.478   2.964  10.672  0.00  0.00    +0.076 A 
ATOM     28  C   UNL     1       7.359   2.130   9.579  0.00  0.00    +0.038 A 
ATOM     29  N   UNL     1       8.102   2.518  11.847  0.00  0.00    -0.280 N 
ATOM     30  C   UNL     1       7.924   3.217  12.988  0.00  0.00    +0.255 C 
ATOM     31  O   UNL     1       8.478   2.868  14.009  0.00  0.00    -0.272 OA
ATOM     32  C   UNL     1       7.035   4.435  12.988  0.00  0.00    +0.325 C 
ATOM     33  O   UNL     1       7.090   5.070  11.708  0.00  0.00    -0.481 OA
ATOM     34  H   UNL     1       8.652   1.719  11.839  0.00  0.00    +0.155 HD
ENDBRANCH  21  23
ENDBRANCH  20  21
ENDBRANCH  19  20
ENDBRANCH   4  19
TORSDOF 7
