REMARK  Name = ZINC38597769
REMARK  7 active torsions:
REMARK  status: ('A' for Active; 'I' for Inactive)
REMARK    1  A    between atoms: C_3  and  S_8
REMARK    2  A    between atoms: S_8  and  N_11
REMARK    3  A    between atoms: N_11  and  C_12
REMARK    4  A    between atoms: C_12  and  C_13
REMARK    5  A    between atoms: C_13  and  C_15
REMARK    6  A    between atoms: C_13  and  N_20
REMARK    7  A    between atoms: N_23  and  C_26
REMARK                            x       y       z     vdW  Elec       q    Type
REMARK                         _______ _______ _______ _____ _____    ______ ____
ROOT
ATOM      1  C   UNL     1       5.484   1.900   3.615  0.00  0.00    +0.015 C 
ENDROOT
BRANCH   1   2
ATOM      2  N   UNL     1       6.558   2.885   3.425  0.00  0.00    +0.389 N 
ATOM      3  C   UNL     1       7.696   2.242   2.755  0.00  0.00    -0.059 C 
ATOM      4  C   UNL     1       8.769   3.293   2.454  0.00  0.00    +0.086 C 
ATOM      5  N   UNL     1       9.113   3.982   3.707  0.00  0.00    -0.333 N 
ATOM      6  C   UNL     1       8.015   4.516   4.528  0.00  0.00    +0.086 C 
ATOM      7  C   UNL     1       6.977   3.408   4.732  0.00  0.00    -0.059 C 
ATOM      8  H   UNL     1       6.219   3.644   2.853  0.00  0.00    -0.081 HD
BRANCH   5   9
ATOM      9  C   UNL     1      10.444   4.126   4.107  0.00  0.00    +0.030 A 
ATOM     10  C   UNL     1      11.471   3.722   3.264  0.00  0.00    +0.026 A 
ATOM     11  C   UNL     1      12.786   3.865   3.660  0.00  0.00    +0.040 A 
ATOM     12  C   UNL     1      13.082   4.411   4.898  0.00  0.00    +0.124 A 
ATOM     13  C   UNL     1      12.060   4.814   5.741  0.00  0.00    +0.040 A 
ATOM     14  C   UNL     1      10.743   4.678   5.346  0.00  0.00    +0.026 A 
ATOM     15  F   UNL     1      14.369   4.549   5.285  0.00  0.00    -0.205 F 
ENDBRANCH   5   9
ENDBRANCH   1   2
BRANCH   1  16
ATOM     16  C   UNL     1       5.959   0.813   4.544  0.00  0.00    +0.093 A 
ATOM     17  C   UNL     1       5.285   0.338   5.607  0.00  0.00    +0.043 A 
ATOM     18  C   UNL     1       6.094  -0.666   6.189  0.00  0.00    +0.041 A 
ATOM     19  C   UNL     1       7.213  -0.744   5.446  0.00  0.00    +0.195 A 
ATOM     20  O   UNL     1       7.123   0.150   4.448  0.00  0.00    -0.469 OA
ENDBRANCH   1  16
BRANCH   1  21
ATOM     21  C   UNL     1       5.108   1.288   2.264  0.00  0.00    +0.098 C 
BRANCH  21  22
ATOM     22  N   UNL     1       4.718   2.354   1.337  0.00  0.00    -0.191 NA
ATOM     23  H   UNL     1       4.536   3.246   1.673  0.00  0.00    +0.148 HD
BRANCH  22  24
ATOM     24  S   UNL     1       4.586   2.035  -0.282  0.00  0.00    +0.058 S 
ATOM     25  O   UNL     1       5.775   1.355  -0.660  0.00  0.00    -0.153 OA
ATOM     26  O   UNL     1       4.171   3.245  -0.902  0.00  0.00    -0.153 OA
BRANCH  24  29
ATOM     27  C   UNL     1       0.937   0.446  -0.834  0.00  0.00    +0.003 A 
ATOM     28  C   UNL     1       1.975   1.346  -0.677  0.00  0.00    +0.028 A 
ATOM     29  C   UNL     1       3.264   0.888  -0.482  0.00  0.00    +0.107 A 
ATOM     30  C   UNL     1       3.517  -0.471  -0.445  0.00  0.00    +0.048 A 
ATOM     31  C   UNL     1       2.479  -1.372  -0.602  0.00  0.00    +0.043 A 
ATOM     32  C   UNL     1       1.188  -0.912  -0.796  0.00  0.00    +0.020 A 
ATOM     33 CL   UNL     1       2.795  -3.078  -0.556  0.00  0.00    -0.083 Cl
ENDBRANCH  24  29
ENDBRANCH  22  24
ENDBRANCH  21  22
ENDBRANCH   1  21
TORSDOF 7
