REMARK  Name = ZINC19313194
REMARK  5 active torsions:
REMARK  status: ('A' for Active; 'I' for Inactive)
REMARK    1  A    between atoms: C_1  and  C_2
REMARK    2  A    between atoms: C_2  and  C_26
REMARK    3  A    between atoms: N_10  and  C_13
REMARK    4  A    between atoms: C_13  and  C_14
REMARK    5  A    between atoms: C_13  and  C_20
REMARK                            x       y       z     vdW  Elec       q    Type
REMARK                         _______ _______ _______ _____ _____    ______ ____
ROOT
ATOM      1  C   UNL     1      -3.636   0.884   8.472  0.00  0.00    +0.026 C 
ATOM      2  C   UNL     1      -3.302   0.001   7.268  0.00  0.00    +0.048 C 
ATOM      3  C   UNL     1      -4.386   0.113   6.173  0.00  0.00    +0.133 C 
ATOM      4  N   UNL     1      -3.876   0.652   4.933  0.00  0.00    -0.366 N 
ATOM      5  C   UNL     1      -2.632   0.985   4.789  0.00  0.00    +0.131 C 
ATOM      6  S   UNL     1      -1.849   0.646   6.353  0.00  0.00    -0.083 S 
ATOM      7  N   UNL     1      -2.039   1.501   3.660  0.00  0.00    -0.309 N 
ATOM      8  C   UNL     1      -2.818   1.728   2.434  0.00  0.00    +0.122 C 
ATOM      9  C   UNL     1      -2.084   1.069   1.261  0.00  0.00    +0.104 C 
ATOM     10  N   UNL     1      -0.700   1.560   1.217  0.00  0.00    -0.289 NA
ATOM     11  C   UNL     1       0.039   1.178   2.427  0.00  0.00    +0.104 C 
ATOM     12  C   UNL     1      -0.608   1.841   3.648  0.00  0.00    +0.122 C 
ATOM     13  H   UNL     1      -4.579   0.776   4.097  0.00  0.00    +0.161 HD
ENDROOT
BRANCH   2  14
ATOM     14  C   UNL     1      -3.090  -1.453   7.693  0.00  0.00    +0.099 C 
ATOM     15 BR   UNL     1      -1.540  -1.564   8.898  0.00  0.00    -0.090 Br
ENDBRANCH   2  14
BRANCH  10  16
ATOM     16  C   UNL     1      -0.013   1.086   0.008  0.00  0.00    +0.117 C 
BRANCH  16  17
ATOM     17  C   UNL     1       1.401   1.607  -0.003  0.00  0.00    -0.026 A 
ATOM     18  C   UNL     1       1.663   2.902   0.406  0.00  0.00    +0.005 A 
ATOM     19  C   UNL     1       2.961   3.379   0.401  0.00  0.00    +0.000 A 
ATOM     20  C   UNL     1       3.995   2.565  -0.023  0.00  0.00    +0.000 A 
ATOM     21  C   UNL     1       3.732   1.272  -0.437  0.00  0.00    +0.000 A 
ATOM     22  C   UNL     1       2.435   0.793  -0.426  0.00  0.00    +0.005 A 
ENDBRANCH  16  17
BRANCH  16  23
ATOM     23  C   UNL     1      -0.742   1.585  -1.213  0.00  0.00    -0.026 A 
ATOM     24  C   UNL     1      -1.257   2.868  -1.234  0.00  0.00    +0.005 A 
ATOM     25  C   UNL     1      -1.922   3.327  -2.356  0.00  0.00    +0.000 A 
ATOM     26  C   UNL     1      -2.079   2.501  -3.452  0.00  0.00    +0.000 A 
ATOM     27  C   UNL     1      -1.568   1.216  -3.429  0.00  0.00    +0.000 A 
ATOM     28  C   UNL     1      -0.899   0.759  -2.310  0.00  0.00    +0.005 A 
ENDBRANCH  16  23
ENDBRANCH  10  16
TORSDOF 4
