REMARK  Name = ZINC43408273
REMARK  4 active torsions:
REMARK  status: ('A' for Active; 'I' for Inactive)
REMARK    1  A    between atoms: C_6  and  C_7
REMARK    2  A    between atoms: C_7  and  N_9
REMARK    3  A    between atoms: N_10  and  C_11
REMARK    4  A    between atoms: C_14  and  O_17
REMARK                            x       y       z     vdW  Elec       q    Type
REMARK                         _______ _______ _______ _____ _____    ______ ____
ROOT
ATOM      1  C   UNL     1      -0.015   1.399   0.006  0.00  0.00    +0.019 A 
ATOM      2  C   UNL     1       1.195   2.074   0.001  0.00  0.00    -0.025 A 
ATOM      3  C   UNL     1       2.379   1.357  -0.010  0.00  0.00    +0.047 A 
ATOM      4  N   UNL     1       2.366   0.034  -0.016  0.00  0.00    -0.236 NA
ATOM      5  C   UNL     1       1.241  -0.660  -0.012  0.00  0.00    +0.129 A 
ATOM      6  C   UNL     1      -0.000  -0.000  -0.001  0.00  0.00    +0.043 A 
ATOM      7  N   UNL     1       1.286  -2.042  -0.020  0.00  0.00    -0.326 N 
ATOM      8  C   UNL     1       3.551   2.317  -0.013  0.00  0.00    +0.056 C 
ATOM      9  C   UNL     1       2.962   3.677  -0.444  0.00  0.00    +0.011 C 
ATOM     10  C   UNL     1       1.490   3.557   0.005  0.00  0.00    +0.037 C 
ATOM     11  H   UNL     1       0.465  -2.554   0.059  0.00  0.00    +0.148 HD
ENDROOT
BRANCH   7  12
ATOM     12  C   UNL     1       2.571  -2.734  -0.145  0.00  0.00    +0.072 C 
ATOM     13  C   UNL     1       2.939  -2.860  -1.625  0.00  0.00    +0.025 C 
ATOM     14  C   UNL     1       1.857  -3.660  -2.353  0.00  0.00    +0.033 C 
ATOM     15  C   UNL     1       1.750  -5.054  -1.734  0.00  0.00    +0.115 C 
ATOM     16  C   UNL     1       1.381  -4.928  -0.254  0.00  0.00    +0.033 C 
ATOM     17  C   UNL     1       2.463  -4.128   0.474  0.00  0.00    +0.025 C 
BRANCH  15  18
ATOM     18  O   UNL     1       0.739  -5.801  -2.414  0.00  0.00    -0.392 OA
ATOM     19  H   UNL     1       0.615  -6.697  -2.073  0.00  0.00    +0.210 HD
ENDBRANCH  15  18
ENDBRANCH   7  12
BRANCH   6  20
ATOM     20  C   UNL     1      -1.258  -0.765   0.004  0.00  0.00    +0.080 C 
ATOM     21  S   UNL     1      -2.047  -1.107   1.485  0.00  0.00    -0.035 S 
BRANCH  20  22
ATOM     22  N   UNL     1      -1.790  -1.196  -1.157  0.00  0.00    -0.352 N 
ATOM     23  H   UNL     1      -1.343  -1.002  -1.996  0.00  0.00    +0.143 HD
ATOM     24  H   UNL     1      -2.618  -1.700  -1.154  0.00  0.00    +0.143 HD
ENDBRANCH  20  22
ENDBRANCH   6  20
TORSDOF 4
