REMARK  Name = ZINC20867419
REMARK  5 active torsions:
REMARK  status: ('A' for Active; 'I' for Inactive)
REMARK    1  A    between atoms: C_1  and  C_2
REMARK    2  A    between atoms: C_5  and  N_9
REMARK    3  A    between atoms: C_7  and  C_8
REMARK    4  A    between atoms: N_9  and  C_10
REMARK    5  A    between atoms: C_10  and  C_11
REMARK                            x       y       z     vdW  Elec       q    Type
REMARK                         _______ _______ _______ _____ _____    ______ ____
ROOT
ATOM      1  N   UNL     1       2.367   1.168   0.002  0.00  0.00    -0.277 N 
ATOM      2  C   UNL     1       2.229  -0.201  -0.058  0.00  0.00    +0.136 C 
ATOM      3  N   UNL     1       3.195  -1.108  -0.149  0.00  0.00    -0.362 N 
ATOM      4  C   UNL     1       2.799  -2.487  -0.354  0.00  0.00    +0.117 C 
ATOM      5  C   UNL     1       3.731  -3.619   0.118  0.00  0.00    +0.191 C 
ATOM      6  S   UNL     1       2.515  -5.007   0.281  0.00  0.00    -0.028 S 
ATOM      7  O   UNL     1       2.675  -5.895  -0.817  0.00  0.00    -0.174 OA
ATOM      8  O   UNL     1       2.567  -5.516   1.606  0.00  0.00    -0.174 OA
ATOM      9  C   UNL     1       0.939  -4.044   0.059  0.00  0.00    +0.182 C 
ATOM     10  C   UNL     1       1.470  -2.700   0.471  0.00  0.00    +0.099 C 
ATOM     11  S   UNL     1       0.697  -1.150  -0.039  0.00  0.00    -0.085 S 
ATOM     12  H   UNL     1       4.248  -0.800  -0.068  0.00  0.00    +0.162 HD
ENDROOT
BRANCH   1  17
ATOM     13  C   UNL     1      -2.227   4.466   0.447  0.00  0.00    +0.044 C 
ATOM     14  C   UNL     1      -1.006   3.590   0.329  0.00  0.00    -0.047 A 
ATOM     15  C   UNL     1      -0.258   3.603  -0.834  0.00  0.00    +0.005 A 
ATOM     16  C   UNL     1       0.861   2.801  -0.946  0.00  0.00    +0.024 A 
ATOM     17  C   UNL     1       1.234   1.981   0.112  0.00  0.00    +0.036 A 
ATOM     18  C   UNL     1       0.481   1.971   1.278  0.00  0.00    +0.027 A 
ATOM     19  C   UNL     1      -0.640   2.772   1.381  0.00  0.00    -0.046 A 
ATOM     20  C   UNL     1      -1.462   2.758   2.645  0.00  0.00    +0.044 C 
ENDBRANCH   1  17
BRANCH   1  21
ATOM     21  C   UNL     1       3.700   1.773  -0.048  0.00  0.00    +0.152 C 
BRANCH  21  22
ATOM     22  C   UNL     1       4.187   2.033   1.354  0.00  0.00    +0.024 A 
ATOM     23  C   UNL     1       4.871   1.047   2.045  0.00  0.00    +0.129 A 
ATOM     24  C   UNL     1       5.317   1.288   3.333  0.00  0.00    +0.039 A 
ATOM     25  C   UNL     1       5.081   2.512   3.929  0.00  0.00    +0.004 A 
ATOM     26  C   UNL     1       4.399   3.497   3.239  0.00  0.00    +0.020 A 
ATOM     27  C   UNL     1       3.957   3.260   1.950  0.00  0.00    +0.048 A 
ATOM     28 CL   UNL     1       3.106   4.500   1.082  0.00  0.00    -0.083 Cl
ATOM     29  F   UNL     1       5.101  -0.150   1.462  0.00  0.00    -0.205 F 
ENDBRANCH  21  22
ENDBRANCH   1  21
TORSDOF 3
