REMARK  Name = ZINC05504833
REMARK  7 active torsions:
REMARK  status: ('A' for Active; 'I' for Inactive)
REMARK    1  A    between atoms: C_1  and  C_2
REMARK    2  A    between atoms: N_5  and  C_7
REMARK    3  A    between atoms: C_7  and  C_8
REMARK    4  A    between atoms: C_7  and  C_9
REMARK    5  A    between atoms: C_7  and  C_10
REMARK    6  A    between atoms: C_14  and  C_16
REMARK    7  A    between atoms: C_19  and  C_22
REMARK                            x       y       z     vdW  Elec       q    Type
REMARK                         _______ _______ _______ _____ _____    ______ ____
ROOT
ATOM      1  C   UNL     1      -0.018   1.503   0.010  0.00  0.00    +0.068 C 
ATOM      2  C   UNL     1       0.002  -0.004   0.002  0.00  0.00    +0.066 A 
ATOM      3  C   UNL     1       0.008  -0.811  -1.127  0.00  0.00    +0.027 A 
ATOM      4  C   UNL     1       0.030  -2.116  -0.711  0.00  0.00    +0.126 A 
ATOM      5  N   UNL     1       0.034  -2.116   0.635  0.00  0.00    -0.245 N 
ATOM      6  N   UNL     1       0.023  -0.778   1.061  0.00  0.00    -0.174 NA
ATOM      7  N   UNL     1       0.048  -3.166  -1.621  0.00  0.00    -0.302 N 
ATOM      8  C   UNL     1       0.340  -2.892  -2.933  0.00  0.00    +0.017 C 
ATOM      9  C   UNL     1       0.338  -1.635  -3.428  0.00  0.00    +0.024 C 
ATOM     10  C   UNL     1      -0.008  -0.430  -2.580  0.00  0.00    +0.089 C 
ATOM     11  C   UNL     1       0.667  -1.389  -4.773  0.00  0.00    +0.162 C 
ATOM     12  O   UNL     1       0.650  -0.247  -5.188  0.00  0.00    -0.292 OA
ATOM     13  C   UNL     1       1.039  -2.504  -5.709  0.00  0.00    +0.080 C 
ATOM     14  C   UNL     1       1.663  -3.646  -4.899  0.00  0.00    +0.014 C 
ATOM     15  C   UNL     1       0.664  -4.072  -3.822  0.00  0.00    +0.051 C 
ATOM     16  H   UNL     1      -0.142  -4.073  -1.334  0.00  0.00    +0.153 HD
ENDROOT
BRANCH  10  17
ATOM     17  C   UNL     1      -1.381   0.068  -2.953  0.00  0.00    -0.035 A 
ATOM     18  C   UNL     1      -2.478  -0.762  -2.807  0.00  0.00    +0.005 A 
ATOM     19  C   UNL     1      -3.737  -0.312  -3.147  0.00  0.00    +0.009 A 
ATOM     20  C   UNL     1      -3.903   0.981  -3.639  0.00  0.00    -0.018 A 
ATOM     21  C   UNL     1      -2.794   1.813  -3.785  0.00  0.00    +0.009 A 
ATOM     22  C   UNL     1      -1.540   1.354  -3.436  0.00  0.00    +0.005 A 
BRANCH  20  23
ATOM     23  C   UNL     1      -5.255   1.471  -4.006  0.00  0.00    -0.018 A 
ATOM     24  C   UNL     1      -6.364   0.641  -3.855  0.00  0.00    +0.008 A 
ATOM     25  C   UNL     1      -7.619   1.101  -4.199  0.00  0.00    +0.001 A 
ATOM     26  C   UNL     1      -7.777   2.384  -4.692  0.00  0.00    +0.000 A 
ATOM     27  C   UNL     1      -6.679   3.212  -4.844  0.00  0.00    +0.001 A 
ATOM     28  C   UNL     1      -5.420   2.764  -4.498  0.00  0.00    +0.008 A 
ENDBRANCH  20  23
ENDBRANCH  10  17
BRANCH   5  29
ATOM     29  C   UNL     1       0.053  -3.299   1.499  0.00  0.00    +0.057 C 
ATOM     30  C   UNL     1       1.312  -4.120   1.214  0.00  0.00    +0.036 C 
ATOM     31  C   UNL     1       0.052  -2.860   2.965  0.00  0.00    +0.036 C 
ATOM     32  C   UNL     1      -1.186  -4.153   1.222  0.00  0.00    +0.036 C 
ENDBRANCH   5  29
TORSDOF 3
