REMARK  Name = ZINC12246985
REMARK  10 active torsions:
REMARK  status: ('A' for Active; 'I' for Inactive)
REMARK    1  A    between atoms: C_1  and  C_2
REMARK    2  A    between atoms: C_2  and  C_3
REMARK    3  A    between atoms: C_3  and  C_4
REMARK    4  A    between atoms: C_4  and  C_19
REMARK    5  A    between atoms: N_7  and  C_11
REMARK    6  A    between atoms: C_11  and  C_12
REMARK    7  A    between atoms: C_12  and  C_13
REMARK    8  A    between atoms: C_18  and  N_71
REMARK    9  A    between atoms: C_25  and  C_27
REMARK   10  A    between atoms: C_28  and  C_29
REMARK                            x       y       z     vdW  Elec       q    Type
REMARK                         _______ _______ _______ _____ _____    ______ ____
ROOT
ATOM      1  C   UNL     1      -3.712  -1.276  -4.415  0.00  0.00    +0.115 C 
ATOM      2  C   UNL     1      -3.007  -0.284  -3.511  0.00  0.00    +0.247 C 
ATOM      3  O   UNL     1      -2.635   0.833  -3.800  0.00  0.00    -0.273 OA
ATOM      4  N   UNL     1      -2.879  -0.903  -2.321  0.00  0.00    -0.224 N 
ATOM      5  C   UNL     1      -3.405  -2.132  -2.344  0.00  0.00    +0.309 C 
ATOM      6  O   UNL     1      -3.414  -2.882  -1.388  0.00  0.00    -0.252 OA
ATOM      7  N   UNL     1      -3.925  -2.446  -3.545  0.00  0.00    -0.285 N 
ATOM      8  H   UNL     1      -4.355  -3.280  -3.790  0.00  0.00    +0.151 HD
ENDROOT
BRANCH   1   9
ATOM      9  C   UNL     1      -5.050  -0.709  -4.891  0.00  0.00    +0.024 C 
ATOM     10  C   UNL     1      -4.797   0.434  -5.877  0.00  0.00    +0.025 C 
ATOM     11  C   UNL     1      -6.139   0.977  -6.378  0.00  0.00    +0.108 C 
ATOM     12  N   UNL     1      -6.961   1.351  -5.218  0.00  0.00    -0.298 N 
ATOM     13  C   UNL     1      -7.191   0.353  -4.165  0.00  0.00    +0.108 C 
ATOM     14  C   UNL     1      -5.837  -0.183  -3.688  0.00  0.00    +0.025 C 
ATOM     15  C   UNL     1      -7.492   2.586  -5.123  0.00  0.00    +0.239 C 
ATOM     16  O   UNL     1      -8.239   2.857  -4.202  0.00  0.00    -0.271 OA
BRANCH  15  17
ATOM     17  C   UNL     1      -7.170   3.603  -6.129  0.00  0.00    +0.069 C 
ATOM     18  C   UNL     1      -7.606   4.867  -5.973  0.00  0.00    +0.033 C 
BRANCH  18  19
ATOM     19  C   UNL     1      -7.282   5.889  -6.984  0.00  0.00    +0.064 A 
ATOM     20  C   UNL     1      -7.742   7.198  -6.819  0.00  0.00    +0.028 A 
ATOM     21  C   UNL     1      -7.425   8.147  -7.776  0.00  0.00    +0.004 A 
ATOM     22  C   UNL     1      -6.668   7.756  -8.871  0.00  0.00    +0.020 A 
ATOM     23  C   UNL     1      -6.248   6.440  -8.973  0.00  0.00    +0.111 A 
ATOM     24  N   UNL     1      -6.558   5.558  -8.049  0.00  0.00    -0.256 NA
ENDBRANCH  18  19
ENDBRANCH  15  17
ENDBRANCH   1   9
BRANCH   1  25
ATOM     25  C   UNL     1      -2.830  -1.648  -5.609  0.00  0.00    +0.035 C 
BRANCH  25  27
ATOM     26  C   UNL     1      -0.649  -2.649  -6.302  0.00  0.00    +0.004 C 
ATOM     27  C   UNL     1      -1.530  -2.278  -5.107  0.00  0.00    -0.001 C 
ENDBRANCH  25  27
ENDBRANCH   1  25
BRANCH   4  28
ATOM     28  C   UNL     1      -2.247  -0.300  -1.144  0.00  0.00    +0.116 C 
BRANCH  28  29
ATOM     29  C   UNL     1      -0.752  -0.628  -1.145  0.00  0.00    +0.004 C 
BRANCH  29  30
ATOM     30  C   UNL     1      -0.114  -0.100   0.142  0.00  0.00    -0.068 C 
ATOM     31  C   UNL     1      -0.690  -0.852   1.360  0.00  0.00    -0.017 C 
ATOM     32  C   UNL     1       0.545  -1.019   2.284  0.00  0.00    -0.020 C 
ATOM     33  C   UNL     1       1.680  -1.240   1.252  0.00  0.00    -0.079 C 
ATOM     34  C   UNL     1       1.752  -0.946  -1.158  0.00  0.00    -0.096 C 
ATOM     35  N   UNL     1       1.341  -0.339   0.135  0.00  0.00    +0.380 N 
ATOM     36  H   UNL     1       1.833   0.553   0.258  0.00  0.00    -0.082 HD
ENDBRANCH  29  30
ENDBRANCH  28  29
ENDBRANCH   4  28
TORSDOF 8
