REMARK  Name = ZINC25510677
REMARK  8 active torsions:
REMARK  status: ('A' for Active; 'I' for Inactive)
REMARK    1  A    between atoms: C_1  and  C_2
REMARK    2  A    between atoms: C_2  and  C_3
REMARK    3  A    between atoms: C_8  and  N_9
REMARK    4  A    between atoms: C_10  and  C_12
REMARK    5  A    between atoms: C_12  and  N_13
REMARK    6  A    between atoms: C_19  and  C_21
REMARK    7  A    between atoms: C_21  and  S_22
REMARK    8  A    between atoms: S_22  and  C_23
REMARK                            x       y       z     vdW  Elec       q    Type
REMARK                         _______ _______ _______ _____ _____    ______ ____
ROOT
ATOM      1  N   UNL     1       0.002  -0.004   0.019  0.00  0.00    +0.387 N 
ATOM      2  C   UNL     1       0.551  -0.517  -1.243  0.00  0.00    -0.059 C 
ATOM      3  C   UNL     1       0.723  -2.037  -1.140  0.00  0.00    +0.089 C 
ATOM      4  N   UNL     1      -0.562  -2.626  -0.736  0.00  0.00    -0.304 N 
ATOM      5  C   UNL     1      -1.243  -2.070   0.443  0.00  0.00    +0.089 C 
ATOM      6  C   UNL     1      -1.337  -0.549   0.278  0.00  0.00    -0.059 C 
ATOM      7  C   UNL     1      -1.103  -3.649  -1.428  0.00  0.00    +0.226 C 
ATOM      8  O   UNL     1      -2.164  -4.122  -1.081  0.00  0.00    -0.275 OA
ATOM      9  H   UNL     1       0.662  -0.338   0.832  0.00  0.00    -0.081 HD
ENDROOT
BRANCH   1  10
ATOM     10  C   UNL     1      -0.018   1.465   0.025  0.00  0.00    +0.019 C 
BRANCH  10  12
ATOM     11  N   UNL     1       1.624   3.315   0.004  0.00  0.00    -0.287 N 
ATOM     12  C   UNL     1       1.396   1.986   0.003  0.00  0.00    +0.201 C 
ATOM     13  O   UNL     1       2.328   1.211  -0.017  0.00  0.00    -0.278 OA
ATOM     14  H   UNL     1       0.781   4.018  -0.070  0.00  0.00    +0.155 HD
BRANCH  11  20
ATOM     15  C   UNL     1       3.247   5.059  -0.392  0.00  0.00    -0.026 A 
ATOM     16  C   UNL     1       4.540   5.535  -0.296  0.00  0.00    +0.005 A 
ATOM     17  C   UNL     1       5.522   4.758   0.290  0.00  0.00    +0.000 A 
ATOM     18  C   UNL     1       5.213   3.502   0.781  0.00  0.00    +0.002 A 
ATOM     19  C   UNL     1       3.921   3.023   0.693  0.00  0.00    +0.023 A 
ATOM     20  C   UNL     1       2.933   3.799   0.100  0.00  0.00    +0.036 A 
BRANCH  15  22
ATOM     21  C   UNL     1       1.424   6.680   0.056  0.00  0.00    +0.009 C 
ATOM     22  C   UNL     1       2.177   5.907  -1.030  0.00  0.00    +0.033 C 
ENDBRANCH  15  22
ENDBRANCH  11  20
ENDBRANCH  10  12
ENDBRANCH   1  10
BRANCH   7  23
ATOM     23  C   UNL     1      -0.388  -4.204  -2.634  0.00  0.00    +0.170 C 
BRANCH  23  24
ATOM     24  S   UNL     1      -1.361  -5.561  -3.341  0.00  0.00    -0.116 S 
BRANCH  24  25
ATOM     25  C   UNL     1      -0.406  -6.095  -4.722  0.00  0.00    +0.012 A 
ATOM     26  C   UNL     1       0.795  -5.465  -5.021  0.00  0.00    +0.018 A 
ATOM     27  C   UNL     1       1.550  -5.885  -6.100  0.00  0.00    +0.050 A 
ATOM     28  C   UNL     1       1.100  -6.929  -6.891  0.00  0.00    +0.162 A 
ATOM     29  C   UNL     1      -0.102  -7.558  -6.598  0.00  0.00    +0.163 A 
ATOM     30  C   UNL     1      -0.858  -7.143  -5.516  0.00  0.00    +0.064 A 
ATOM     31  O   UNL     1      -0.534  -8.586  -7.384  0.00  0.00    -0.488 OA
ATOM     32  C   UNL     1      -0.920  -8.237  -8.715  0.00  0.00    +0.232 C 
ATOM     33  C   UNL     1       0.291  -8.192  -9.634  0.00  0.00    +0.082 C 
ATOM     34  C   UNL     1       1.270  -7.093  -9.248  0.00  0.00    +0.232 C 
ATOM     35  O   UNL     1       1.837  -7.348  -7.962  0.00  0.00    -0.488 OA
ENDBRANCH  24  25
ENDBRANCH  23  24
ENDBRANCH   7  23
TORSDOF 7
