REMARK  Name = ZINC00661030
REMARK  10 active torsions:
REMARK  status: ('A' for Active; 'I' for Inactive)
REMARK    1  A    between atoms: C_1  and  C_2
REMARK    2  A    between atoms: C_2  and  O_3
REMARK    3  A    between atoms: O_3  and  C_4
REMARK    4  A    between atoms: C_6  and  C_22
REMARK    5  A    between atoms: C_9  and  O_10
REMARK    6  A    between atoms: O_10  and  C_11
REMARK    7  A    between atoms: C_11  and  C_12
REMARK    8  A    between atoms: C_25  and  C_36
REMARK    9  A    between atoms: C_31  and  N_35
REMARK   10  A    between atoms: C_32  and  C_33
REMARK                            x       y       z     vdW  Elec       q    Type
REMARK                         _______ _______ _______ _____ _____    ______ ____
ROOT
ATOM      1  C   UNL     1       2.760   3.899  -0.003  0.00  0.00    +0.162 A 
ATOM      2  C   UNL     1       2.918   5.276   0.003  0.00  0.00    +0.054 A 
ATOM      3  C   UNL     1       1.807   6.098   0.018  0.00  0.00    -0.031 A 
ATOM      4  C   UNL     1       0.537   5.551   0.026  0.00  0.00    +0.008 A 
ATOM      5  C   UNL     1       0.373   4.178   0.015  0.00  0.00    +0.050 A 
ATOM      6  C   UNL     1       1.482   3.348   0.006  0.00  0.00    +0.162 A 
ENDROOT
BRANCH   3   7
ATOM      7  C   UNL     1       1.980   7.595   0.024  0.00  0.00    +0.101 C 
ATOM      8  C   UNL     1       1.333   8.177   1.254  0.00  0.00    +0.049 A 
ATOM      9  C   UNL     1       1.746   8.114   2.578  0.00  0.00    +0.068 A 
ATOM     10  N   UNL     1       0.871   8.763   3.309  0.00  0.00    -0.176 NA
ATOM     11  N   UNL     1      -0.132   9.260   2.463  0.00  0.00    -0.246 N 
ATOM     12  H   UNL     1      -0.929   9.794   2.745  0.00  0.00    +0.192 HD
ATOM     13  C   UNL     1       0.169   8.892   1.208  0.00  0.00    +0.222 A 
ATOM     14  O   UNL     1      -0.494   9.137   0.050  0.00  0.00    -0.423 OA
ATOM     15  C   UNL     1       0.157   8.895  -1.106  0.00  0.00    +0.200 C 
ATOM     16  C   UNL     1       1.309   8.191  -1.188  0.00  0.00    +0.098 C 
ATOM     17  C   UNL     1       2.984   7.422   3.087  0.00  0.00    +0.068 C 
BRANCH  15  18
ATOM     18  N   UNL     1      -0.380   9.393  -2.267  0.00  0.00    -0.328 N 
ATOM     19  H   UNL     1      -1.204   9.903  -2.240  0.00  0.00    +0.145 HD
ATOM     20  H   UNL     1       0.066   9.236  -3.114  0.00  0.00    +0.145 HD
ENDBRANCH  15  18
BRANCH  16  21
ATOM     21  C   UNL     1       1.913   8.002  -2.473  0.00  0.00    +0.101 C 
ATOM     22  N   UNL     1       2.393   7.853  -3.492  0.00  0.00    -0.191 NA
ENDBRANCH  16  21
ENDBRANCH   3   7
BRANCH   1  23
ATOM     23  O   UNL     1       3.852   3.088  -0.019  0.00  0.00    -0.489 OA
BRANCH  23  25
ATOM     24  C   UNL     1       6.230   2.658  -0.044  0.00  0.00    +0.048 C 
ATOM     25  C   UNL     1       5.132   3.723  -0.027  0.00  0.00    +0.226 C 
ENDBRANCH  23  25
ENDBRANCH   1  23
BRANCH   6  26
ATOM     26  O   UNL     1       1.322   1.997   0.000  0.00  0.00    -0.484 OA
BRANCH  26  27
ATOM     27  C   UNL     1      -0.018   1.503   0.010  0.00  0.00    +0.264 C 
BRANCH  27  28
ATOM     28  C   UNL     1       0.002  -0.004   0.002  0.00  0.00    -0.010 A 
ATOM     29  C   UNL     1      -0.006  -0.684  -1.215  0.00  0.00    +0.007 A 
ATOM     30  C   UNL     1       0.018  -2.044  -1.257  0.00  0.00    +0.009 A 
ATOM     31  C   UNL     1       0.038  -2.777  -0.059  0.00  0.00    -0.018 A 
ATOM     32  C   UNL     1       0.056  -4.182  -0.063  0.00  0.00    +0.008 A 
ATOM     33  C   UNL     1       0.076  -4.859   1.118  0.00  0.00    +0.001 A 
ATOM     34  C   UNL     1       0.079  -4.179   2.335  0.00  0.00    +0.001 A 
ATOM     35  C   UNL     1       0.062  -2.819   2.377  0.00  0.00    +0.008 A 
ATOM     36  C   UNL     1       0.041  -2.086   1.179  0.00  0.00    -0.018 A 
ATOM     37  C   UNL     1       0.022  -0.681   1.183  0.00  0.00    +0.015 A 
ENDBRANCH  27  28
ENDBRANCH  26  27
ENDBRANCH   6  26
TORSDOF 8
