REMARK  Name = ZINC40814558
REMARK  7 active torsions:
REMARK  status: ('A' for Active; 'I' for Inactive)
REMARK    1  A    between atoms: C_1  and  C_2
REMARK    2  A    between atoms: C_6  and  C_7
REMARK    3  A    between atoms: C_18  and  C_20
REMARK    4  A    between atoms: N_26  and  N_27
REMARK    5  A    between atoms: C_28  and  C_30
REMARK    6  A    between atoms: C_30  and  C_31
REMARK    7  A    between atoms: C_34  and  N_37
REMARK                            x       y       z     vdW  Elec       q    Type
REMARK                         _______ _______ _______ _____ _____    ______ ____
ROOT
ATOM      1  C   UNL     1       0.550   0.193  -0.291  0.00  0.00    +0.048 C 
ATOM      2  C   UNL     1      -0.578  -0.766  -0.011  0.00  0.00    +0.009 A 
ATOM      3  C   UNL     1      -1.310  -1.500  -0.952  0.00  0.00    +0.042 A 
ATOM      4  C   UNL     1      -2.240  -2.243  -0.263  0.00  0.00    +0.115 A 
ATOM      5  O   UNL     1      -2.092  -1.986   1.035  0.00  0.00    -0.454 OA
ATOM      6  C   UNL     1      -1.089  -1.097   1.214  0.00  0.00    +0.193 A 
ATOM      7  C   UNL     1      -3.223  -3.162  -0.943  0.00  0.00    +0.075 C 
ATOM      8  C   UNL     1      -3.368  -2.754  -2.411  0.00  0.00    +0.014 C 
ATOM      9  C   UNL     1      -1.996  -2.675  -3.089  0.00  0.00    +0.058 C 
ATOM     10  C   UNL     1      -1.202  -1.558  -2.426  0.00  0.00    +0.070 C 
ATOM     11  N   UNL     1      -0.483  -0.719  -3.105  0.00  0.00    -0.184 NA
ENDROOT
BRANCH   6  12
ATOM     12  C   UNL     1      -0.627  -0.574   2.504  0.00  0.00    +0.287 C 
ATOM     13  O   UNL     1      -0.433   0.619   2.643  0.00  0.00    -0.266 OA
ATOM     14  N   UNL     1      -0.418  -1.415   3.536  0.00  0.00    -0.262 N 
ATOM     15  C   UNL     1      -0.448  -2.803   3.342  0.00  0.00    +0.040 A 
ATOM     16  C   UNL     1      -0.411  -3.306   2.046  0.00  0.00    +0.026 A 
ATOM     17  C   UNL     1      -0.444  -4.669   1.831  0.00  0.00    +0.040 A 
ATOM     18  C   UNL     1      -0.513  -5.535   2.910  0.00  0.00    +0.124 A 
ATOM     19  C   UNL     1      -0.547  -5.037   4.199  0.00  0.00    +0.043 A 
ATOM     20  C   UNL     1      -0.513  -3.670   4.421  0.00  0.00    -0.023 A 
ATOM     21  C   UNL     1      -0.543  -3.162   5.838  0.00  0.00    +0.039 C 
ATOM     22  C   UNL     1      -1.002  -1.704   5.874  0.00  0.00    +0.027 C 
ATOM     23  C   UNL     1      -0.150  -0.893   4.883  0.00  0.00    +0.079 C 
ATOM     24  C   UNL     1      -0.540   0.585   4.953  0.00  0.00    +0.028 C 
ATOM     25  F   UNL     1      -0.547  -6.870   2.701  0.00  0.00    -0.205 F 
ENDBRANCH   6  12
BRANCH  11  26
ATOM     26  N   UNL     1      -0.417  -0.821  -4.501  0.00  0.00    -0.206 N 
ATOM     27  C   UNL     1       0.330   0.052  -5.206  0.00  0.00    +0.237 C 
ATOM     28  O   UNL     1       0.946   0.925  -4.632  0.00  0.00    -0.274 OA
ATOM     29  H   UNL     1      -0.909  -1.520  -4.960  0.00  0.00    +0.177 HD
BRANCH  27  30
ATOM     30  C   UNL     1       0.401  -0.058  -6.707  0.00  0.00    +0.132 C 
BRANCH  30  31
ATOM     31  C   UNL     1       1.296   1.027  -7.249  0.00  0.00    -0.038 A 
ATOM     32  C   UNL     1       0.762   2.256  -7.590  0.00  0.00    +0.006 A 
ATOM     33  C   UNL     1       1.583   3.251  -8.086  0.00  0.00    +0.033 A 
ATOM     34  C   UNL     1       2.937   3.018  -8.242  0.00  0.00    +0.126 A 
ATOM     35  C   UNL     1       3.470   1.789  -7.900  0.00  0.00    +0.033 A 
ATOM     36  C   UNL     1       2.650   0.795  -7.399  0.00  0.00    +0.006 A 
BRANCH  34  37
ATOM     37  N   UNL     1       3.815   4.083  -8.774  0.00  0.00    +0.056 N 
ATOM     38  O   UNL     1       3.349   5.158  -9.074  0.00  0.00    -0.126 OA
ATOM     39  O   UNL     1       4.999   3.879  -8.910  0.00  0.00    -0.126 OA
ENDBRANCH  34  37
ENDBRANCH  30  31
ENDBRANCH  27  30
ENDBRANCH  11  26
TORSDOF 5
