REMARK  Name = ZINC65291167
REMARK  7 active torsions:
REMARK  status: ('A' for Active; 'I' for Inactive)
REMARK    1  A    between atoms: C_1  and  C_2
REMARK    2  A    between atoms: C_2  and  C_3
REMARK    3  A    between atoms: C_3  and  N_4
REMARK    4  A    between atoms: C_5  and  C_7
REMARK    5  A    between atoms: N_15  and  C_16
REMARK    6  A    between atoms: N_19  and  C_22
REMARK    7  A    between atoms: C_22  and  C_23
REMARK                            x       y       z     vdW  Elec       q    Type
REMARK                         _______ _______ _______ _____ _____    ______ ____
ROOT
ATOM      1  C   UNL     1       0.746  -3.994  -2.534  0.00  0.00    +0.092 C 
ATOM      2  C   UNL     1       1.484  -4.472  -3.787  0.00  0.00    +0.016 C 
ATOM      3  C   UNL     1       1.635  -5.994  -3.742  0.00  0.00    +0.020 C 
ATOM      4  C   UNL     1       0.247  -6.641  -3.723  0.00  0.00    +0.109 C 
ATOM      5  N   UNL     1      -0.522  -6.078  -2.604  0.00  0.00    -0.285 N 
ATOM      6  C   UNL     1      -0.653  -4.619  -2.501  0.00  0.00    +0.122 C 
ATOM      7  C   UNL     1      -1.096  -6.886  -1.691  0.00  0.00    +0.302 C 
ATOM      8  O   UNL     1      -1.656  -6.407  -0.723  0.00  0.00    -0.253 OA
ATOM      9  N   UNL     1      -1.048  -8.223  -1.849  0.00  0.00    -0.297 N 
ATOM     10  H   UNL     1      -0.540  -8.607  -2.580  0.00  0.00    +0.151 HD
ENDROOT
BRANCH   9  11
ATOM     11  C   UNL     1      -1.765  -9.097  -0.916  0.00  0.00    +0.071 C 
ATOM     12  C   UNL     1      -0.886  -9.368   0.309  0.00  0.00    +0.004 C 
ATOM     13  C   UNL     1      -1.607 -10.344   1.241  0.00  0.00    -0.077 C 
ATOM     14  N   UNL     1      -1.864 -11.604   0.533  0.00  0.00    +0.380 N 
ATOM     15  C   UNL     1      -2.764 -11.363  -0.602  0.00  0.00    -0.077 C 
ATOM     16  C   UNL     1      -2.087 -10.426  -1.605  0.00  0.00    +0.004 C 
ATOM     17  H   UNL     1      -0.992 -11.982   0.194  0.00  0.00    -0.082 HD
BRANCH  14  18
ATOM     18  C   UNL     1      -2.486 -12.564   1.454  0.00  0.00    -0.075 C 
BRANCH  18  19
ATOM     19  C   UNL     1      -2.620 -13.921   0.762  0.00  0.00    -0.028 C 
ATOM     20  C   UNL     1      -3.340 -14.900   1.692  0.00  0.00    +0.002 C 
ATOM     21  C   UNL     1      -3.474 -16.257   1.000  0.00  0.00    +0.000 C 
ATOM     22  C   UNL     1      -2.083 -16.800   0.667  0.00  0.00    +0.000 C 
ATOM     23  C   UNL     1      -1.364 -15.822  -0.264  0.00  0.00    +0.000 C 
ATOM     24  C   UNL     1      -1.229 -14.464   0.428  0.00  0.00    +0.002 C 
ENDBRANCH  18  19
ENDBRANCH  14  18
ENDBRANCH   9  11
BRANCH   1  26
ATOM     25  N   UNL     1       0.004  -1.846  -1.556  0.00  0.00    -0.315 N 
ATOM     26  C   UNL     1       0.625  -2.492  -2.563  0.00  0.00    +0.218 C 
ATOM     27  O   UNL     1       1.087  -1.865  -3.493  0.00  0.00    -0.275 OA
ATOM     28  H   UNL     1      -0.365  -2.348  -0.813  0.00  0.00    +0.149 HD
BRANCH  25  29
ATOM     29  C   UNL     1      -0.113  -0.386  -1.585  0.00  0.00    +0.104 C 
BRANCH  29  31
ATOM     30  C   UNL     1      -0.977   1.615  -0.364  0.00  0.00    +0.005 C 
ATOM     31  C   UNL     1      -0.855   0.090  -0.335  0.00  0.00    +0.015 C 
ENDBRANCH  29  31
ENDBRANCH  25  29
ENDBRANCH   1  26
TORSDOF 6
