REMARK  Name = ZINC47136208
REMARK  4 active torsions:
REMARK  status: ('A' for Active; 'I' for Inactive)
REMARK    1  A    between atoms: C_10  and  C_11
REMARK    2  A    between atoms: C_11  and  S_12
REMARK    3  A    between atoms: S_12  and  C_13
REMARK    4  A    between atoms: N_18  and  C_19
REMARK                            x       y       z     vdW  Elec       q    Type
REMARK                         _______ _______ _______ _____ _____    ______ ____
ROOT
ATOM      1  C   UNL     1       6.998   1.367   1.482  0.00  0.00    +0.160 A 
ATOM      2  N   UNL     1       7.614   1.755   0.382  0.00  0.00    -0.133 NA
ATOM      3  N   UNL     1       8.793   2.460   0.470  0.00  0.00    -0.125 NA
ATOM      4  C   UNL     1       9.300   2.744   1.653  0.00  0.00    +0.185 A 
ATOM      5  S   UNL     1       8.090   2.008   2.742  0.00  0.00    -0.024 S 
ATOM      6  N   UNL     1      10.464   3.436   1.970  0.00  0.00    -0.283 N 
ATOM      7  H   UNL     1      10.712   3.569   2.898  0.00  0.00    +0.152 HD
ENDROOT
BRANCH   6   8
ATOM      8  C   UNL     1      11.315   3.965   0.901  0.00  0.00    +0.298 C 
ATOM      9  C   UNL     1      12.767   3.781   1.260  0.00  0.00    +0.025 A 
ATOM     10  C   UNL     1      13.547   2.679   1.520  0.00  0.00    +0.010 A 
ATOM     11  C   UNL     1      14.888   2.839   1.829  0.00  0.00    +0.000 A 
ATOM     12  C   UNL     1      15.446   4.104   1.878  0.00  0.00    +0.001 A 
ATOM     13  C   UNL     1      14.673   5.217   1.619  0.00  0.00    +0.015 A 
ATOM     14  C   UNL     1      13.322   5.064   1.306  0.00  0.00    +0.067 A 
ATOM     15  C   UNL     1      12.251   6.025   0.987  0.00  0.00    +0.342 C 
ATOM     16  O   UNL     1      12.389   7.231   0.939  0.00  0.00    -0.245 OA
ATOM     17  O   UNL     1      11.100   5.371   0.755  0.00  0.00    -0.435 OA
ENDBRANCH   6   8
BRANCH   1  18
ATOM     18  S   UNL     1       5.496   0.464   1.661  0.00  0.00    -0.092 S 
BRANCH  18  19
ATOM     19  C   UNL     1       4.960   0.161  -0.046  0.00  0.00    +0.112 C 
BRANCH  19  29
ATOM     20  C   UNL     1      -0.016   1.357   0.009  0.00  0.00    +0.001 A 
ATOM     21  C   UNL     1       1.169   2.091   0.002  0.00  0.00    +0.001 A 
ATOM     22  C   UNL     1       2.378   1.468  -0.013  0.00  0.00    +0.009 A 
ATOM     23  C   UNL     1       2.438   0.064  -0.021  0.00  0.00    -0.014 A 
ATOM     24  C   UNL     1       1.233  -0.683  -0.013  0.00  0.00    -0.018 A 
ATOM     25  C   UNL     1       0.002  -0.004   0.002  0.00  0.00    +0.008 A 
ATOM     26  C   UNL     1       1.292  -2.087  -0.021  0.00  0.00    +0.008 A 
ATOM     27  C   UNL     1       2.502  -2.709  -0.036  0.00  0.00    +0.001 A 
ATOM     28  C   UNL     1       3.687  -1.976  -0.043  0.00  0.00    +0.005 A 
ATOM     29  C   UNL     1       3.668  -0.615  -0.037  0.00  0.00    -0.029 A 
ENDBRANCH  19  29
ENDBRANCH  18  19
ENDBRANCH   1  18
TORSDOF 4
