REMARK  Name = ZINC16818909
REMARK  14 active torsions:
REMARK  status: ('A' for Active; 'I' for Inactive)
REMARK    1  A    between atoms: C_1  and  C_2
REMARK    2  A    between atoms: C_2  and  O_3
REMARK    3  A    between atoms: O_3  and  C_4
REMARK    4  A    between atoms: C_7  and  N_10
REMARK    5  A    between atoms: C_11  and  C_13
REMARK    6  A    between atoms: C_13  and  C_15
REMARK    7  A    between atoms: C_13  and  O_16
REMARK    8  A    between atoms: O_16  and  C_17
REMARK    9  A    between atoms: C_17  and  C_19
REMARK   10  A    between atoms: C_21  and  N_29
REMARK   11  A    between atoms: C_24  and  N_25
REMARK   12  A    between atoms: N_25  and  C_26
REMARK   13  A    between atoms: C_26  and  C_27
REMARK   14  A    between atoms: C_27  and  O_28
REMARK                            x       y       z     vdW  Elec       q    Type
REMARK                         _______ _______ _______ _____ _____    ______ ____
ROOT
ATOM      1  C   UNL     1      -4.532   1.091  -0.379  0.00  0.00    +0.342 C 
ATOM      2  O   UNL     1      -5.575   1.652  -0.110  0.00  0.00    -0.245 OA
ENDROOT
BRANCH   1   3
ATOM      3  C   UNL     1      -3.296   1.874  -0.548  0.00  0.00    +0.082 A 
ATOM      4  C   UNL     1      -2.073   1.225  -0.739  0.00  0.00    +0.049 A 
ATOM      5  C   UNL     1      -0.921   1.964  -0.897  0.00  0.00    +0.127 A 
ATOM      6  C   UNL     1      -0.966   3.349  -0.863  0.00  0.00    +0.034 A 
ATOM      7  C   UNL     1      -2.167   4.004  -0.681  0.00  0.00    +0.026 A 
ATOM      8  C   UNL     1      -3.340   3.277  -0.520  0.00  0.00    +0.041 A 
BRANCH   5   9
ATOM      9  N   UNL     1       0.374   1.274  -1.098  0.00  0.00    +0.056 N 
ATOM     10  O   UNL     1       0.418   0.058  -1.123  0.00  0.00    -0.126 OA
ATOM     11  O   UNL     1       1.393   1.924  -1.243  0.00  0.00    -0.126 OA
ENDBRANCH   5   9
BRANCH   8  12
ATOM     12  N   UNL     1      -4.548   3.934  -0.332  0.00  0.00    -0.341 N 
ATOM     13  H   UNL     1      -5.349   3.427  -0.128  0.00  0.00    +0.146 HD
BRANCH  12  14
ATOM     14  C   UNL     1      -4.613   5.394  -0.440  0.00  0.00    +0.129 C 
BRANCH  14  15
ATOM     15  C   UNL     1      -6.048   5.861  -0.191  0.00  0.00    +0.174 C 
BRANCH  15  16
ATOM     16  O   UNL     1      -6.417   5.565   1.158  0.00  0.00    -0.393 OA
ATOM     17  H   UNL     1      -7.317   5.835   1.387  0.00  0.00    +0.209 HD
ENDBRANCH  15  16
ENDBRANCH  14  15
ENDBRANCH  12  14
ENDBRANCH   8  12
ENDBRANCH   1   3
BRANCH   1  18
ATOM     18  O   UNL     1      -4.505  -0.249  -0.521  0.00  0.00    -0.449 OA
BRANCH  18  19
ATOM     19  C   UNL     1      -5.760  -0.957  -0.340  0.00  0.00    +0.259 C 
ATOM     20  C   UNL     1      -6.486  -1.061  -1.683  0.00  0.00    +0.062 C 
BRANCH  19  22
ATOM     21  N   UNL     1      -6.508  -3.183   0.437  0.00  0.00    -0.282 N 
ATOM     22  C   UNL     1      -5.485  -2.340   0.191  0.00  0.00    +0.258 C 
ATOM     23  O   UNL     1      -4.344  -2.695   0.396  0.00  0.00    -0.271 OA
ATOM     24  H   UNL     1      -7.414  -2.928   0.203  0.00  0.00    +0.155 HD
BRANCH  21  28
ATOM     25  C   UNL     1      -5.776  -6.887   2.206  0.00  0.00    +0.121 A 
ATOM     26  C   UNL     1      -4.991  -5.793   2.539  0.00  0.00    +0.047 A 
ATOM     27  C   UNL     1      -5.233  -4.566   1.954  0.00  0.00    +0.027 A 
ATOM     28  C   UNL     1      -6.262  -4.427   1.032  0.00  0.00    +0.034 A 
ATOM     29  C   UNL     1      -7.050  -5.522   0.703  0.00  0.00    +0.027 A 
ATOM     30  C   UNL     1      -6.804  -6.750   1.285  0.00  0.00    +0.047 A 
BRANCH  25  31
ATOM     31  O   UNL     1      -5.537  -8.095   2.783  0.00  0.00    -0.492 OA
BRANCH  31  33
ATOM     32  C   UNL     1      -5.967 -10.446   3.142  0.00  0.00    +0.048 C 
ATOM     33  C   UNL     1      -6.384  -9.178   2.394  0.00  0.00    +0.225 C 
ENDBRANCH  31  33
ENDBRANCH  25  31
ENDBRANCH  21  28
ENDBRANCH  19  22
ENDBRANCH  18  19
ENDBRANCH   1  18
TORSDOF 12
