REMARK  Name = ZINC35926415
REMARK  4 active torsions:
REMARK  status: ('A' for Active; 'I' for Inactive)
REMARK    1  A    between atoms: C_5  and  N_7
REMARK    2  A    between atoms: N_10  and  C_13
REMARK    3  A    between atoms: C_13  and  C_14
REMARK    4  A    between atoms: C_29  and  C_31
REMARK                            x       y       z     vdW  Elec       q    Type
REMARK                         _______ _______ _______ _____ _____    ______ ____
ROOT
ATOM      1  C   UNL     1       2.870  -5.504  -2.134  0.00  0.00    +0.034 A 
ATOM      2  C   UNL     1       3.779  -5.761  -3.119  0.00  0.00    +0.091 A 
ATOM      3  C   UNL     1       3.583  -6.878  -3.950  0.00  0.00    +0.253 A 
ATOM      4  O   UNL     1       4.376  -7.137  -4.840  0.00  0.00    -0.268 OA
ATOM      5  N   UNL     1       2.500  -7.658  -3.743  0.00  0.00    -0.295 N 
ATOM      6  H   UNL     1       2.346  -8.434  -4.304  0.00  0.00    +0.172 HD
ATOM      7  C   UNL     1       1.628  -7.353  -2.745  0.00  0.00    +0.198 A 
ATOM      8  N   UNL     1       1.821  -6.306  -1.967  0.00  0.00    -0.223 NA
ATOM      9  N   UNL     1       0.533  -8.149  -2.542  0.00  0.00    -0.300 N 
ATOM     10  C   UNL     1      -0.399  -7.793  -1.461  0.00  0.00    +0.109 C 
ATOM     11  C   UNL     1      -1.865  -7.927  -1.880  0.00  0.00    +0.038 C 
ATOM     12  C   UNL     1      -2.061  -7.403  -3.288  0.00  0.00    +0.109 C 
ATOM     13  N   UNL     1      -1.777  -8.495  -4.220  0.00  0.00    -0.296 N 
ATOM     14  C   UNL     1      -0.475  -8.869  -4.650  0.00  0.00    +0.127 C 
ATOM     15  C   UNL     1       0.345  -9.299  -3.409  0.00  0.00    +0.127 C 
ATOM     16  C   UNL     1      -2.823  -9.193  -4.705  0.00  0.00    +0.253 C 
ATOM     17  O   UNL     1      -2.648 -10.023  -5.578  0.00  0.00    -0.269 OA
ENDROOT
BRANCH  16  18
ATOM     18  C   UNL     1      -4.171  -8.954  -4.180  0.00  0.00    +0.074 A 
ATOM     19  C   UNL     1      -5.386  -9.440  -4.638  0.00  0.00    +0.021 A 
ATOM     20  C   UNL     1      -6.494  -9.037  -3.932  0.00  0.00    +0.008 A 
ATOM     21  C   UNL     1      -6.333  -8.215  -2.866  0.00  0.00    +0.046 A 
ATOM     22  S   UNL     1      -4.674  -7.969  -2.782  0.00  0.00    -0.092 S 
ENDBRANCH  16  18
BRANCH   1  23
ATOM     23  C   UNL     1       3.057  -4.313  -1.229  0.00  0.00    -0.022 C 
BRANCH  23  27
ATOM     24  N   UNL     1       0.780  -0.894  -2.025  0.00  0.00    -0.332 N 
ATOM     25  C   UNL     1       0.872  -1.324  -0.621  0.00  0.00    +0.086 C 
ATOM     26  C   UNL     1       2.078  -2.258  -0.477  0.00  0.00    -0.059 C 
ATOM     27  N   UNL     1       1.960  -3.359  -1.441  0.00  0.00    +0.385 N 
ATOM     28  C   UNL     1       2.029  -2.834  -2.811  0.00  0.00    -0.059 C 
ATOM     29  C   UNL     1       0.815  -1.929  -3.070  0.00  0.00    +0.086 C 
ATOM     30  H   UNL     1       1.078  -3.830  -1.307  0.00  0.00    -0.081 HD
BRANCH  24  35
ATOM     31  C   UNL     1      -0.719   2.372  -2.796  0.00  0.00    +0.002 A 
ATOM     32  C   UNL     1       0.413   3.136  -3.013  0.00  0.00    +0.002 A 
ATOM     33  C   UNL     1       1.668   2.564  -2.903  0.00  0.00    +0.022 A 
ATOM     34  C   UNL     1       1.794   1.228  -2.576  0.00  0.00    +0.062 A 
ATOM     35  C   UNL     1       0.657   0.458  -2.356  0.00  0.00    +0.048 A 
ATOM     36  C   UNL     1      -0.601   1.036  -2.467  0.00  0.00    +0.024 A 
ATOM     37 CL   UNL     1       3.369   0.510  -2.439  0.00  0.00    -0.082 Cl
ENDBRANCH  24  35
ENDBRANCH  23  27
ENDBRANCH   1  23
TORSDOF 4
