REMARK  Name = ZINC30969633
REMARK  7 active torsions:
REMARK  status: ('A' for Active; 'I' for Inactive)
REMARK    1  A    between atoms: C_1  and  C_2
REMARK    2  A    between atoms: C_2  and  C_4
REMARK    3  A    between atoms: C_9  and  N_10
REMARK    4  A    between atoms: C_11  and  C_13
REMARK    5  A    between atoms: C_13  and  N_14
REMARK    6  A    between atoms: C_17  and  C_21
REMARK    7  A    between atoms: C_17  and  C_22
REMARK                            x       y       z     vdW  Elec       q    Type
REMARK                         _______ _______ _______ _____ _____    ______ ____
ROOT
ATOM      1  C   UNL     1      -2.618  -2.810  -0.006  0.00  0.00    +0.214 C 
ENDROOT
BRANCH   1   2
ATOM      2  N   UNL     1      -2.382  -4.251   0.115  0.00  0.00    -0.215 N 
ATOM      3  C   UNL     1      -2.393  -4.925   1.282  0.00  0.00    +0.251 C 
ATOM      4  O   UNL     1      -2.591  -4.470   2.389  0.00  0.00    -0.272 OA
ATOM      5  C   UNL     1      -2.106  -6.369   0.925  0.00  0.00    +0.135 C 
ATOM      6  N   UNL     1      -1.952  -6.339  -0.540  0.00  0.00    -0.281 N 
ATOM      7  C   UNL     1      -2.135  -5.062  -0.920  0.00  0.00    +0.310 C 
ATOM      8  O   UNL     1      -2.079  -4.686  -2.074  0.00  0.00    -0.252 OA
ATOM      9  C   UNL     1      -3.280  -7.266   1.324  0.00  0.00    +0.047 C 
ATOM     10  H   UNL     1      -1.729  -7.266  -1.089  0.00  0.00    +0.152 HD
BRANCH   5  11
ATOM     11  C   UNL     1      -0.833  -6.835   1.582  0.00  0.00    -0.015 A 
ATOM     12  C   UNL     1      -0.440  -6.290   2.790  0.00  0.00    +0.009 A 
ATOM     13  C   UNL     1       0.725  -6.720   3.397  0.00  0.00    +0.039 A 
ATOM     14  C   UNL     1       1.504  -7.690   2.789  0.00  0.00    +0.123 A 
ATOM     15  C   UNL     1       1.112  -8.232   1.577  0.00  0.00    +0.039 A 
ATOM     16  C   UNL     1      -0.056  -7.804   0.975  0.00  0.00    +0.009 A 
ATOM     17  F   UNL     1       2.646  -8.108   3.379  0.00  0.00    -0.205 F 
ENDBRANCH   5  11
ENDBRANCH   1   2
BRANCH   1  19
ATOM     18  N   UNL     1      -1.278  -0.731   0.022  0.00  0.00    -0.283 N 
ATOM     19  C   UNL     1      -1.306  -2.076   0.105  0.00  0.00    +0.235 C 
ATOM     20  O   UNL     1      -0.276  -2.695   0.269  0.00  0.00    -0.274 OA
ATOM     21  H   UNL     1      -2.218  -0.164  -0.039  0.00  0.00    +0.155 HD
BRANCH  18  27
ATOM     22  C   UNL     1       0.062   1.195   0.638  0.00  0.00    +0.042 A 
ATOM     23  C   UNL     1       1.295   1.863   0.624  0.00  0.00    +0.062 A 
ATOM     24  C   UNL     1       2.382   1.289   0.001  0.00  0.00    +0.167 A 
ATOM     25  C   UNL     1       2.258   0.041  -0.619  0.00  0.00    +0.168 A 
ATOM     26  C   UNL     1       1.043  -0.625  -0.610  0.00  0.00    +0.073 A 
ATOM     27  C   UNL     1      -0.057  -0.059   0.013  0.00  0.00    +0.048 A 
ATOM     28  O   UNL     1       3.465  -0.298  -1.155  0.00  0.00    -0.453 OA
ATOM     29  C   UNL     1       4.428   0.555  -0.509  0.00  0.00    +0.466 C 
ATOM     30  O   UNL     1       3.668   1.724  -0.152  0.00  0.00    -0.453 OA
BRANCH  22  32
ATOM     31  C   UNL     1      -0.941   3.096   2.054  0.00  0.00    +0.091 C 
ATOM     32  C   UNL     1      -1.097   1.804   1.294  0.00  0.00    +0.162 C 
ATOM     33  O   UNL     1      -2.184   1.269   1.225  0.00  0.00    -0.292 OA
ENDBRANCH  22  32
ENDBRANCH  18  27
ENDBRANCH   1  19
TORSDOF 5
