REMARK  Name = ZINC19532298
REMARK  15 active torsions:
REMARK  status: ('A' for Active; 'I' for Inactive)
REMARK    1  A    between atoms: C_1  and  C_2
REMARK    2  A    between atoms: C_2  and  C_3
REMARK    3  A    between atoms: C_3  and  C_4
REMARK    4  A    between atoms: C_4  and  N_5
REMARK    5  A    between atoms: N_5  and  C_6
REMARK    6  A    between atoms: C_7  and  N_18
REMARK    7  A    between atoms: N_8  and  C_15
REMARK    8  A    between atoms: C_15  and  C_16
REMARK    9  A    between atoms: C_16  and  C_17
REMARK   10  A    between atoms: C_19  and  C_21
REMARK   11  A    between atoms: C_21  and  N_22
REMARK   12  A    between atoms: N_22  and  C_23
REMARK   13  A    between atoms: N_22  and  C_25
REMARK   14  A    between atoms: C_23  and  C_24
REMARK   15  A    between atoms: C_25  and  C_26
REMARK                            x       y       z     vdW  Elec       q    Type
REMARK                         _______ _______ _______ _____ _____    ______ ____
ROOT
ATOM      1  N   UNL     1       4.985   2.086  -3.127  0.00  0.00    -0.266 N 
ATOM      2  C   UNL     1       3.727   1.635  -2.939  0.00  0.00    +0.203 C 
ATOM      3  O   UNL     1       3.185   0.973  -3.799  0.00  0.00    -0.277 OA
ENDROOT
BRANCH   1   4
ATOM      4  C   UNL     1       5.703   1.711  -4.282  0.00  0.00    +0.140 A 
ATOM      5  C   UNL     1       6.019   0.388  -4.513  0.00  0.00    +0.127 A 
ATOM      6  N   UNL     1       6.720   0.053  -5.648  0.00  0.00    -0.280 N 
ATOM      7  C   UNL     1       7.093   1.004  -6.524  0.00  0.00    +0.331 A 
ATOM      8  O   UNL     1       7.712   0.688  -7.521  0.00  0.00    -0.246 OA
ATOM      9  N   UNL     1       6.794   2.299  -6.315  0.00  0.00    -0.273 N 
ATOM     10  H   UNL     1       7.112   3.061  -7.042  0.00  0.00    +0.173 HD
ATOM     11  C   UNL     1       6.104   2.679  -5.222  0.00  0.00    +0.277 A 
ATOM     12  O   UNL     1       5.834   3.855  -5.045  0.00  0.00    -0.266 OA
BRANCH   5  13
ATOM     13  N   UNL     1       5.639  -0.584  -3.619  0.00  0.00    -0.343 N 
ATOM     14  H   UNL     1       5.894  -1.637  -3.809  0.00  0.00    +0.144 HD
ATOM     15  H   UNL     1       5.079  -0.309  -2.713  0.00  0.00    +0.144 HD
ENDBRANCH   5  13
BRANCH   6  16
ATOM     16  C   UNL     1       7.062  -1.348  -5.906  0.00  0.00    +0.128 C 
BRANCH  16  17
ATOM     17  C   UNL     1       5.941  -2.007  -6.712  0.00  0.00    +0.018 C 
ATOM     18  C   UNL     1       6.298  -3.470  -6.981  0.00  0.00    +0.005 C 
ENDBRANCH  16  17
ENDBRANCH   6  16
ENDBRANCH   1   4
BRANCH   1  19
ATOM     19  C   UNL     1       5.605   2.965  -2.132  0.00  0.00    +0.114 C 
BRANCH  19  20
ATOM     20  C   UNL     1       6.423   2.126  -1.149  0.00  0.00    +0.019 C 
BRANCH  20  22
ATOM     21  C   UNL     1       7.888   2.204   0.873  0.00  0.00    +0.004 C 
ATOM     22  C   UNL     1       7.070   3.044  -0.110  0.00  0.00    -0.002 C 
ENDBRANCH  20  22
ENDBRANCH  19  20
ENDBRANCH   1  19
BRANCH   2  23
ATOM     23  C   UNL     1       2.996   1.954  -1.660  0.00  0.00    +0.019 C 
BRANCH  23  24
ATOM     24  N   UNL     1       1.676   1.310  -1.677  0.00  0.00    +0.388 N 
ATOM     25  H   UNL     1       1.803   0.289  -2.066  0.00  0.00    -0.081 HD
BRANCH  24  26
ATOM     26  C   UNL     1       1.121   1.210  -0.321  0.00  0.00    -0.081 C 
ATOM     27  C   UNL     1       1.885   0.143   0.465  0.00  0.00    -0.017 C 
ENDBRANCH  24  26
BRANCH  24  28
ATOM     28  C   UNL     1       0.754   2.023  -2.572  0.00  0.00    -0.030 C 
BRANCH  28  29
ATOM     29  C   UNL     1      -0.518   1.194  -2.759  0.00  0.00    +0.195 C 
ATOM     30  C   UNL     1      -1.479   1.927  -3.704  0.00  0.00    +0.271 C 
ATOM     31  O   UNL     1      -2.651   1.120  -3.867  0.00  0.00    -0.485 OA
ATOM     32  C   UNL     1      -2.453  -0.205  -4.107  0.00  0.00    +0.162 A 
ATOM     33  C   UNL     1      -3.493  -0.967  -4.620  0.00  0.00    +0.049 A 
ATOM     34  C   UNL     1      -3.308  -2.314  -4.866  0.00  0.00    +0.004 A 
ATOM     35  C   UNL     1      -2.087  -2.906  -4.603  0.00  0.00    +0.004 A 
ATOM     36  C   UNL     1      -1.046  -2.153  -4.093  0.00  0.00    +0.049 A 
ATOM     37  C   UNL     1      -1.225  -0.800  -3.844  0.00  0.00    +0.162 A 
ATOM     38  O   UNL     1      -0.189  -0.070  -3.345  0.00  0.00    -0.484 OA
ENDBRANCH  28  29
ENDBRANCH  24  28
ENDBRANCH  23  24
ENDBRANCH   2  23
TORSDOF 12
