REMARK  Name = ZINC40569374
REMARK  8 active torsions:
REMARK  status: ('A' for Active; 'I' for Inactive)
REMARK    1  A    between atoms: C_1  and  C_2
REMARK    2  A    between atoms: C_2  and  C_3
REMARK    3  A    between atoms: C_3  and  C_4
REMARK    4  A    between atoms: N_10  and  C_11
REMARK    5  A    between atoms: C_11  and  C_12
REMARK    6  A    between atoms: C_18  and  C_26
REMARK    7  A    between atoms: C_20  and  C_24
REMARK    8  A    between atoms: C_21  and  N_23
REMARK                            x       y       z     vdW  Elec       q    Type
REMARK                         _______ _______ _______ _____ _____    ______ ____
ROOT
ATOM      1  C   UNL     1       0.556  -1.855  -1.206  0.00  0.00    +0.026 A 
ATOM      2  C   UNL     1      -0.435  -2.351  -1.977  0.00  0.00    +0.068 A 
ATOM      3  C   UNL     1      -0.495  -3.736  -2.235  0.00  0.00    +0.141 A 
ATOM      4  C   UNL     1       0.468  -4.559  -1.690  0.00  0.00    +0.072 A 
ATOM      5  C   UNL     1       1.477  -3.999  -0.897  0.00  0.00    +0.259 A 
ATOM      6  O   UNL     1       2.337  -4.716  -0.409  0.00  0.00    -0.267 OA
ATOM      7  N   UNL     1       1.504  -2.671  -0.677  0.00  0.00    -0.309 N 
ATOM      8  C   UNL     1       0.441  -6.042  -1.939  0.00  0.00    +0.103 C 
ATOM      9  C   UNL     1      -0.457  -6.356  -3.103  0.00  0.00    +0.098 C 
ATOM     10  C   UNL     1      -1.353  -5.451  -3.563  0.00  0.00    +0.199 C 
ATOM     11  O   UNL     1      -1.485  -4.235  -3.005  0.00  0.00    -0.441 OA
ENDROOT
BRANCH   8  12
ATOM     12  C   UNL     1      -0.075  -6.745  -0.710  0.00  0.00    -0.033 A 
ATOM     13  C   UNL     1      -1.343  -6.466  -0.235  0.00  0.00    +0.004 A 
ATOM     14  C   UNL     1      -1.817  -7.111   0.892  0.00  0.00    +0.002 A 
ATOM     15  C   UNL     1      -1.024  -8.035   1.545  0.00  0.00    +0.020 A 
ATOM     16  C   UNL     1       0.246  -8.314   1.071  0.00  0.00    +0.041 A 
ATOM     17  C   UNL     1       0.717  -7.673  -0.061  0.00  0.00    +0.024 A 
ATOM     18 CL   UNL     1       1.243  -9.474   1.891  0.00  0.00    -0.084 Cl
ENDBRANCH   8  12
BRANCH  10  19
ATOM     19  N   UNL     1      -2.151  -5.786  -4.629  0.00  0.00    -0.328 N 
ATOM     20  H   UNL     1      -2.067  -6.660  -5.041  0.00  0.00    +0.145 HD
ATOM     21  H   UNL     1      -2.797  -5.148  -4.969  0.00  0.00    +0.145 HD
ENDBRANCH  10  19
BRANCH   9  22
ATOM     22  C   UNL     1      -0.361  -7.636  -3.739  0.00  0.00    +0.101 C 
ATOM     23  N   UNL     1      -0.286  -8.651  -4.243  0.00  0.00    -0.191 NA
ENDBRANCH   9  22
BRANCH   1  24
ATOM     24  C   UNL     1       0.615  -0.374  -0.932  0.00  0.00    +0.053 C 
BRANCH  24  26
ATOM     25  C   UNL     1       1.447   1.823  -1.785  0.00  0.00    +0.004 C 
ATOM     26  C   UNL     1       1.476   0.308  -1.998  0.00  0.00    +0.003 C 
ENDBRANCH  24  26
ENDBRANCH   1  24
BRANCH   7  27
ATOM     27  C   UNL     1       2.570  -2.099   0.149  0.00  0.00    +0.156 C 
BRANCH  27  28
ATOM     28  C   UNL     1       2.093  -2.002   1.600  0.00  0.00    +0.138 C 
ATOM     29  C   UNL     1       3.174  -1.315   2.462  0.00  0.00    +0.035 C 
ATOM     30  C   UNL     1       3.112  -2.131   3.782  0.00  0.00    +0.031 C 
ATOM     31  C   UNL     1       2.775  -3.542   3.239  0.00  0.00    +0.160 C 
ATOM     32  O   UNL     1       1.885  -3.316   2.132  0.00  0.00    -0.375 OA
ENDBRANCH  27  28
ENDBRANCH   7  27
TORSDOF 7
