REMARK  Name = ZINC38671107
REMARK  7 active torsions:
REMARK  status: ('A' for Active; 'I' for Inactive)
REMARK    1  A    between atoms: C_1  and  N_2
REMARK    2  A    between atoms: C_10  and  C_12
REMARK    3  A    between atoms: C_12  and  C_14
REMARK    4  A    between atoms: C_12  and  N_27
REMARK    5  A    between atoms: C_14  and  N_15
REMARK    6  A    between atoms: N_15  and  S_16
REMARK    7  A    between atoms: S_16  and  C_19
REMARK                            x       y       z     vdW  Elec       q    Type
REMARK                         _______ _______ _______ _____ _____    ______ ____
ROOT
ATOM      1  C   UNL     1       5.053  -2.896  -0.510  0.00  0.00    -0.022 C 
ENDROOT
BRANCH   1  11
ATOM      2  C   UNL     1      -0.125   0.778   0.997  0.00  0.00    +0.129 C 
ATOM      3  N   UNL     1      -0.021  -0.641   0.646  0.00  0.00    -0.333 N 
ATOM      4  C   UNL     1      -1.223  -1.485   0.585  0.00  0.00    +0.105 C 
ATOM      5  C   UNL     1      -0.904  -2.807   1.295  0.00  0.00    +0.024 C 
ATOM      6  C   UNL     1       0.211  -3.521   0.531  0.00  0.00    +0.038 C 
ATOM      7  C   UNL     1       1.374  -2.592   0.304  0.00  0.00    -0.026 A 
ATOM      8  C   UNL     1       1.223  -1.214   0.359  0.00  0.00    +0.033 A 
ATOM      9  C   UNL     1       2.314  -0.383   0.135  0.00  0.00    +0.023 A 
ATOM     10  C   UNL     1       3.551  -0.928  -0.147  0.00  0.00    +0.004 A 
ATOM     11  C   UNL     1       3.703  -2.301  -0.205  0.00  0.00    -0.059 A 
ATOM     12  C   UNL     1       2.619  -3.131   0.028  0.00  0.00    +0.007 A 
ENDBRANCH   1  11
BRANCH   1  13
ATOM     13  N   UNL     1       6.095  -2.131   0.187  0.00  0.00    +0.385 N 
ATOM     14  C   UNL     1       7.407  -2.726  -0.093  0.00  0.00    -0.078 C 
ATOM     15  C   UNL     1       8.503  -1.885   0.565  0.00  0.00    -0.019 C 
ATOM     16  C   UNL     1       8.271  -1.848   2.079  0.00  0.00    -0.004 C 
ATOM     17  C   UNL     1       6.870  -1.295   2.356  0.00  0.00    -0.019 C 
ATOM     18  C   UNL     1       5.834  -2.157   1.632  0.00  0.00    -0.078 C 
ATOM     19  H   UNL     1       6.084  -1.176  -0.138  0.00  0.00    -0.081 HD
ENDBRANCH   1  13
BRANCH   1  20
ATOM     20  C   UNL     1       5.304  -2.842  -2.019  0.00  0.00    +0.095 C 
BRANCH  20  21
ATOM     21  N   UNL     1       4.304  -3.660  -2.710  0.00  0.00    -0.191 NA
ATOM     22  H   UNL     1       3.762  -4.289  -2.209  0.00  0.00    +0.148 HD
BRANCH  21  23
ATOM     23  S   UNL     1       4.101  -3.510  -4.347  0.00  0.00    +0.064 S 
ATOM     24  O   UNL     1       3.093  -4.441  -4.717  0.00  0.00    -0.153 OA
ATOM     25  O   UNL     1       3.989  -2.120  -4.617  0.00  0.00    -0.153 OA
BRANCH  23  26
ATOM     26  C   UNL     1       5.593  -4.054  -5.109  0.00  0.00    +0.175 A 
ATOM     27  C   UNL     1       6.613  -3.151  -5.356  0.00  0.00    +0.152 A 
ATOM     28  C   UNL     1       7.786  -3.579  -5.955  0.00  0.00    +0.040 A 
ATOM     29  C   UNL     1       7.938  -4.907  -6.308  0.00  0.00    +0.006 A 
ATOM     30  C   UNL     1       6.919  -5.809  -6.062  0.00  0.00    +0.040 A 
ATOM     31  C   UNL     1       5.748  -5.384  -5.457  0.00  0.00    +0.152 A 
ATOM     32  F   UNL     1       4.755  -6.267  -5.213  0.00  0.00    -0.203 F 
ATOM     33  F   UNL     1       6.465  -1.853  -5.012  0.00  0.00    -0.203 F 
ENDBRANCH  23  26
ENDBRANCH  21  23
ENDBRANCH  20  21
ENDBRANCH   1  20
TORSDOF 6
