REMARK  Name = ZINC11872243
REMARK  12 active torsions:
REMARK  status: ('A' for Active; 'I' for Inactive)
REMARK    1  A    between atoms: C_1  and  C_2
REMARK    2  A    between atoms: C_6  and  C_7
REMARK    3  A    between atoms: N_9  and  C_10
REMARK    4  A    between atoms: N_9  and  C_14
REMARK    5  A    between atoms: C_10  and  C_11
REMARK    6  A    between atoms: C_11  and  N_66
REMARK    7  A    between atoms: C_12  and  N_66
REMARK    8  A    between atoms: C_13  and  N_66
REMARK    9  A    between atoms: C_14  and  C_15
REMARK   10  A    between atoms: C_23  and  N_24
REMARK   11  A    between atoms: C_28  and  C_31
REMARK   12  A    between atoms: C_31  and  O_32
REMARK                            x       y       z     vdW  Elec       q    Type
REMARK                         _______ _______ _______ _____ _____    ______ ____
ROOT
ATOM      1  C   UNL     1       3.589   7.167  -0.467  0.00  0.00    +0.008 A 
ATOM      2  C   UNL     1       4.789   7.761  -0.721  0.00  0.00    +0.018 A 
ATOM      3  C   UNL     1       5.926   6.940  -0.856  0.00  0.00    -0.001 A 
ATOM      4  C   UNL     1       7.192   7.487  -1.117  0.00  0.00    +0.013 A 
ATOM      5  C   UNL     1       8.269   6.664  -1.243  0.00  0.00    +0.039 A 
ATOM      6  C   UNL     1       8.131   5.281  -1.114  0.00  0.00    +0.125 A 
ATOM      7  C   UNL     1       6.916   4.718  -0.860  0.00  0.00    +0.064 A 
ATOM      8  C   UNL     1       5.782   5.537  -0.725  0.00  0.00    +0.050 A 
ATOM      9  C   UNL     1       3.512   5.772  -0.348  0.00  0.00    +0.104 A 
ATOM     10  F   UNL     1       9.218   4.489  -1.243  0.00  0.00    -0.205 F 
ATOM     11  N   UNL     1       4.572   4.934  -0.463  0.00  0.00    -0.343 N 
ATOM     12  H   UNL     1       4.478   3.916  -0.361  0.00  0.00    +0.167 HD
ENDROOT
BRANCH   9  13
ATOM     13  N   UNL     1       2.284   5.181  -0.090  0.00  0.00    -0.316 N 
ATOM     14  C   UNL     1       2.322   4.412   1.160  0.00  0.00    +0.106 C 
ATOM     15  C   UNL     1       0.919   3.897   1.487  0.00  0.00    +0.019 C 
ATOM     16  C   UNL     1       0.423   3.015   0.338  0.00  0.00    +0.009 C 
ATOM     17  C   UNL     1       0.438   3.826  -0.961  0.00  0.00    +0.032 C 
ATOM     18  C   UNL     1       1.856   4.343  -1.217  0.00  0.00    +0.112 C 
BRANCH  17  19
ATOM     19  C   UNL     1       0.001   2.935  -2.125  0.00  0.00    +0.160 C 
BRANCH  19  20
ATOM     20  O   UNL     1      -1.362   2.547  -1.942  0.00  0.00    -0.395 OA
ATOM     21  H   UNL     1      -1.707   1.979  -2.645  0.00  0.00    +0.209 HD
ENDBRANCH  19  20
ENDBRANCH  17  19
ENDBRANCH   9  13
BRANCH   1  22
ATOM     22  C   UNL     1       2.347   8.007  -0.315  0.00  0.00    +0.146 C 
BRANCH  22  25
ATOM     23  C   UNL     1       3.159  10.197   0.380  0.00  0.00    +0.254 C 
ATOM     24  O   UNL     1       3.328  11.385   0.176  0.00  0.00    -0.269 OA
ATOM     25  N   UNL     1       2.669   9.409  -0.597  0.00  0.00    -0.294 N 
BRANCH  23  31
ATOM     26  C   UNL     1       4.079  11.763   2.892  0.00  0.00    +0.045 C 
ATOM     27  C   UNL     1       3.903  10.267   2.845  0.00  0.00    -0.031 A 
ATOM     28  C   UNL     1       4.142   9.482   3.945  0.00  0.00    +0.011 A 
ATOM     29  C   UNL     1       3.976   8.137   3.849  0.00  0.00    +0.046 A 
ATOM     30  S   UNL     1       3.466   7.917   2.207  0.00  0.00    -0.092 S 
ATOM     31  C   UNL     1       3.488   9.624   1.689  0.00  0.00    +0.077 A 
ENDBRANCH  23  31
BRANCH  25  32
ATOM     32  C   UNL     1       2.457   9.953  -1.940  0.00  0.00    +0.090 C 
BRANCH  32  33
ATOM     33  C   UNL     1       1.004  10.411  -2.082  0.00  0.00    -0.060 C 
BRANCH  33  36
ATOM     34  C   UNL     1      -0.636  11.187  -3.685  0.00  0.00    -0.097 C 
ATOM     35  C   UNL     1       1.568  12.188  -3.627  0.00  0.00    -0.097 C 
ATOM     36  N   UNL     1       0.801  10.937  -3.448  0.00  0.00    +0.377 N 
ATOM     37  H   UNL     1       1.135  10.242  -4.126  0.00  0.00    -0.083 HD
ENDBRANCH  33  36
ENDBRANCH  32  33
ENDBRANCH  25  32
ENDBRANCH  22  25
ENDBRANCH   1  22
TORSDOF 9
