REMARK  Name = ZINC40176199
REMARK  8 active torsions:
REMARK  status: ('A' for Active; 'I' for Inactive)
REMARK    1  A    between atoms: C_1  and  C_2
REMARK    2  A    between atoms: C_2  and  C_3
REMARK    3  A    between atoms: C_3  and  N_4
REMARK    4  A    between atoms: N_4  and  S_5
REMARK    5  A    between atoms: S_5  and  C_8
REMARK    6  A    between atoms: C_18  and  C_20
REMARK    7  A    between atoms: C_20  and  S_21
REMARK    8  A    between atoms: S_21  and  C_22
REMARK                            x       y       z     vdW  Elec       q    Type
REMARK                         _______ _______ _______ _____ _____    ______ ____
ROOT
ATOM      1  C   UNL     1      -3.975  -2.501  -0.867  0.00  0.00    +0.106 A 
ATOM      2  C   UNL     1      -4.845  -1.429  -0.729  0.00  0.00    +0.030 A 
ATOM      3  C   UNL     1      -5.780  -1.138  -1.688  0.00  0.00    +0.031 A 
ATOM      4  C   UNL     1      -5.888  -1.928  -2.856  0.00  0.00    +0.080 A 
ATOM      5  C   UNL     1      -4.986  -3.011  -2.962  0.00  0.00    +0.043 A 
ATOM      6  C   UNL     1      -4.048  -3.292  -1.999  0.00  0.00    +0.045 A 
ATOM      7  S   UNL     1      -5.437  -3.727  -4.524  0.00  0.00    -0.052 S 
ATOM      8  C   UNL     1      -6.750  -2.582  -4.925  0.00  0.00    +0.165 A 
ATOM      9  N   UNL     1      -6.746  -1.778  -3.887  0.00  0.00    -0.225 NA
ATOM     10  N   UNL     1      -7.564  -2.552  -6.045  0.00  0.00    -0.264 N 
ATOM     11  C   UNL     1      -8.508  -1.598  -6.166  0.00  0.00    +0.229 C 
ATOM     12  O   UNL     1      -8.645  -0.766  -5.294  0.00  0.00    -0.275 OA
ATOM     13  H   UNL     1      -7.454  -3.217  -6.743  0.00  0.00    +0.157 HD
ENDROOT
BRANCH   1  14
ATOM     14  S   UNL     1      -2.784  -2.847   0.385  0.00  0.00    +0.058 S 
ATOM     15  O   UNL     1      -2.455  -4.224   0.263  0.00  0.00    -0.153 OA
ATOM     16  O   UNL     1      -3.287  -2.288   1.590  0.00  0.00    -0.153 OA
BRANCH  14  17
ATOM     17  N   UNL     1      -1.413  -1.998   0.005  0.00  0.00    -0.190 NA
ATOM     18  H   UNL     1      -0.598  -2.471  -0.223  0.00  0.00    +0.148 HD
BRANCH  17  19
ATOM     19  C   UNL     1      -1.433  -0.534   0.013  0.00  0.00    +0.105 C 
BRANCH  19  21
ATOM     20  C   UNL     1      -0.019   1.526   0.010  0.00  0.00    +0.005 C 
ATOM     21  C   UNL     1       0.002  -0.004   0.002  0.00  0.00    +0.013 C 
ENDBRANCH  19  21
ENDBRANCH  17  19
ENDBRANCH  14  17
ENDBRANCH   1  14
BRANCH  11  22
ATOM     22  C   UNL     1      -9.394  -1.564  -7.385  0.00  0.00    +0.173 C 
BRANCH  22  23
ATOM     23  S   UNL     1     -10.553  -0.175  -7.252  0.00  0.00    -0.079 S 
BRANCH  23  24
ATOM     24  C   UNL     1     -11.505  -0.272  -8.732  0.00  0.00    +0.168 A 
ATOM     25  N   UNL     1     -12.511   0.586  -9.076  0.00  0.00    -0.333 N 
ATOM     26  H   UNL     1     -12.823   1.345  -8.557  0.00  0.00    +0.168 HD
ATOM     27  C   UNL     1     -13.002   0.172 -10.303  0.00  0.00    +0.067 A 
ATOM     28  C   UNL     1     -14.004   0.634 -11.143  0.00  0.00    +0.028 A 
ATOM     29  C   UNL     1     -14.258  -0.017 -12.332  0.00  0.00    +0.002 A 
ATOM     30  C   UNL     1     -13.518  -1.133 -12.694  0.00  0.00    +0.002 A 
ATOM     31  C   UNL     1     -12.519  -1.605 -11.873  0.00  0.00    +0.030 A 
ATOM     32  C   UNL     1     -12.249  -0.957 -10.665  0.00  0.00    +0.090 A 
ATOM     33  N   UNL     1     -11.350  -1.174  -9.670  0.00  0.00    -0.222 NA
ENDBRANCH  23  24
ENDBRANCH  22  23
ENDBRANCH  11  22
TORSDOF 7
