REMARK  Name = ZINC46756333
REMARK  13 active torsions:
REMARK  status: ('A' for Active; 'I' for Inactive)
REMARK    1  A    between atoms: C_1  and  C_2
REMARK    2  A    between atoms: C_2  and  C_3
REMARK    3  A    between atoms: C_2  and  N_4
REMARK    4  A    between atoms: N_4  and  C_5
REMARK    5  A    between atoms: N_4  and  C_6
REMARK    6  A    between atoms: C_6  and  C_7
REMARK    7  A    between atoms: C_12  and  C_13
REMARK    8  A    between atoms: C_13  and  N_14
REMARK    9  A    between atoms: C_15  and  C_17
REMARK   10  A    between atoms: C_20  and  O_23
REMARK   11  A    between atoms: O_23  and  S_24
REMARK   12  A    between atoms: S_24  and  C_27
REMARK   13  A    between atoms: C_31  and  N_33
REMARK                            x       y       z     vdW  Elec       q    Type
REMARK                         _______ _______ _______ _____ _____    ______ ____
ROOT
ATOM      1  C   UNL     1      -3.403  -4.339   2.723  0.00  0.00    +0.037 A 
ATOM      2  C   UNL     1      -2.837  -5.465   2.120  0.00  0.00    +0.017 A 
ATOM      3  C   UNL     1      -3.651  -6.438   1.583  0.00  0.00    +0.049 A 
ATOM      4  C   UNL     1      -5.033  -6.300   1.641  0.00  0.00    +0.157 A 
ATOM      5  C   UNL     1      -5.599  -5.181   2.240  0.00  0.00    +0.049 A 
ATOM      6  C   UNL     1      -4.792  -4.207   2.784  0.00  0.00    +0.017 A 
ENDROOT
BRANCH   1   8
ATOM      7  N   UNL     1      -1.194  -3.423   3.240  0.00  0.00    -0.307 N 
ATOM      8  C   UNL     1      -2.534  -3.294   3.300  0.00  0.00    +0.244 C 
ATOM      9  O   UNL     1      -3.027  -2.317   3.829  0.00  0.00    -0.270 OA
ATOM     10  H   UNL     1      -0.800  -4.203   2.818  0.00  0.00    +0.149 HD
BRANCH   7  11
ATOM     11  C   UNL     1      -0.332  -2.386   3.812  0.00  0.00    +0.140 C 
BRANCH  11  17
ATOM     12  C   UNL     1       1.643  -2.373   2.274  0.00  0.00    -0.059 A 
ATOM     13  C   UNL     1       2.966  -2.660   1.994  0.00  0.00    +0.002 A 
ATOM     14  C   UNL     1       3.753  -3.283   2.944  0.00  0.00    +0.000 A 
ATOM     15  C   UNL     1       3.218  -3.619   4.173  0.00  0.00    +0.000 A 
ATOM     16  C   UNL     1       1.896  -3.332   4.453  0.00  0.00    +0.005 A 
ATOM     17  C   UNL     1       1.109  -2.704   3.505  0.00  0.00    -0.029 A 
BRANCH  12  18
ATOM     18  C   UNL     1       0.784  -1.694   1.239  0.00  0.00    -0.043 C 
BRANCH  18  19
ATOM     19  N   UNL     1      -0.029  -2.699   0.540  0.00  0.00    +0.382 N 
ATOM     20  C   UNL     1       0.851  -3.603  -0.212  0.00  0.00    -0.095 C 
ATOM     21  H   UNL     1      -0.559  -3.230   1.214  0.00  0.00    -0.081 HD
BRANCH  19  23
ATOM     22  C   UNL     1      -1.795  -3.073  -1.114  0.00  0.00    -0.014 C 
ATOM     23  C   UNL     1      -0.949  -2.026  -0.387  0.00  0.00    -0.075 C 
ATOM     24  C   UNL     1      -1.865  -1.085   0.397  0.00  0.00    -0.014 C 
ENDBRANCH  19  23
ENDBRANCH  18  19
ENDBRANCH  12  18
ENDBRANCH  11  17
ENDBRANCH   7  11
ENDBRANCH   1   8
BRANCH   4  25
ATOM     25  O   UNL     1      -5.832  -7.261   1.110  0.00  0.00    -0.342 OA
BRANCH  25  26
ATOM     26  S   UNL     1      -6.211  -8.361   2.091  0.00  0.00    +0.151 S 
ATOM     27  O   UNL     1      -6.860  -9.373   1.333  0.00  0.00    -0.131 OA
ATOM     28  O   UNL     1      -5.056  -8.620   2.877  0.00  0.00    -0.131 OA
BRANCH  26  29
ATOM     29  C   UNL     1      -7.423  -7.693   3.181  0.00  0.00    +0.130 A 
ATOM     30  C   UNL     1      -7.032  -7.064   4.348  0.00  0.00    +0.031 A 
ATOM     31  C   UNL     1      -7.982  -6.539   5.203  0.00  0.00    +0.004 A 
ATOM     32  C   UNL     1      -9.325  -6.643   4.891  0.00  0.00    +0.033 A 
ATOM     33  C   UNL     1      -9.717  -7.271   3.724  0.00  0.00    +0.128 A 
ATOM     34  C   UNL     1      -8.766  -7.792   2.867  0.00  0.00    +0.063 A 
BRANCH  33  35
ATOM     35  N   UNL     1     -11.155  -7.383   3.391  0.00  0.00    +0.056 N 
ATOM     36  O   UNL     1     -11.986  -6.926   4.139  0.00  0.00    -0.126 OA
ATOM     37  O   UNL     1     -11.497  -7.933   2.370  0.00  0.00    -0.126 OA
ENDBRANCH  33  35
ENDBRANCH  26  29
ENDBRANCH  25  26
ENDBRANCH   4  25
TORSDOF 10
