REMARK  Name = ZINC06246602
REMARK  12 active torsions:
REMARK  status: ('A' for Active; 'I' for Inactive)
REMARK    1  A    between atoms: C_1  and  C_2
REMARK    2  A    between atoms: C_5  and  C_8
REMARK    3  A    between atoms: C_11  and  S_19
REMARK    4  A    between atoms: N_12  and  C_13
REMARK    5  A    between atoms: S_19  and  C_20
REMARK    6  A    between atoms: C_20  and  C_22
REMARK    7  A    between atoms: C_20  and  C_23
REMARK    8  A    between atoms: N_25  and  N_26
REMARK    9  A    between atoms: C_27  and  C_29
REMARK   10  A    between atoms: C_29  and  O_30
REMARK   11  A    between atoms: O_30  and  C_31
REMARK   12  A    between atoms: C_34  and  C_37
REMARK                            x       y       z     vdW  Elec       q    Type
REMARK                         _______ _______ _______ _____ _____    ______ ____
ROOT
ATOM      1  S   UNL     1       0.044   1.244   2.921  0.00  0.00    -0.073 S 
ENDROOT
BRANCH   1   5
ATOM      2  C   UNL     1       3.749   2.480   2.759  0.00  0.00    +0.169 A 
ATOM      3  N   UNL     1       3.201   3.071   1.723  0.00  0.00    -0.128 NA
ATOM      4  N   UNL     1       1.959   2.751   1.640  0.00  0.00    -0.122 NA
ATOM      5  C   UNL     1       1.634   1.942   2.623  0.00  0.00    +0.197 A 
ATOM      6  N   UNL     1       2.763   1.737   3.369  0.00  0.00    -0.270 N 
BRANCH   2  11
ATOM      7  C   UNL     1       9.237   2.914   4.435  0.00  0.00    +0.044 C 
ATOM      8  C   UNL     1       7.800   2.800   3.996  0.00  0.00    -0.050 A 
ATOM      9  C   UNL     1       7.018   1.758   4.461  0.00  0.00    +0.004 A 
ATOM     10  C   UNL     1       5.702   1.648   4.063  0.00  0.00    +0.012 A 
ATOM     11  C   UNL     1       5.159   2.591   3.189  0.00  0.00    +0.020 A 
ATOM     12  C   UNL     1       5.955   3.638   2.719  0.00  0.00    +0.012 A 
ATOM     13  C   UNL     1       7.268   3.739   3.130  0.00  0.00    +0.004 A 
ENDBRANCH   2  11
BRANCH   6  14
ATOM     14  C   UNL     1       2.889   0.938   4.514  0.00  0.00    +0.051 A 
ATOM     15  C   UNL     1       3.126   1.526   5.749  0.00  0.00    +0.026 A 
ATOM     16  C   UNL     1       3.245   0.736   6.876  0.00  0.00    +0.002 A 
ATOM     17  C   UNL     1       3.139  -0.639   6.774  0.00  0.00    +0.000 A 
ATOM     18  C   UNL     1       2.908  -1.227   5.544  0.00  0.00    +0.002 A 
ATOM     19  C   UNL     1       2.783  -0.443   4.414  0.00  0.00    +0.026 A 
ENDBRANCH   6  14
ENDBRANCH   1   5
BRANCH   1  20
ATOM     20  C   UNL     1      -0.881   1.971   1.546  0.00  0.00    +0.138 C 
ATOM     21  C   UNL     1      -0.329   1.438   0.222  0.00  0.00    +0.029 C 
BRANCH  20  22
ATOM     22  C   UNL     1      -2.337   1.601   1.668  0.00  0.00    +0.242 C 
ATOM     23  O   UNL     1      -2.666   0.650   2.345  0.00  0.00    -0.273 OA
ATOM     24  N   UNL     1      -3.273   2.326   1.024  0.00  0.00    -0.233 N 
ATOM     25  H   UNL     1      -3.009   3.086   0.482  0.00  0.00    +0.173 HD
BRANCH  24  26
ATOM     26  N   UNL     1      -4.626   1.982   1.137  0.00  0.00    -0.232 N 
ATOM     27  C   UNL     1      -5.562   2.707   0.493  0.00  0.00    +0.267 C 
ATOM     28  O   UNL     1      -5.233   3.658  -0.184  0.00  0.00    -0.271 OA
ATOM     29  H   UNL     1      -4.889   1.222   1.679  0.00  0.00    +0.173 HD
BRANCH  27  30
ATOM     30  C   UNL     1      -7.018   2.337   0.615  0.00  0.00    +0.326 C 
BRANCH  30  31
ATOM     31  O   UNL     1      -7.807   3.248  -0.152  0.00  0.00    -0.483 OA
BRANCH  31  32
ATOM     32  C   UNL     1      -9.152   3.053  -0.150  0.00  0.00    +0.121 A 
ATOM     33  C   UNL     1      -9.700   2.003   0.572  0.00  0.00    +0.046 A 
ATOM     34  C   UNL     1     -11.068   1.811   0.578  0.00  0.00    +0.007 A 
ATOM     35  C   UNL     1     -11.889   2.657  -0.145  0.00  0.00    -0.050 A 
ATOM     36  C   UNL     1     -11.345   3.701  -0.870  0.00  0.00    +0.007 A 
ATOM     37  C   UNL     1      -9.978   3.901  -0.874  0.00  0.00    +0.046 A 
ATOM     38  C   UNL     1     -13.381   2.441  -0.142  0.00  0.00    +0.044 C 
ENDBRANCH  31  32
ENDBRANCH  30  31
ENDBRANCH  27  30
ENDBRANCH  24  26
ENDBRANCH  20  22
ENDBRANCH   1  20
TORSDOF 9
