REMARK  Name = ZINC57944853
REMARK  1 active torsions:
REMARK  status: ('A' for Active; 'I' for Inactive)
REMARK    1  A    between atoms: C_3  and  C_6
REMARK                            x       y       z     vdW  Elec       q    Type
REMARK                         _______ _______ _______ _____ _____    ______ ____
ROOT
ATOM      1  C   UNL     1       3.599   0.625  -0.029  0.00  0.00    +0.244 C 
ATOM      2  N   UNL     1       4.065  -0.458  -0.916  0.00  0.00    -0.292 N 
ATOM      3  C   UNL     1       4.080  -1.750  -0.409  0.00  0.00    +0.159 C 
ATOM      4  N   UNL     1       4.732  -1.932   0.810  0.00  0.00    -0.259 N 
ATOM      5  C   UNL     1       4.627  -0.865   1.701  0.00  0.00    +0.205 A 
ATOM      6  N   UNL     1       4.103   0.347   1.319  0.00  0.00    -0.285 N 
ATOM      7  C   UNL     1       4.148   1.182   2.415  0.00  0.00    +0.076 A 
ATOM      8  C   UNL     1       3.777   2.501   2.642  0.00  0.00    +0.077 A 
ATOM      9  C   UNL     1       3.954   3.057   3.894  0.00  0.00    +0.164 A 
ATOM     10  C   UNL     1       4.503   2.307   4.930  0.00  0.00    +0.164 A 
ATOM     11  C   UNL     1       4.881   0.997   4.719  0.00  0.00    +0.079 A 
ATOM     12  C   UNL     1       4.707   0.421   3.457  0.00  0.00    +0.095 A 
ATOM     13  N   UNL     1       4.977  -0.819   2.953  0.00  0.00    -0.214 NA
ATOM     14  O   UNL     1       4.665   2.874   6.161  0.00  0.00    -0.488 OA
ATOM     15  C   UNL     1       5.648   3.907   6.249  0.00  0.00    +0.232 C 
ATOM     16  C   UNL     1       5.062   5.247   5.833  0.00  0.00    +0.082 C 
ATOM     17  C   UNL     1       4.654   5.271   4.369  0.00  0.00    +0.232 C 
ATOM     18  O   UNL     1       3.587   4.353   4.124  0.00  0.00    -0.488 OA
ATOM     19  N   UNL     1       3.513  -2.740  -1.039  0.00  0.00    -0.375 N 
ATOM     20  H   UNL     1       4.352  -0.273  -1.824  0.00  0.00    +0.151 HD
ATOM     21  H   UNL     1       3.066  -2.583  -1.886  0.00  0.00    +0.158 HD
ATOM     22  H   UNL     1       5.223  -2.742   1.022  0.00  0.00    +0.158 HD
ATOM     23  H   UNL     1       3.539  -3.633  -0.662  0.00  0.00    +0.158 HD
ENDROOT
BRANCH   1  26
ATOM     24  C   UNL     1      -0.016   1.341   0.009  0.00  0.00    +0.041 A 
ATOM     25  C   UNL     1       1.331   1.769  -0.001  0.00  0.00    +0.048 A 
ATOM     26  C   UNL     1       2.092   0.660  -0.014  0.00  0.00    +0.146 A 
ATOM     27  O   UNL     1       1.282  -0.411  -0.012  0.00  0.00    -0.464 OA
ATOM     28  C   UNL     1       0.002  -0.004   0.002  0.00  0.00    +0.195 A 
ENDBRANCH   1  26
TORSDOF 1
