REMARK  Name = ZINC09869616
REMARK  6 active torsions:
REMARK  status: ('A' for Active; 'I' for Inactive)
REMARK    1  A    between atoms: C_4  and  S_21
REMARK    2  A    between atoms: C_6  and  C_7
REMARK    3  A    between atoms: C_7  and  O_9
REMARK    4  A    between atoms: O_9  and  C_10
REMARK    5  A    between atoms: C_10  and  C_11
REMARK    6  A    between atoms: S_21  and  N_24
REMARK                            x       y       z     vdW  Elec       q    Type
REMARK                         _______ _______ _______ _____ _____    ______ ____
ROOT
ATOM      1  C   UNL     1       3.320  -1.193  -0.036  0.00  0.00    +0.340 C 
ATOM      2  O   UNL     1       4.436  -0.715  -0.044  0.00  0.00    -0.245 OA
ENDROOT
BRANCH   1   8
ATOM      3  C   UNL     1       1.861  -3.212  -0.027  0.00  0.00    +0.016 A 
ATOM      4  C   UNL     1       1.704  -4.581  -0.038  0.00  0.00    +0.023 A 
ATOM      5  C   UNL     1       2.814  -5.409  -0.053  0.00  0.00    +0.067 A 
ATOM      6  C   UNL     1       4.089  -4.867  -0.063  0.00  0.00    +0.124 A 
ATOM      7  C   UNL     1       4.260  -3.499  -0.057  0.00  0.00    +0.045 A 
ATOM      8  C   UNL     1       3.144  -2.659  -0.042  0.00  0.00    +0.061 A 
ATOM      9 CL   UNL     1       2.607  -7.133  -0.060  0.00  0.00    -0.082 Cl
BRANCH   6  10
ATOM     10  S   UNL     1       5.495  -5.929  -0.082  0.00  0.00    +0.057 S 
ATOM     11  O   UNL     1       5.269  -6.883  -1.111  0.00  0.00    -0.153 OA
ATOM     12  O   UNL     1       6.640  -5.087  -0.063  0.00  0.00    -0.153 OA
BRANCH  10  13
ATOM     13  N   UNL     1       5.498  -6.764   1.347  0.00  0.00    -0.203 NA
ATOM     14  H   UNL     1       5.875  -7.657   1.386  0.00  0.00    +0.144 HD
ATOM     15  H   UNL     1       5.122  -6.361   2.146  0.00  0.00    +0.144 HD
ENDBRANCH  10  13
ENDBRANCH   6  10
ENDBRANCH   1   8
BRANCH   1  16
ATOM     16  O   UNL     1       2.242  -0.385  -0.021  0.00  0.00    -0.456 OA
BRANCH  16  17
ATOM     17  C   UNL     1       2.490   1.045  -0.016  0.00  0.00    +0.269 C 
BRANCH  17  18
ATOM     18  C   UNL     1       1.176   1.783   0.000  0.00  0.00    +0.007 A 
ATOM     19  C   UNL     1      -0.013   1.076   0.008  0.00  0.00    +0.057 A 
ATOM     20  C   UNL     1      -1.222   1.752   0.017  0.00  0.00    +0.167 A 
ATOM     21  C   UNL     1      -1.237   3.144   0.030  0.00  0.00    +0.167 A 
ATOM     22  C   UNL     1      -0.043   3.847   0.022  0.00  0.00    +0.065 A 
ATOM     23  C   UNL     1       1.161   3.166   0.007  0.00  0.00    +0.028 A 
ATOM     24 BR   UNL     1       2.789   4.127  -0.004  0.00  0.00    -0.050 Br
ATOM     25  O   UNL     1      -2.535   3.566   0.045  0.00  0.00    -0.453 OA
ATOM     26  C   UNL     1      -3.306   2.423   0.459  0.00  0.00    +0.466 C 
ATOM     27  O   UNL     1      -2.510   1.301   0.034  0.00  0.00    -0.453 OA
ENDBRANCH  17  18
ENDBRANCH  16  17
ENDBRANCH   1  16
TORSDOF 6
