REMARK  Name = ZINC10131619
REMARK  4 active torsions:
REMARK  status: ('A' for Active; 'I' for Inactive)
REMARK    1  A    between atoms: C_3  and  C_6
REMARK    2  A    between atoms: C_15  and  C_16
REMARK    3  A    between atoms: C_15  and  N_48
REMARK    4  A    between atoms: N_18  and  C_19
REMARK                            x       y       z     vdW  Elec       q    Type
REMARK                         _______ _______ _______ _____ _____    ______ ____
ROOT
ATOM      1  C   UNL     1      -4.838   1.567   6.118  0.00  0.00    +0.020 C 
ENDROOT
BRANCH   1  10
ATOM      2  C   UNL     1      -4.556   1.935   8.494  0.00  0.00    +0.002 C 
ATOM      3  C   UNL     1      -3.507   2.050   9.596  0.00  0.00    -0.046 A 
ATOM      4  C   UNL     1      -3.748   2.623  10.842  0.00  0.00    +0.010 A 
ATOM      5  C   UNL     1      -2.757   2.685  11.762  0.00  0.00    +0.045 A 
ATOM      6  S   UNL     1      -1.398   1.917  10.892  0.00  0.00    -0.101 S 
ATOM      7  C   UNL     1      -2.249   1.573   9.378  0.00  0.00    -0.010 A 
ATOM      8  C   UNL     1      -1.746   0.917   8.134  0.00  0.00    +0.024 C 
ATOM      9  C   UNL     1      -2.966   0.551   7.272  0.00  0.00    -0.072 C 
ATOM     10  N   UNL     1      -3.853   1.737   7.205  0.00  0.00    +0.393 N 
ATOM     11  H   UNL     1      -3.281   2.567   7.009  0.00  0.00    -0.080 HD
BRANCH   2  14
ATOM     12  C   UNL     1      -7.136   4.729   8.723  0.00  0.00    +0.008 A 
ATOM     13  C   UNL     1      -6.592   3.473   8.912  0.00  0.00    +0.010 A 
ATOM     14  C   UNL     1      -5.357   3.210   8.419  0.00  0.00    -0.019 A 
ATOM     15  S   UNL     1      -4.921   4.768   7.665  0.00  0.00    -0.103 S 
ATOM     16  C   UNL     1      -6.419   5.661   8.050  0.00  0.00    +0.045 A 
ENDBRANCH   2  14
ENDBRANCH   1  10
BRANCH   1  17
ATOM     17  C   UNL     1      -4.107   1.582   4.800  0.00  0.00    +0.201 C 
ATOM     18  O   UNL     1      -2.900   1.698   4.777  0.00  0.00    -0.278 OA
ATOM     19  N   UNL     1      -4.795   1.466   3.647  0.00  0.00    -0.286 N 
ATOM     20  H   UNL     1      -5.764   1.439   3.661  0.00  0.00    +0.155 HD
BRANCH  19  21
ATOM     21  C   UNL     1      -4.109   1.385   2.427  0.00  0.00    +0.056 A 
ATOM     22  C   UNL     1      -2.928   2.091   2.246  0.00  0.00    +0.074 A 
ATOM     23  C   UNL     1      -2.250   2.011   1.040  0.00  0.00    +0.164 A 
ATOM     24  C   UNL     1      -2.753   1.220   0.013  0.00  0.00    +0.164 A 
ATOM     25  C   UNL     1      -3.933   0.516   0.197  0.00  0.00    +0.071 A 
ATOM     26  C   UNL     1      -4.611   0.598   1.399  0.00  0.00    +0.066 A 
ATOM     27 CL   UNL     1      -6.089  -0.285   1.624  0.00  0.00    -0.082 Cl
ATOM     28  O   UNL     1      -2.098   1.125  -1.177  0.00  0.00    -0.485 OA
ATOM     29  C   UNL     1      -1.123   2.135  -1.457  0.00  0.00    +0.270 C 
ATOM     30  C   UNL     1      -0.249   2.320  -0.209  0.00  0.00    +0.270 C 
ATOM     31  O   UNL     1      -1.095   2.716   0.876  0.00  0.00    -0.485 OA
ENDBRANCH  19  21
ENDBRANCH   1  17
TORSDOF 4
