REMARK  Name = ZINC23483416
REMARK  9 active torsions:
REMARK  status: ('A' for Active; 'I' for Inactive)
REMARK    1  A    between atoms: C_1  and  C_2
REMARK    2  A    between atoms: N_12  and  C_13
REMARK    3  A    between atoms: C_16  and  C_19
REMARK    4  A    between atoms: N_21  and  C_22
REMARK    5  A    between atoms: C_22  and  C_23
REMARK    6  A    between atoms: C_23  and  C_25
REMARK    7  A    between atoms: C_23  and  N_32
REMARK    8  A    between atoms: N_32  and  C_33
REMARK    9  A    between atoms: N_32  and  C_34
REMARK                            x       y       z     vdW  Elec       q    Type
REMARK                         _______ _______ _______ _____ _____    ______ ____
ROOT
ATOM      1  C   UNL     1       7.806   8.719   2.938  0.00  0.00    +0.051 A 
ATOM      2  C   UNL     1       7.226   8.347   4.146  0.00  0.00    +0.027 A 
ATOM      3  C   UNL     1       6.154   7.482   4.160  0.00  0.00    +0.015 A 
ATOM      4  C   UNL     1       5.649   6.979   2.959  0.00  0.00    +0.037 A 
ATOM      5  C   UNL     1       6.237   7.351   1.747  0.00  0.00    +0.015 A 
ATOM      6  C   UNL     1       7.305   8.220   1.740  0.00  0.00    +0.027 A 
ENDROOT
BRANCH   1  18
ATOM      7  C   UNL     1       7.323  11.354   3.647  0.00  0.00    +0.086 C 
ATOM      8  C   UNL     1       8.710  10.902   3.267  0.00  0.00    +0.114 A 
ATOM      9  N   UNL     1       9.670  11.775   3.286  0.00  0.00    -0.233 NA
ATOM     10  C   UNL     1      10.942  11.441   2.952  0.00  0.00    +0.078 A 
ATOM     11  C   UNL     1      11.973  12.382   2.966  0.00  0.00    +0.028 A 
ATOM     12  C   UNL     1      13.250  12.000   2.619  0.00  0.00    +0.002 A 
ATOM     13  C   UNL     1      13.525  10.689   2.253  0.00  0.00    +0.001 A 
ATOM     14  C   UNL     1      12.524   9.743   2.231  0.00  0.00    +0.015 A 
ATOM     15  C   UNL     1      11.226  10.109   2.579  0.00  0.00    +0.065 A 
ATOM     16  C   UNL     1      10.118   9.142   2.573  0.00  0.00    +0.266 A 
ATOM     17  O   UNL     1      10.295   7.979   2.262  0.00  0.00    -0.267 OA
ATOM     18  N   UNL     1       8.893   9.596   2.927  0.00  0.00    -0.265 N 
ENDBRANCH   1  18
BRANCH   4  19
ATOM     19  C   UNL     1       4.500   6.052   2.970  0.00  0.00    +0.244 C 
ATOM     20  O   UNL     1       3.993   5.726   4.026  0.00  0.00    -0.270 OA
ATOM     21  N   UNL     1       4.014   5.567   1.810  0.00  0.00    -0.313 N 
ATOM     22  H   UNL     1       4.473   5.863   0.855  0.00  0.00    +0.149 HD
BRANCH  21  23
ATOM     23  C   UNL     1       2.874   4.647   1.821  0.00  0.00    +0.094 C 
BRANCH  23  24
ATOM     24  C   UNL     1       2.650   4.095   0.412  0.00  0.00    -0.020 C 
BRANCH  24  25
ATOM     25  C   UNL     1       1.395   3.261   0.393  0.00  0.00    -0.041 A 
ATOM     26  C   UNL     1       1.483   1.881   0.364  0.00  0.00    +0.003 A 
ATOM     27  C   UNL     1       0.332   1.116   0.346  0.00  0.00    +0.000 A 
ATOM     28  C   UNL     1      -0.907   1.730   0.350  0.00  0.00    +0.001 A 
ATOM     29  C   UNL     1      -0.996   3.108   0.384  0.00  0.00    +0.020 A 
ATOM     30  C   UNL     1       0.156   3.875   0.402  0.00  0.00    +0.043 A 
ATOM     31 CL   UNL     1       0.046   5.607   0.438  0.00  0.00    -0.083 Cl
ENDBRANCH  24  25
BRANCH  24  32
ATOM     32  N   UNL     1       3.797   3.263   0.025  0.00  0.00    +0.382 N 
ATOM     33  C   UNL     1       4.904   4.091  -0.472  0.00  0.00    -0.096 C 
ATOM     34  C   UNL     1       4.235   2.416   1.142  0.00  0.00    -0.096 C 
ATOM     35  H   UNL     1       3.475   2.603  -0.794  0.00  0.00    -0.082 HD
ENDBRANCH  24  32
ENDBRANCH  23  24
ENDBRANCH  21  23
ENDBRANCH   4  19
TORSDOF 6
