REMARK  Name = ZINC16940691
REMARK  8 active torsions:
REMARK  status: ('A' for Active; 'I' for Inactive)
REMARK    1  A    between atoms: C_1  and  C_2
REMARK    2  A    between atoms: C_2  and  C_21
REMARK    3  A    between atoms: N_3  and  N_4
REMARK    4  A    between atoms: N_4  and  C_5
REMARK    5  A    between atoms: C_5  and  N_7
REMARK    6  A    between atoms: N_7  and  N_8
REMARK    7  A    between atoms: N_8  and  C_9
REMARK    8  A    between atoms: C_9  and  N_11
REMARK                            x       y       z     vdW  Elec       q    Type
REMARK                         _______ _______ _______ _____ _____    ______ ____
ROOT
ATOM      1  N   UNL     1      -0.051   3.882  -0.897  0.00  0.00    -0.245 N 
ATOM      2  H   UNL     1      -0.089   4.385  -1.725  0.00  0.00    +0.172 HD
ENDROOT
BRANCH   1   3
ATOM      3  C   UNL     1       1.095   3.835  -0.189  0.00  0.00    +0.166 C 
ATOM      4  S   UNL     1       2.441   4.775  -0.675  0.00  0.00    -0.016 S 
BRANCH   3   5
ATOM      5  N   UNL     1       1.182   3.048   0.901  0.00  0.00    -0.217 N 
ATOM      6  H   UNL     1       2.026   2.961   1.371  0.00  0.00    +0.176 HD
BRANCH   5   9
ATOM      7  C   UNL     1       1.447   1.463   3.137  0.00  0.00    +0.069 C 
ATOM      8  C   UNL     1       0.136   1.598   2.408  0.00  0.00    +0.081 C 
ATOM      9  N   UNL     1       0.052   2.356   1.357  0.00  0.00    -0.184 NA
BRANCH   8  10
ATOM     10  C   UNL     1      -1.053   0.869   2.887  0.00  0.00    +0.086 A 
ATOM     11  C   UNL     1      -2.266   0.998   2.207  0.00  0.00    +0.029 A 
ATOM     12  C   UNL     1      -3.372   0.308   2.670  0.00  0.00    +0.004 A 
ATOM     13  C   UNL     1      -3.232  -0.490   3.797  0.00  0.00    +0.020 A 
ATOM     14  C   UNL     1      -2.001  -0.573   4.422  0.00  0.00    +0.111 A 
ATOM     15  N   UNL     1      -0.961   0.090   3.960  0.00  0.00    -0.254 NA
ENDBRANCH   8  10
ENDBRANCH   5   9
ENDBRANCH   3   5
ENDBRANCH   1   3
BRANCH   1  16
ATOM     16  N   UNL     1      -1.186   3.203  -0.437  0.00  0.00    -0.246 N 
ATOM     17  H   UNL     1      -1.148   2.247  -0.276  0.00  0.00    +0.172 HD
BRANCH  16  18
ATOM     18  C   UNL     1      -2.333   3.877  -0.220  0.00  0.00    +0.154 C 
ATOM     19  S   UNL     1      -3.765   3.026   0.175  0.00  0.00    -0.017 S 
BRANCH  18  20
ATOM     20  N   UNL     1      -2.351   5.222  -0.312  0.00  0.00    -0.281 N 
ATOM     21  C   UNL     1      -1.097   5.987  -0.318  0.00  0.00    +0.113 C 
ATOM     22  C   UNL     1      -1.277   7.187   0.622  0.00  0.00    +0.024 C 
ATOM     23  C   UNL     1      -2.379   8.089   0.067  0.00  0.00    +0.038 C 
ATOM     24  C   UNL     1      -3.619   7.286  -0.226  0.00  0.00    -0.026 A 
ATOM     25  C   UNL     1      -3.567   5.912  -0.411  0.00  0.00    +0.039 A 
ATOM     26  C   UNL     1      -4.730   5.202  -0.679  0.00  0.00    +0.024 A 
ATOM     27  C   UNL     1      -5.939   5.864  -0.771  0.00  0.00    +0.002 A 
ATOM     28  C   UNL     1      -5.990   7.234  -0.591  0.00  0.00    +0.000 A 
ATOM     29  C   UNL     1      -4.835   7.942  -0.319  0.00  0.00    +0.005 A 
ENDBRANCH  18  20
ENDBRANCH  16  18
ENDBRANCH   1  16
TORSDOF 7
