REMARK  Name = ZINC41020465
REMARK  12 active torsions:
REMARK  status: ('A' for Active; 'I' for Inactive)
REMARK    1  A    between atoms: C_1  and  C_2
REMARK    2  A    between atoms: C_2  and  S_3
REMARK    3  A    between atoms: S_3  and  C_4
REMARK    4  A    between atoms: C_9  and  C_26
REMARK    5  A    between atoms: C_11  and  C_15
REMARK    6  A    between atoms: C_12  and  C_14
REMARK    7  A    between atoms: N_17  and  C_18
REMARK    8  A    between atoms: C_22  and  C_25
REMARK    9  A    between atoms: C_23  and  C_24
REMARK   10  A    between atoms: C_29  and  O_34
REMARK   11  A    between atoms: C_30  and  O_32
REMARK   12  A    between atoms: O_32  and  C_33
REMARK                            x       y       z     vdW  Elec       q    Type
REMARK                         _______ _______ _______ _____ _____    ______ ____
ROOT
ATOM      1  C   UNL     1      -2.163  -2.811   1.209  0.00  0.00    +0.210 A 
ATOM      2  N   UNL     1      -1.106  -3.334   0.571  0.00  0.00    -0.187 NA
ATOM      3  C   UNL     1      -1.319  -4.601   0.341  0.00  0.00    +0.219 A 
ATOM      4  N   UNL     1      -2.538  -4.921   0.841  0.00  0.00    -0.220 N 
ATOM      5  N   UNL     1      -3.061  -3.754   1.396  0.00  0.00    -0.141 NA
ATOM      6  C   UNL     1      -3.111  -6.263   0.775  0.00  0.00    +0.177 C 
ATOM      7  C   UNL     1      -2.298  -7.110  -0.166  0.00  0.00    +0.060 C 
ATOM      8  C   UNL     1      -1.097  -6.739  -0.632  0.00  0.00    +0.018 C 
ATOM      9  N   UNL     1      -0.517  -5.541  -0.292  0.00  0.00    -0.287 N 
ATOM     10  C   UNL     1      -0.357  -7.668  -1.561  0.00  0.00    +0.061 C 
ATOM     11  H   UNL     1       0.415  -5.359  -0.486  0.00  0.00    +0.155 HD
ENDROOT
BRANCH   6  12
ATOM     12  C   UNL     1      -3.098  -6.883   2.149  0.00  0.00    -0.015 A 
ATOM     13  C   UNL     1      -1.896  -7.093   2.799  0.00  0.00    +0.010 A 
ATOM     14  C   UNL     1      -1.878  -7.661   4.059  0.00  0.00    +0.049 A 
ATOM     15  C   UNL     1      -3.067  -8.021   4.673  0.00  0.00    +0.158 A 
ATOM     16  C   UNL     1      -4.277  -7.809   4.019  0.00  0.00    +0.162 A 
ATOM     17  C   UNL     1      -4.287  -7.235   2.759  0.00  0.00    +0.055 A 
BRANCH  16  18
ATOM     18  O   UNL     1      -5.446  -8.161   4.618  0.00  0.00    -0.491 OA
ATOM     19  C   UNL     1      -6.642  -7.994   3.854  0.00  0.00    +0.277 C 
ENDBRANCH  16  18
BRANCH  15  20
ATOM     20  O   UNL     1      -3.051  -8.581   5.913  0.00  0.00    -0.503 OA
ATOM     21  H   UNL     1      -3.102  -7.939   6.635  0.00  0.00    +0.292 HD
ENDBRANCH  15  20
ENDBRANCH   6  12
BRANCH   7  22
ATOM     22  C   UNL     1      -2.825  -8.357  -0.577  0.00  0.00    +0.248 C 
ATOM     23  O   UNL     1      -3.689  -8.399  -1.434  0.00  0.00    -0.270 OA
ATOM     24  N   UNL     1      -2.371  -9.497  -0.021  0.00  0.00    -0.281 N 
ATOM     25  H   UNL     1      -1.630  -9.470   0.605  0.00  0.00    +0.155 HD
BRANCH  24  26
ATOM     26  C   UNL     1      -2.967 -10.720  -0.346  0.00  0.00    +0.037 A 
ATOM     27  C   UNL     1      -3.296 -11.005  -1.665  0.00  0.00    +0.023 A 
ATOM     28  C   UNL     1      -3.885 -12.213  -1.983  0.00  0.00    +0.002 A 
ATOM     29  C   UNL     1      -4.148 -13.138  -0.989  0.00  0.00    +0.004 A 
ATOM     30  C   UNL     1      -3.822 -12.857   0.325  0.00  0.00    -0.046 A 
ATOM     31  C   UNL     1      -3.228 -11.653   0.649  0.00  0.00    -0.026 A 
ATOM     32  C   UNL     1      -2.867 -11.350   2.080  0.00  0.00    +0.046 C 
ATOM     33  C   UNL     1      -4.110 -13.868   1.405  0.00  0.00    +0.044 C 
ENDBRANCH  24  26
ENDBRANCH   7  22
BRANCH   1  34
ATOM     34  S   UNL     1      -2.321  -1.132   1.721  0.00  0.00    -0.085 S 
BRANCH  34  36
ATOM     35  C   UNL     1      -0.777   1.121   1.564  0.00  0.00    +0.016 C 
ATOM     36  C   UNL     1      -0.772  -0.360   1.177  0.00  0.00    +0.074 C 
ENDBRANCH  34  36
ENDBRANCH   1  34
TORSDOF 7
