REMARK  Name = ZINC33899943
REMARK  9 active torsions:
REMARK  status: ('A' for Active; 'I' for Inactive)
REMARK    1  A    between atoms: C_1  and  C_2
REMARK    2  A    between atoms: C_2  and  C_3
REMARK    3  A    between atoms: C_6  and  N_9
REMARK    4  A    between atoms: C_14  and  C_32
REMARK    5  A    between atoms: C_17  and  C_22
REMARK    6  A    between atoms: C_17  and  C_29
REMARK    7  A    between atoms: C_22  and  C_23
REMARK    8  A    between atoms: C_37  and  O_38
REMARK    9  A    between atoms: O_38  and  C_39
REMARK                            x       y       z     vdW  Elec       q    Type
REMARK                         _______ _______ _______ _____ _____    ______ ____
ROOT
ATOM      1  N   UNL     1      -5.349  -1.881  -0.517  0.00  0.00    -0.210 N 
ATOM      2  C   UNL     1      -5.919  -1.998   0.727  0.00  0.00    +0.229 C 
ATOM      3  O   UNL     1      -5.519  -1.530   1.771  0.00  0.00    -0.275 OA
ATOM      4  C   UNL     1      -7.098  -2.801   0.517  0.00  0.00    +0.077 C 
ATOM      5  C   UNL     1      -8.392  -3.108   1.150  0.00  0.00    -0.023 C 
ATOM      6  N   UNL     1      -9.097  -3.880   0.069  0.00  0.00    +0.396 N 
ATOM      7  C   UNL     1      -8.479  -3.505  -1.237  0.00  0.00    +0.048 C 
ATOM      8  C   UNL     1      -7.564  -2.314  -0.913  0.00  0.00    +0.086 C 
ATOM      9  C   UNL     1      -6.189  -2.272  -1.521  0.00  0.00    +0.229 C 
ATOM     10  O   UNL     1      -5.889  -2.533  -2.667  0.00  0.00    -0.275 OA
ATOM     11  H   UNL     1      -8.985  -4.870   0.228  0.00  0.00    -0.083 HD
ATOM     12  H   UNL     1     -10.078  -3.643   0.064  0.00  0.00    -0.083 HD
ENDROOT
BRANCH   1  16
ATOM     13  C   UNL     1      -1.480  -0.470  -1.161  0.00  0.00    -0.048 A 
ATOM     14  C   UNL     1      -1.976  -0.561   0.127  0.00  0.00    +0.005 A 
ATOM     15  C   UNL     1      -3.258  -1.028   0.343  0.00  0.00    +0.024 A 
ATOM     16  C   UNL     1      -4.048  -1.406  -0.734  0.00  0.00    +0.044 A 
ATOM     17  C   UNL     1      -3.548  -1.313  -2.025  0.00  0.00    +0.024 A 
ATOM     18  C   UNL     1      -2.267  -0.841  -2.236  0.00  0.00    +0.005 A 
BRANCH  13  20
ATOM     19  C   UNL     1      -0.114   1.560  -1.565  0.00  0.00    +0.009 C 
ATOM     20  C   UNL     1      -0.081   0.040  -1.393  0.00  0.00    +0.032 C 
ENDBRANCH  13  20
ENDBRANCH   1  16
BRANCH   5  21
ATOM     21  C   UNL     1      -8.201  -3.957   2.381  0.00  0.00    -0.019 A 
ATOM     22  C   UNL     1      -7.000  -4.608   2.591  0.00  0.00    +0.005 A 
ATOM     23  C   UNL     1      -6.824  -5.387   3.720  0.00  0.00    +0.000 A 
ATOM     24  C   UNL     1      -7.848  -5.518   4.640  0.00  0.00    +0.004 A 
ATOM     25  C   UNL     1      -9.050  -4.869   4.434  0.00  0.00    +0.046 A 
ATOM     26  C   UNL     1      -9.227  -4.082   3.305  0.00  0.00    +0.122 A 
BRANCH  26  27
ATOM     27  O   UNL     1     -10.407  -3.438   3.103  0.00  0.00    -0.495 OA
ATOM     28  C   UNL     1     -11.419  -3.612   4.096  0.00  0.00    +0.277 C 
ENDBRANCH  26  27
ENDBRANCH   5  21
BRANCH   7  29
ATOM     29  C   UNL     1      -9.543  -3.078  -2.215  0.00  0.00    +0.346 C 
ATOM     30  O   UNL     1     -10.717  -3.104  -1.888  0.00  0.00    -0.248 OA
ATOM     31  O   UNL     1      -9.230  -2.708  -3.334  0.00  0.00    -0.248 OA
ENDBRANCH   7  29
BRANCH   7  32
ATOM     32  C   UNL     1      -7.679  -4.681  -1.802  0.00  0.00    +0.003 C 
BRANCH  32  33
ATOM     33  C   UNL     1      -8.642  -5.771  -2.277  0.00  0.00    -0.012 C 
ATOM     34  C   UNL     1      -9.449  -6.292  -1.087  0.00  0.00    +0.003 C 
ATOM     35  C   UNL     1     -10.412  -7.382  -1.562  0.00  0.00    +0.000 C 
ATOM     36  C   UNL     1      -9.615  -8.532  -2.181  0.00  0.00    +0.000 C 
ATOM     37  C   UNL     1      -8.808  -8.011  -3.371  0.00  0.00    +0.000 C 
ATOM     38  C   UNL     1      -7.845  -6.921  -2.896  0.00  0.00    +0.003 C 
ENDBRANCH  32  33
ENDBRANCH   7  32
TORSDOF 7
