REMARK  Name = ZINC05218486
REMARK  9 active torsions:
REMARK  status: ('A' for Active; 'I' for Inactive)
REMARK    1  A    between atoms: C_1  and  C_2
REMARK    2  A    between atoms: C_9  and  C_21
REMARK    3  A    between atoms: C_15  and  C_19
REMARK    4  A    between atoms: C_15  and  C_20
REMARK    5  A    between atoms: C_23  and  O_30
REMARK    6  A    between atoms: C_24  and  O_29
REMARK    7  A    between atoms: C_25  and  O_27
REMARK    8  A    between atoms: O_27  and  C_28
REMARK    9  A    between atoms: O_30  and  C_31
REMARK                            x       y       z     vdW  Elec       q    Type
REMARK                         _______ _______ _______ _____ _____    ______ ____
ROOT
ATOM      1  C   UNL     1      -1.097  -3.042  -4.559  0.00  0.00    +0.044 C 
ATOM      2  C   UNL     1      -0.236  -2.374  -3.518  0.00  0.00    -0.049 A 
ATOM      3  C   UNL     1       1.132  -2.296  -3.704  0.00  0.00    +0.005 A 
ATOM      4  C   UNL     1       1.935  -1.704  -2.744  0.00  0.00    +0.025 A 
ATOM      5  C   UNL     1       1.355  -1.192  -1.597  0.00  0.00    +0.052 A 
ATOM      6  C   UNL     1      -0.021  -1.234  -1.427  0.00  0.00    +0.050 A 
ATOM      7  C   UNL     1      -0.820  -1.843  -2.381  0.00  0.00    +0.028 A 
ATOM      8  N   UNL     1      -0.567  -0.643  -0.288  0.00  0.00    -0.331 N 
ATOM      9  C   UNL     1      -0.464   0.784  -0.069  0.00  0.00    +0.136 C 
ATOM     10  C   UNL     1       0.945   1.291   0.126  0.00  0.00    +0.036 C 
ATOM     11  C   UNL     1       2.071   0.594  -0.103  0.00  0.00    +0.017 C 
ATOM     12  N   UNL     1       2.110  -0.689  -0.544  0.00  0.00    -0.316 N 
ATOM     13  C   UNL     1       3.431   1.223   0.148  0.00  0.00    +0.058 C 
ATOM     14  C   UNL     1       3.370   2.726  -0.120  0.00  0.00    -0.023 C 
ATOM     15  C   UNL     1       2.320   3.325   0.823  0.00  0.00    +0.086 C 
ATOM     16  C   UNL     1       1.015   2.626   0.589  0.00  0.00    +0.163 C 
ATOM     17  O   UNL     1      -0.020   3.227   0.805  0.00  0.00    -0.292 OA
ATOM     18  C   UNL     1       2.964   2.977  -1.574  0.00  0.00    +0.011 C 
ATOM     19  C   UNL     1       4.735   3.359   0.154  0.00  0.00    +0.011 C 
ATOM     20  H   UNL     1      -1.021  -1.196   0.366  0.00  0.00    +0.147 HD
ATOM     21  H   UNL     1       2.709  -1.301  -0.090  0.00  0.00    +0.152 HD
ENDROOT
BRANCH   9  22
ATOM     22  C   UNL     1      -1.067   1.494  -1.254  0.00  0.00    -0.016 A 
ATOM     23  C   UNL     1      -0.496   1.354  -2.505  0.00  0.00    +0.055 A 
ATOM     24  C   UNL     1      -1.051   2.000  -3.599  0.00  0.00    +0.165 A 
ATOM     25  C   UNL     1      -2.176   2.800  -3.434  0.00  0.00    +0.201 A 
ATOM     26  C   UNL     1      -2.744   2.943  -2.174  0.00  0.00    +0.165 A 
ATOM     27  C   UNL     1      -2.186   2.288  -1.086  0.00  0.00    +0.055 A 
BRANCH  26  28
ATOM     28  O   UNL     1      -3.844   3.724  -2.007  0.00  0.00    -0.491 OA
ATOM     29  C   UNL     1      -4.374   3.825  -0.684  0.00  0.00    +0.277 C 
ENDBRANCH  26  28
BRANCH  25  30
ATOM     30  O   UNL     1      -2.720   3.441  -4.504  0.00  0.00    -0.501 OA
ATOM     31  H   UNL     1      -2.358   4.325  -4.659  0.00  0.00    +0.292 HD
ENDBRANCH  25  30
BRANCH  24  32
ATOM     32  O   UNL     1      -0.492   1.857  -4.830  0.00  0.00    -0.491 OA
ATOM     33  C   UNL     1       0.686   1.053  -4.918  0.00  0.00    +0.277 C 
ENDBRANCH  24  32
ENDBRANCH   9  22
TORSDOF 4
