REMARK  Name = ZINC36116382
REMARK  10 active torsions:
REMARK  status: ('A' for Active; 'I' for Inactive)
REMARK    1  A    between atoms: C_1  and  C_2
REMARK    2  A    between atoms: C_4  and  O_9
REMARK    3  A    between atoms: O_9  and  C_10
REMARK    4  A    between atoms: C_10  and  C_11
REMARK    5  A    between atoms: C_21  and  C_23
REMARK    6  A    between atoms: C_23  and  N_24
REMARK    7  A    between atoms: N_24  and  C_25
REMARK    8  A    between atoms: C_25  and  C_26
REMARK    9  A    between atoms: C_28  and  C_30
REMARK   10  A    between atoms: C_30  and  C_31
REMARK                            x       y       z     vdW  Elec       q    Type
REMARK                         _______ _______ _______ _____ _____    ______ ____
ROOT
ATOM      1  C   UNL     1       0.048  -4.755  -3.734  0.00  0.00    +0.144 C 
ATOM      2  C   UNL     1       1.202  -4.157  -4.536  0.00  0.00    -0.014 A 
ATOM      3  C   UNL     1       2.536  -4.506  -4.333  0.00  0.00    +0.013 A 
ATOM      4  C   UNL     1       3.507  -3.932  -5.079  0.00  0.00    +0.046 A 
ATOM      5  S   UNL     1       2.564  -2.841  -6.134  0.00  0.00    -0.101 S 
ATOM      6  C   UNL     1       0.953  -3.234  -5.505  0.00  0.00    -0.004 A 
ATOM      7  C   UNL     1      -0.370  -2.689  -5.936  0.00  0.00    +0.061 C 
ATOM      8  C   UNL     1      -1.412  -3.014  -4.855  0.00  0.00    +0.114 C 
ATOM      9  N   UNL     1      -1.205  -4.403  -4.415  0.00  0.00    -0.289 N 
ATOM     10  C   UNL     1      -2.149  -5.339  -4.636  0.00  0.00    +0.234 C 
ATOM     11  O   UNL     1      -1.967  -6.482  -4.271  0.00  0.00    -0.274 OA
ENDROOT
BRANCH   1  12
ATOM     12  C   UNL     1       0.047  -4.176  -2.317  0.00  0.00    +0.256 C 
BRANCH  12  13
ATOM     13  O   UNL     1       0.028  -2.749  -2.386  0.00  0.00    -0.490 OA
BRANCH  13  17
ATOM     14  C   UNL     1      -0.018   1.503   0.010  0.00  0.00    +0.045 C 
ATOM     15  C   UNL     1       0.002  -0.004   0.002  0.00  0.00    -0.029 A 
ATOM     16  C   UNL     1       0.006  -0.688  -1.199  0.00  0.00    +0.050 A 
ATOM     17  C   UNL     1       0.025  -2.075  -1.206  0.00  0.00    +0.121 A 
ATOM     18  C   UNL     1       0.040  -2.773  -0.007  0.00  0.00    +0.047 A 
ATOM     19  C   UNL     1       0.036  -2.086   1.192  0.00  0.00    +0.024 A 
ATOM     20  C   UNL     1       0.023  -0.702   1.196  0.00  0.00    +0.044 A 
ATOM     21 CL   UNL     1       0.025   0.160   2.704  0.00  0.00    -0.083 Cl
ENDBRANCH  13  17
ENDBRANCH  12  13
ENDBRANCH   1  12
BRANCH  10  22
ATOM     22  C   UNL     1      -3.430  -4.967  -5.336  0.00  0.00    +0.204 C 
BRANCH  22  23
ATOM     23  N   UNL     1      -4.285  -6.151  -5.454  0.00  0.00    -0.289 N 
ATOM     24  C   UNL     1      -4.188  -6.947  -6.537  0.00  0.00    +0.221 C 
ATOM     25  O   UNL     1      -3.394  -6.683  -7.415  0.00  0.00    -0.275 OA
BRANCH  23  26
ATOM     26  C   UNL     1      -5.244  -6.470  -4.394  0.00  0.00    +0.135 C 
BRANCH  26  27
ATOM     27  C   UNL     1      -6.561  -5.801  -4.690  0.00  0.00    -0.016 C 
ATOM     28  C   UNL     1      -7.659  -6.514  -4.749  0.00  0.00    +0.005 C 
ENDBRANCH  26  27
ENDBRANCH  23  26
BRANCH  24  29
ATOM     29  C   UNL     1      -5.067  -8.165  -6.659  0.00  0.00    +0.131 C 
BRANCH  29  30
ATOM     30  C   UNL     1      -4.764  -8.877  -7.952  0.00  0.00    -0.039 A 
ATOM     31  C   UNL     1      -5.454  -8.543  -9.102  0.00  0.00    +0.004 A 
ATOM     32  C   UNL     1      -5.176  -9.196 -10.289  0.00  0.00    +0.000 A 
ATOM     33  C   UNL     1      -4.207 -10.182 -10.325  0.00  0.00    +0.000 A 
ATOM     34  C   UNL     1      -3.517 -10.515  -9.174  0.00  0.00    +0.000 A 
ATOM     35  C   UNL     1      -3.792  -9.859  -7.989  0.00  0.00    +0.004 A 
ENDBRANCH  29  30
ENDBRANCH  24  29
ENDBRANCH  22  23
ENDBRANCH  10  22
TORSDOF 9
