REMARK  Name = ZINC08986618
REMARK  8 active torsions:
REMARK  status: ('A' for Active; 'I' for Inactive)
REMARK    1  A    between atoms: C_1  and  C_2
REMARK    2  A    between atoms: C_7  and  N_8
REMARK    3  A    between atoms: N_8  and  C_9
REMARK    4  A    between atoms: C_9  and  C_10
REMARK    5  A    between atoms: N_12  and  N_13
REMARK    6  A    between atoms: C_14  and  C_15
REMARK    7  A    between atoms: C_19  and  C_22
REMARK    8  A    between atoms: C_20  and  O_21
REMARK                            x       y       z     vdW  Elec       q    Type
REMARK                         _______ _______ _______ _____ _____    ______ ____
ROOT
ATOM      1  C   UNL     1       0.045   0.213   4.831  0.00  0.00    +0.249 C 
ATOM      2  O   UNL     1       0.027   1.407   4.618  0.00  0.00    -0.272 OA
ATOM      3  N   UNL     1       0.063  -0.246   6.098  0.00  0.00    -0.206 N 
ATOM      4  H   UNL     1       0.078  -1.201   6.268  0.00  0.00    +0.177 HD
ENDROOT
BRANCH   3   5
ATOM      5  N   UNL     1       0.061   0.657   7.170  0.00  0.00    -0.188 NA
ATOM      6  C   UNL     1       0.079   0.215   8.390  0.00  0.00    +0.142 C 
BRANCH   6   7
ATOM      7  C   UNL     1       0.076   1.165   9.518  0.00  0.00    +0.037 A 
ATOM      8  C   UNL     1       0.101   0.694  10.832  0.00  0.00    +0.027 A 
ATOM      9  C   UNL     1       0.099   1.588  11.883  0.00  0.00    +0.014 A 
ATOM     10  C   UNL     1       0.072   2.951  11.639  0.00  0.00    +0.021 A 
ATOM     11  C   UNL     1       0.047   3.429  10.343  0.00  0.00    -0.007 A 
ATOM     12  C   UNL     1       0.055   2.545   9.276  0.00  0.00    +0.128 A 
ATOM     13  C   UNL     1       0.018   4.914  10.089  0.00  0.00    +0.047 C 
ATOM     14  I   UNL     1       0.135   0.881  13.855  0.00  0.00    -0.044 I 
BRANCH  12  15
ATOM     15  O   UNL     1       0.037   3.014   8.002  0.00  0.00    -0.506 OA
ATOM     16  H   UNL     1      -0.851   3.138   7.641  0.00  0.00    +0.292 HD
ENDBRANCH  12  15
ENDBRANCH   6   7
ENDBRANCH   3   5
BRANCH   1  17
ATOM     17  C   UNL     1       0.047  -0.758   3.678  0.00  0.00    +0.199 C 
BRANCH  17  18
ATOM     18  N   UNL     1       0.025  -0.016   2.415  0.00  0.00    -0.335 N 
ATOM     19  H   UNL     1       0.012   0.954   2.422  0.00  0.00    +0.147 HD
BRANCH  18  26
ATOM     20  C   UNL     1      -0.018   1.503   0.010  0.00  0.00    +0.045 C 
ATOM     21  C   UNL     1       0.002  -0.004   0.002  0.00  0.00    -0.030 A 
ATOM     22  C   UNL     1       0.006  -0.689  -1.198  0.00  0.00    +0.005 A 
ATOM     23  C   UNL     1       0.024  -2.071  -1.206  0.00  0.00    +0.000 A 
ATOM     24  C   UNL     1       0.039  -2.773  -0.014  0.00  0.00    +0.002 A 
ATOM     25  C   UNL     1       0.036  -2.095   1.188  0.00  0.00    +0.023 A 
ATOM     26  C   UNL     1       0.023  -0.706   1.200  0.00  0.00    +0.030 A 
ENDBRANCH  18  26
ENDBRANCH  17  18
ENDBRANCH   1  17
TORSDOF 6
