REMARK  Name = ZINC39670010
REMARK  7 active torsions:
REMARK  status: ('A' for Active; 'I' for Inactive)
REMARK    1  A    between atoms: C_1  and  C_2
REMARK    2  A    between atoms: C_7  and  C_11
REMARK    3  A    between atoms: C_11  and  N_12
REMARK    4  A    between atoms: C_13  and  C_15
REMARK    5  A    between atoms: C_26  and  C_28
REMARK    6  A    between atoms: C_28  and  C_29
REMARK    7  A    between atoms: C_28  and  C_30
REMARK                            x       y       z     vdW  Elec       q    Type
REMARK                         _______ _______ _______ _____ _____    ______ ____
ROOT
ATOM      1  C   UNL     1       3.807  -6.928   4.388  0.00  0.00    +0.100 C 
ATOM      2  C   UNL     1       4.101  -7.514   2.989  0.00  0.00    +0.121 C 
ATOM      3  N   UNL     1       5.019  -8.649   3.245  0.00  0.00    -0.300 N 
ATOM      4  C   UNL     1       4.495  -9.276   4.482  0.00  0.00    +0.115 C 
ATOM      5  C   UNL     1       4.066  -8.087   5.365  0.00  0.00    -0.004 C 
ATOM      6  C   UNL     1       2.790  -8.430   6.128  0.00  0.00    -0.010 C 
ATOM      7  C   UNL     1       3.087  -9.546   7.134  0.00  0.00    -0.082 C 
ATOM      8  N   UNL     1       4.133  -9.103   8.064  0.00  0.00    +0.379 N 
ATOM      9  C   UNL     1       5.383  -8.864   7.334  0.00  0.00    -0.082 C 
ATOM     10  C   UNL     1       5.184  -7.720   6.336  0.00  0.00    -0.010 C 
ATOM     11  C   UNL     1       6.088  -9.027   2.517  0.00  0.00    +0.218 C 
ATOM     12  O   UNL     1       6.440  -8.362   1.565  0.00  0.00    -0.275 OA
ATOM     13  H   UNL     1       3.840  -8.249   8.515  0.00  0.00    -0.086 HD
ATOM     14  H   UNL     1       4.283  -9.815   8.763  0.00  0.00    -0.086 HD
ENDROOT
BRANCH   1  16
ATOM     15  N   UNL     1       2.029  -5.481   5.319  0.00  0.00    -0.309 N 
ATOM     16  C   UNL     1       2.372  -6.477   4.477  0.00  0.00    +0.219 C 
ATOM     17  O   UNL     1       1.525  -7.010   3.792  0.00  0.00    -0.275 OA
ATOM     18  H   UNL     1       2.707  -5.054   5.867  0.00  0.00    +0.149 HD
BRANCH  15  19
ATOM     19  C   UNL     1       0.634  -5.043   5.405  0.00  0.00    +0.159 C 
BRANCH  19  26
ATOM     20  C   UNL     1      -0.039  -0.696  11.364  0.00  0.00    +0.044 C 
ATOM     21  C   UNL     1       0.120  -1.149   9.935  0.00  0.00    -0.046 A 
ATOM     22  C   UNL     1       0.231  -0.203   8.902  0.00  0.00    +0.021 A 
ATOM     23  C   UNL     1       0.374  -0.606   7.622  0.00  0.00    +0.093 A 
ATOM     24  N   UNL     1       0.413  -1.935   7.312  0.00  0.00    -0.308 N 
ATOM     25  C   UNL     1       0.546  -2.605   6.127  0.00  0.00    +0.115 A 
ATOM     26  C   UNL     1       0.520  -3.926   6.410  0.00  0.00    +0.051 A 
ATOM     27  N   UNL     1       0.375  -4.076   7.729  0.00  0.00    -0.342 N 
ATOM     28  C   UNL     1       0.308  -2.881   8.299  0.00  0.00    +0.116 A 
ATOM     29  C   UNL     1       0.164  -2.476   9.641  0.00  0.00    +0.048 A 
ATOM     30  H   UNL     1       0.327  -4.925   8.196  0.00  0.00    +0.167 HD
ENDBRANCH  19  26
ENDBRANCH  15  19
ENDBRANCH   1  16
BRANCH  11  31
ATOM     31  C   UNL     1       6.847 -10.276   2.884  0.00  0.00    +0.069 C 
ATOM     32  C   UNL     1       6.187 -11.487   2.222  0.00  0.00    +0.017 C 
ATOM     33  C   UNL     1       8.293 -10.155   2.400  0.00  0.00    +0.017 C 
ENDBRANCH  11  31
TORSDOF 4
