REMARK  Name = ZINC67298452
REMARK  7 active torsions:
REMARK  status: ('A' for Active; 'I' for Inactive)
REMARK    1  A    between atoms: C_1  and  C_2
REMARK    2  A    between atoms: C_5  and  N_9
REMARK    3  A    between atoms: C_7  and  C_8
REMARK    4  A    between atoms: C_11  and  C_21
REMARK    5  A    between atoms: C_16  and  O_20
REMARK    6  A    between atoms: N_23  and  C_24
REMARK    7  A    between atoms: C_24  and  C_25
REMARK                            x       y       z     vdW  Elec       q    Type
REMARK                         _______ _______ _______ _____ _____    ______ ____
ROOT
ATOM      1  N   UNL     1       0.055  -4.143  -0.012  0.00  0.00    -0.325 N 
ATOM      2  C   UNL     1      -0.746  -4.806  -0.819  0.00  0.00    +0.212 A 
ATOM      3  C   UNL     1      -0.674  -6.276  -0.928  0.00  0.00    +0.097 A 
ATOM      4  C   UNL     1      -1.822  -6.942  -1.335  0.00  0.00    +0.030 A 
ATOM      5  C   UNL     1      -2.969  -6.170  -1.648  0.00  0.00    +0.018 A 
ATOM      6  C   UNL     1      -4.206  -6.794  -1.868  0.00  0.00    +0.015 A 
ATOM      7  C   UNL     1      -5.312  -6.039  -2.127  0.00  0.00    +0.046 A 
ATOM      8  C   UNL     1      -5.222  -4.649  -2.182  0.00  0.00    +0.120 A 
ATOM      9  C   UNL     1      -4.004  -4.015  -1.987  0.00  0.00    +0.092 A 
ATOM     10  C   UNL     1      -2.870  -4.767  -1.730  0.00  0.00    +0.141 A 
ATOM     11  O   UNL     1      -1.670  -4.161  -1.577  0.00  0.00    -0.438 OA
ATOM     12  H   UNL     1       0.649  -4.625   0.585  0.00  0.00    +0.169 HD
ENDROOT
BRANCH   1  17
ATOM     13  C   UNL     1       0.036   1.501  -0.028  0.00  0.00    +0.044 C 
ATOM     14  C   UNL     1       0.041  -0.006  -0.024  0.00  0.00    -0.047 A 
ATOM     15  C   UNL     1       0.049  -0.698  -1.223  0.00  0.00    +0.005 A 
ATOM     16  C   UNL     1       0.053  -2.077  -1.226  0.00  0.00    +0.026 A 
ATOM     17  C   UNL     1       0.051  -2.776  -0.016  0.00  0.00    +0.042 A 
ATOM     18  C   UNL     1       0.044  -2.070   1.190  0.00  0.00    +0.029 A 
ATOM     19  C   UNL     1       0.044  -0.691   1.178  0.00  0.00    -0.046 A 
ATOM     20  C   UNL     1       0.042   0.072   2.478  0.00  0.00    +0.044 C 
ENDBRANCH   1  17
BRANCH   3  21
ATOM     21  C   UNL     1       0.565  -7.006  -0.618  0.00  0.00    +0.249 C 
ATOM     22  O   UNL     1       1.530  -6.409  -0.180  0.00  0.00    -0.270 OA
ATOM     23  N   UNL     1       0.631  -8.338  -0.819  0.00  0.00    -0.309 N 
ATOM     24  H   UNL     1      -0.111  -8.802  -1.236  0.00  0.00    +0.149 HD
BRANCH  23  25
ATOM     25  C   UNL     1       1.823  -9.083  -0.406  0.00  0.00    +0.136 C 
BRANCH  25  26
ATOM     26  C   UNL     1       1.642 -10.563  -0.745  0.00  0.00    +0.135 C 
ATOM     27  C   UNL     1       2.839 -11.375  -0.206  0.00  0.00    +0.035 C 
ATOM     28  C   UNL     1       3.080 -12.403  -1.345  0.00  0.00    +0.031 C 
ATOM     29  C   UNL     1       2.707 -11.558  -2.588  0.00  0.00    +0.160 C 
ATOM     30  O   UNL     1       1.605 -10.735  -2.167  0.00  0.00    -0.375 OA
ENDBRANCH  25  26
ENDBRANCH  23  25
ENDBRANCH   3  21
BRANCH   8  31
ATOM     31  O   UNL     1      -6.333  -3.911  -2.429  0.00  0.00    -0.507 OA
ATOM     32  H   UNL     1      -6.818  -3.652  -1.634  0.00  0.00    +0.292 HD
ENDBRANCH   8  31
TORSDOF 5
