REMARK  Name = ZINC24359443
REMARK  4 active torsions:
REMARK  status: ('A' for Active; 'I' for Inactive)
REMARK    1  A    between atoms: C_1  and  O_2
REMARK    2  A    between atoms: O_2  and  C_3
REMARK    3  A    between atoms: C_4  and  S_11
REMARK    4  A    between atoms: S_11  and  N_14
REMARK                            x       y       z     vdW  Elec       q    Type
REMARK                         _______ _______ _______ _____ _____    ______ ____
ROOT
ATOM      1  S   UNL     1      -0.029   2.540  -2.220  0.00  0.00    +0.065 S 
ATOM      2  O   UNL     1      -0.993   3.276  -2.961  0.00  0.00    -0.153 OA
ATOM      3  O   UNL     1       0.942   3.170  -1.396  0.00  0.00    -0.153 OA
ENDROOT
BRANCH   1   5
ATOM      4  C   UNL     1       0.170   0.794  -4.314  0.00  0.00    +0.160 A 
ATOM      5  C   UNL     1       0.858   1.558  -3.383  0.00  0.00    +0.149 A 
ATOM      6  C   UNL     1       2.240   1.553  -3.372  0.00  0.00    +0.052 A 
ATOM      7  C   UNL     1       2.938   0.779  -4.283  0.00  0.00    +0.044 A 
ATOM      8  C   UNL     1       2.254   0.016  -5.212  0.00  0.00    +0.039 A 
ATOM      9  C   UNL     1       0.872   0.022  -5.230  0.00  0.00    +0.063 A 
ATOM     10 BR   UNL     1      -0.063  -1.021  -6.500  0.00  0.00    -0.046 Br
ATOM     11 CL   UNL     1       4.673   0.770  -4.262  0.00  0.00    -0.083 Cl
BRANCH   4  13
ATOM     12  C   UNL     1      -1.823   1.688  -5.253  0.00  0.00    +0.277 C 
ATOM     13  O   UNL     1      -1.189   0.801  -4.330  0.00  0.00    -0.492 OA
ENDBRANCH   4  13
ENDBRANCH   1   5
BRANCH   1  14
ATOM     14  N   UNL     1      -0.874   1.500  -1.246  0.00  0.00    -0.166 NA
ATOM     15  C   UNL     1      -0.249   0.874  -0.069  0.00  0.00    +0.128 C 
ATOM     16  C   UNL     1      -1.015   1.323   1.176  0.00  0.00    +0.121 C 
ATOM     17  N   UNL     1      -2.452   1.206   0.968  0.00  0.00    -0.313 N 
ATOM     18  C   UNL     1      -3.045   1.175  -0.227  0.00  0.00    +0.229 C 
ATOM     19  O   UNL     1      -4.257   1.153  -0.271  0.00  0.00    -0.274 OA
ATOM     20  C   UNL     1      -2.279   1.165  -1.522  0.00  0.00    +0.205 C 
ATOM     21  H   UNL     1      -3.129   1.135   1.832  0.00  0.00    +0.149 HD
ENDBRANCH   1  14
TORSDOF 3
