REMARK  Name = ZINC35375677
REMARK  6 active torsions:
REMARK  status: ('A' for Active; 'I' for Inactive)
REMARK    1  A    between atoms: C_1  and  C_2
REMARK    2  A    between atoms: C_16  and  C_19
REMARK    3  A    between atoms: C_19  and  C_20
REMARK    4  A    between atoms: N_32  and  C_35
REMARK    5  A    between atoms: C_39  and  O_41
REMARK    6  A    between atoms: O_41  and  C_42
REMARK                            x       y       z     vdW  Elec       q    Type
REMARK                         _______ _______ _______ _____ _____    ______ ____
ROOT
ATOM      1  C   UNL     1      -1.296   1.135   0.080  0.00  0.00    +0.045 C 
ATOM      2  C   UNL     1      -1.060  -0.353   0.107  0.00  0.00    -0.029 A 
ATOM      3  C   UNL     1      -1.138  -1.083  -1.061  0.00  0.00    +0.005 A 
ATOM      4  C   UNL     1      -0.922  -2.449  -1.047  0.00  0.00    +0.001 A 
ATOM      5  C   UNL     1      -0.625  -3.087   0.145  0.00  0.00    +0.008 A 
ATOM      6  C   UNL     1      -0.546  -2.362   1.313  0.00  0.00    +0.004 A 
ATOM      7  C   UNL     1      -0.756  -0.986   1.310  0.00  0.00    +0.042 A 
ATOM      8  N   UNL     1      -0.616  -0.473   2.601  0.00  0.00    -0.283 N 
ATOM      9  C   UNL     1      -0.316  -1.432   3.498  0.00  0.00    +0.243 C 
ATOM     10  O   UNL     1      -0.140  -1.280   4.689  0.00  0.00    -0.273 OA
ATOM     11  C   UNL     1      -0.253  -2.729   2.740  0.00  0.00    +0.136 C 
ATOM     12  C   UNL     1       1.128  -3.381   2.881  0.00  0.00    +0.123 C 
ATOM     13  C   UNL     1       0.944  -4.452   3.991  0.00  0.00    +0.108 C 
ATOM     14  C   UNL     1      -0.529  -4.318   4.432  0.00  0.00    +0.072 C 
ATOM     15  N   UNL     1      -1.221  -3.716   3.253  0.00  0.00    -0.295 NA
ATOM     16  C   UNL     1       1.144  -5.757   3.254  0.00  0.00    +0.232 C 
ATOM     17  O   UNL     1       1.074  -6.860   3.750  0.00  0.00    -0.274 OA
ATOM     18  N   UNL     1       1.411  -5.504   1.967  0.00  0.00    -0.210 N 
ATOM     19  C   UNL     1       1.436  -4.191   1.641  0.00  0.00    +0.233 C 
ATOM     20  O   UNL     1       1.663  -3.731   0.543  0.00  0.00    -0.274 OA
ATOM     21  H   UNL     1      -0.723   0.464   2.826  0.00  0.00    +0.155 HD
ATOM     22  H   UNL     1      -2.080  -3.268   3.535  0.00  0.00    +0.124 HD
ENDROOT
BRANCH  18  23
ATOM     23  C   UNL     1       1.651  -6.517   1.029  0.00  0.00    +0.047 A 
ATOM     24  C   UNL     1       0.627  -7.379   0.658  0.00  0.00    +0.024 A 
ATOM     25  C   UNL     1       0.865  -8.378  -0.266  0.00  0.00    +0.005 A 
ATOM     26  C   UNL     1       2.121  -8.523  -0.824  0.00  0.00    +0.046 A 
ATOM     27  C   UNL     1       3.148  -7.665  -0.457  0.00  0.00    +0.122 A 
ATOM     28  C   UNL     1       2.911  -6.657   0.466  0.00  0.00    +0.069 A 
BRANCH  27  29
ATOM     29  O   UNL     1       4.382  -7.808  -1.006  0.00  0.00    -0.495 OA
ATOM     30  C   UNL     1       4.552  -8.864  -1.954  0.00  0.00    +0.277 C 
ENDBRANCH  27  29
ENDBRANCH  18  23
BRANCH  14  31
ATOM     31  C   UNL     1      -1.121  -5.696   4.734  0.00  0.00    +0.056 C 
BRANCH  31  32
ATOM     32  C   UNL     1      -2.517  -5.534   5.279  0.00  0.00    -0.021 A 
ATOM     33  C   UNL     1      -2.868  -5.487   6.574  0.00  0.00    +0.087 A 
ATOM     34  N   UNL     1      -4.223  -5.332   6.684  0.00  0.00    -0.360 N 
ATOM     35  H   UNL     1      -4.711  -5.272   7.520  0.00  0.00    +0.165 HD
ATOM     36  C   UNL     1      -4.792  -5.274   5.431  0.00  0.00    +0.047 A 
ATOM     37  C   UNL     1      -3.747  -5.392   4.496  0.00  0.00    +0.003 A 
ATOM     38  C   UNL     1      -4.029  -5.360   3.129  0.00  0.00    +0.010 A 
ATOM     39  C   UNL     1      -5.320  -5.211   2.706  0.00  0.00    +0.001 A 
ATOM     40  C   UNL     1      -6.353  -5.090   3.624  0.00  0.00    +0.002 A 
ATOM     41  C   UNL     1      -6.099  -5.128   4.978  0.00  0.00    +0.026 A 
ENDBRANCH  31  32
ENDBRANCH  14  31
TORSDOF 4
