REMARK  Name = ZINC12497176
REMARK  10 active torsions:
REMARK  status: ('A' for Active; 'I' for Inactive)
REMARK    1  A    between atoms: C_1  and  C_2
REMARK    2  A    between atoms: C_2  and  O_3
REMARK    3  A    between atoms: O_3  and  C_4
REMARK    4  A    between atoms: C_4  and  C_6
REMARK    5  A    between atoms: C_6  and  C_31
REMARK    6  A    between atoms: C_11  and  C_13
REMARK    7  A    between atoms: C_16  and  O_19
REMARK    8  A    between atoms: N_22  and  C_25
REMARK    9  A    between atoms: C_31  and  C_32
REMARK   10  A    between atoms: C_35  and  O_38
REMARK                            x       y       z     vdW  Elec       q    Type
REMARK                         _______ _______ _______ _____ _____    ______ ____
ROOT
ATOM      1  C   UNL     1       0.641   0.695  -2.183  0.00  0.00    +0.048 C 
ATOM      2  C   UNL     1      -0.481   1.447  -1.456  0.00  0.00    +0.086 C 
ATOM      3  C   UNL     1      -0.013   1.086   0.008  0.00  0.00    +0.077 C 
ATOM      4  C   UNL     1       1.421   1.397  -0.004  0.00  0.00    -0.027 C 
ATOM      5  C   UNL     1      -1.211   1.351   0.766  0.00  0.00    +0.229 C 
ATOM      6  O   UNL     1      -1.291   1.782   1.897  0.00  0.00    -0.275 OA
ATOM      7  N   UNL     1      -2.240   1.007  -0.051  0.00  0.00    -0.210 N 
ATOM      8  C   UNL     1      -1.844   0.819  -1.344  0.00  0.00    +0.229 C 
ATOM      9  O   UNL     1      -2.464   0.260  -2.223  0.00  0.00    -0.275 OA
ATOM     10  N   UNL     1       1.849   1.075  -1.397  0.00  0.00    +0.396 N 
ATOM     11  H   UNL     1       2.295   1.896  -1.821  0.00  0.00    -0.083 HD
ATOM     12  H   UNL     1       2.514   0.293  -1.383  0.00  0.00    -0.083 HD
ENDROOT
BRANCH   4  13
ATOM     13  C   UNL     1       1.645   2.857   0.295  0.00  0.00    -0.060 A 
ATOM     14  C   UNL     1       1.485   3.799  -0.704  0.00  0.00    +0.005 A 
ATOM     15  C   UNL     1       1.684   5.139  -0.430  0.00  0.00    +0.045 A 
ATOM     16  C   UNL     1       2.057   5.537   0.845  0.00  0.00    +0.117 A 
ATOM     17  C   UNL     1       2.223   4.589   1.845  0.00  0.00    +0.045 A 
ATOM     18  C   UNL     1       2.017   3.252   1.567  0.00  0.00    +0.005 A 
BRANCH  16  19
ATOM     19  O   UNL     1       2.258   6.854   1.115  0.00  0.00    -0.507 OA
ATOM     20  H   UNL     1       3.168   7.150   0.972  0.00  0.00    +0.292 HD
ENDBRANCH  16  19
ENDBRANCH   4  13
BRANCH   7  21
ATOM     21  C   UNL     1      -3.566   0.863   0.383  0.00  0.00    +0.044 A 
ATOM     22  C   UNL     1      -4.560   0.518  -0.521  0.00  0.00    +0.024 A 
ATOM     23  C   UNL     1      -5.864   0.373  -0.090  0.00  0.00    +0.002 A 
ATOM     24  C   UNL     1      -6.181   0.581   1.240  0.00  0.00    +0.000 A 
ATOM     25  C   UNL     1      -5.194   0.931   2.142  0.00  0.00    +0.002 A 
ATOM     26  C   UNL     1      -3.887   1.072   1.718  0.00  0.00    +0.024 A 
ENDBRANCH   7  21
BRANCH   1  27
ATOM     27  C   UNL     1       0.411  -0.793  -2.123  0.00  0.00    +0.297 C 
ATOM     28  O   UNL     1      -0.715  -1.229  -2.072  0.00  0.00    -0.252 OA
BRANCH  27  29
ATOM     29  O   UNL     1       1.457  -1.634  -2.127  0.00  0.00    -0.466 OA
BRANCH  29  31
ATOM     30  C   UNL     1       2.469  -3.849  -2.081  0.00  0.00    +0.048 C 
ATOM     31  C   UNL     1       1.161  -3.054  -2.067  0.00  0.00    +0.228 C 
ENDBRANCH  29  31
ENDBRANCH  27  29
ENDBRANCH   1  27
BRANCH   1  32
ATOM     32  C   UNL     1       0.759   1.165  -3.635  0.00  0.00    +0.034 C 
BRANCH  32  33
ATOM     33  C   UNL     1       1.944   0.497  -4.283  0.00  0.00    -0.048 A 
ATOM     34  C   UNL     1       3.188   1.099  -4.235  0.00  0.00    +0.007 A 
ATOM     35  C   UNL     1       4.277   0.486  -4.824  0.00  0.00    +0.045 A 
ATOM     36  C   UNL     1       4.119  -0.730  -5.474  0.00  0.00    +0.117 A 
ATOM     37  C   UNL     1       2.869  -1.329  -5.526  0.00  0.00    +0.045 A 
ATOM     38  C   UNL     1       1.784  -0.715  -4.931  0.00  0.00    +0.007 A 
BRANCH  36  39
ATOM     39  O   UNL     1       5.188  -1.332  -6.059  0.00  0.00    -0.507 OA
ATOM     40  H   UNL     1       5.324  -1.081  -6.983  0.00  0.00    +0.292 HD
ENDBRANCH  36  39
ENDBRANCH  32  33
ENDBRANCH   1  32
TORSDOF 9
