REMARK  Name = ZINC16021979
REMARK  7 active torsions:
REMARK  status: ('A' for Active; 'I' for Inactive)
REMARK    1  A    between atoms: C_1  and  C_2
REMARK    2  A    between atoms: C_2  and  C_3
REMARK    3  A    between atoms: C_2  and  C_4
REMARK    4  A    between atoms: C_4  and  C_5
REMARK    5  A    between atoms: N_13  and  C_16
REMARK    6  A    between atoms: C_16  and  C_17
REMARK    7  A    between atoms: C_17  and  C_18
REMARK                            x       y       z     vdW  Elec       q    Type
REMARK                         _______ _______ _______ _____ _____    ______ ____
ROOT
ATOM      1  C   UNL     1      -1.405  -2.076   0.004  0.00  0.00    -0.057 C 
ATOM      2  C   UNL     1      -2.825  -2.643  -0.201  0.00  0.00    +0.073 C 
ATOM      3  C   UNL     1      -2.887  -3.903   0.707  0.00  0.00    +0.088 C 
ATOM      4  C   UNL     1      -3.933  -3.539   1.737  0.00  0.00    +0.225 C 
ATOM      5  O   UNL     1      -4.301  -4.254   2.644  0.00  0.00    -0.275 OA
ATOM      6  N   UNL     1      -4.388  -2.305   1.492  0.00  0.00    -0.241 N 
ATOM      7  C   UNL     1      -3.834  -1.701   0.415  0.00  0.00    +0.224 C 
ATOM      8  O   UNL     1      -4.095  -0.590   0.007  0.00  0.00    -0.275 OA
ATOM      9  C   UNL     1      -1.502  -3.974   1.363  0.00  0.00    +0.050 C 
ATOM     10  N   UNL     1      -0.973  -2.590   1.331  0.00  0.00    +0.394 N 
ATOM     11  C   UNL     1      -1.584  -4.486   2.772  0.00  0.00    -0.026 A 
ATOM     12  C   UNL     1      -2.237  -4.049   3.903  0.00  0.00    +0.024 A 
ATOM     13  C   UNL     1      -2.117  -4.755   5.088  0.00  0.00    +0.041 A 
ATOM     14  C   UNL     1      -1.340  -5.899   5.133  0.00  0.00    +0.022 A 
ATOM     15  C   UNL     1      -0.684  -6.339   4.002  0.00  0.00    +0.025 A 
ATOM     16  C   UNL     1      -0.799  -5.635   2.806  0.00  0.00    +0.036 A 
ATOM     17  N   UNL     1      -0.240  -5.874   1.548  0.00  0.00    -0.286 N 
ATOM     18  C   UNL     1      -0.604  -4.944   0.645  0.00  0.00    +0.211 C 
ATOM     19  O   UNL     1      -0.272  -4.897  -0.521  0.00  0.00    -0.277 OA
ATOM     20 CL   UNL     1      -2.940  -4.206   6.515  0.00  0.00    -0.084 Cl
ATOM     21  H   UNL     1       0.034  -2.598   1.395  0.00  0.00    -0.083 HD
ATOM     22  H   UNL     1       0.343  -6.624   1.349  0.00  0.00    +0.155 HD
ATOM     23  H   UNL     1      -1.371  -2.033   2.072  0.00  0.00    -0.083 HD
ENDROOT
BRANCH   1  24
ATOM     24  C   UNL     1      -1.439  -0.546   0.011  0.00  0.00    -0.012 C 
BRANCH  24  26
ATOM     25  C   UNL     1       0.820  -0.371  -1.042  0.00  0.00    +0.007 C 
ATOM     26  C   UNL     1      -0.018  -0.005   0.184  0.00  0.00    -0.019 C 
ATOM     27  C   UNL     1      -0.067   1.516   0.334  0.00  0.00    +0.007 C 
ENDBRANCH  24  26
ENDBRANCH   1  24
BRANCH   6  28
ATOM     28  C   UNL     1      -5.410  -1.658   2.318  0.00  0.00    +0.121 C 
BRANCH  28  29
ATOM     29  C   UNL     1      -4.734  -0.885   3.453  0.00  0.00    +0.054 C 
BRANCH  29  30
ATOM     30  C   UNL     1      -5.786  -0.220   4.303  0.00  0.00    -0.046 A 
ATOM     31  C   UNL     1      -6.219   1.056   3.995  0.00  0.00    +0.004 A 
ATOM     32  C   UNL     1      -7.184   1.666   4.774  0.00  0.00    +0.000 A 
ATOM     33  C   UNL     1      -7.716   1.000   5.863  0.00  0.00    +0.000 A 
ATOM     34  C   UNL     1      -7.283  -0.277   6.171  0.00  0.00    +0.000 A 
ATOM     35  C   UNL     1      -6.322  -0.888   5.388  0.00  0.00    +0.004 A 
ENDBRANCH  29  30
ENDBRANCH  28  29
ENDBRANCH   6  28
TORSDOF 5
