REMARK  Name = ZINC36392484
REMARK  7 active torsions:
REMARK  status: ('A' for Active; 'I' for Inactive)
REMARK    1  A    between atoms: C_1  and  C_2
REMARK    2  A    between atoms: C_2  and  O_3
REMARK    3  A    between atoms: O_3  and  C_4
REMARK    4  A    between atoms: C_9  and  C_10
REMARK    5  A    between atoms: C_10  and  N_11
REMARK    6  A    between atoms: C_18  and  C_20
REMARK    7  A    between atoms: C_24  and  C_27
REMARK                            x       y       z     vdW  Elec       q    Type
REMARK                         _______ _______ _______ _____ _____    ______ ____
ROOT
ATOM      1  C   UNL     1      -3.979  -1.499   0.027  0.00  0.00    +0.145 C 
ENDROOT
BRANCH   1   2
ATOM      2  N   UNL     1      -4.238  -1.012  -1.330  0.00  0.00    -0.295 N 
ATOM      3  C   UNL     1      -5.276  -0.185  -1.562  0.00  0.00    +0.306 C 
ATOM      4  O   UNL     1      -5.998   0.157  -0.645  0.00  0.00    -0.252 OA
ATOM      5  N   UNL     1      -5.515   0.263  -2.811  0.00  0.00    -0.247 N 
ATOM      6  C   UNL     1      -6.586   1.117  -3.050  0.00  0.00    +0.189 A 
ATOM      7  N   UNL     1      -7.470   1.601  -2.200  0.00  0.00    -0.126 NA
ATOM      8  N   UNL     1      -8.398   2.375  -2.570  0.00  0.00    -0.144 NA
ATOM      9  C   UNL     1      -8.486   2.708  -3.841  0.00  0.00    +0.107 A 
ATOM     10  S   UNL     1      -7.091   1.808  -4.503  0.00  0.00    -0.035 S 
ATOM     11  H   UNL     1      -3.662  -1.285  -2.061  0.00  0.00    +0.151 HD
ATOM     12  H   UNL     1      -4.939  -0.010  -3.542  0.00  0.00    +0.158 HD
BRANCH   9  13
ATOM     13  C   UNL     1      -9.480   3.599  -4.540  0.00  0.00    +0.047 C 
ATOM     14  C   UNL     1     -10.448   4.400  -3.666  0.00  0.00    +0.011 C 
ATOM     15  C   UNL     1     -10.956   3.202  -4.471  0.00  0.00    +0.011 C 
ENDBRANCH   9  13
ENDBRANCH   1   2
BRANCH   1  21
ATOM     16  C   UNL     1      -1.498  -1.849   0.006  0.00  0.00    +0.126 A 
ATOM     17  C   UNL     1      -0.389  -2.683  -0.003  0.00  0.00    +0.053 A 
ATOM     18  C   UNL     1      -0.556  -4.050  -0.007  0.00  0.00    +0.001 A 
ATOM     19  C   UNL     1      -1.827  -4.611   0.005  0.00  0.00    +0.125 A 
ATOM     20  C   UNL     1      -2.936  -3.770   0.009  0.00  0.00    +0.054 A 
ATOM     21  C   UNL     1      -2.771  -2.400   0.016  0.00  0.00    +0.015 A 
ATOM     22  O   UNL     1      -1.764  -5.972   0.021  0.00  0.00    -0.488 OA
ATOM     23  C   UNL     1      -0.462  -6.391  -0.424  0.00  0.00    +0.175 C 
ATOM     24  C   UNL     1       0.436  -5.196  -0.028  0.00  0.00    +0.083 C 
ATOM     25  C   UNL     1      -0.451  -6.603  -1.940  0.00  0.00    +0.052 C 
BRANCH  16  26
ATOM     26  O   UNL     1      -1.339  -0.499   0.012  0.00  0.00    -0.492 OA
BRANCH  26  28
ATOM     27  C   UNL     1      -0.019   1.526   0.010  0.00  0.00    +0.048 C 
ATOM     28  C   UNL     1       0.002  -0.004   0.002  0.00  0.00    +0.225 C 
ENDBRANCH  26  28
ENDBRANCH  16  26
ENDBRANCH   1  21
TORSDOF 5
