REMARK  Name = ZINC18525761
REMARK  9 active torsions:
REMARK  status: ('A' for Active; 'I' for Inactive)
REMARK    1  A    between atoms: C_1  and  C_2
REMARK    2  A    between atoms: C_6  and  C_16
REMARK    3  A    between atoms: N_8  and  C_9
REMARK    4  A    between atoms: C_16  and  O_18
REMARK    5  A    between atoms: O_18  and  C_19
REMARK    6  A    between atoms: C_19  and  C_20
REMARK    7  A    between atoms: N_22  and  C_23
REMARK    8  A    between atoms: C_23  and  C_25
REMARK    9  A    between atoms: C_23  and  C_26
REMARK                            x       y       z     vdW  Elec       q    Type
REMARK                         _______ _______ _______ _____ _____    ______ ____
ROOT
ATOM      1  C   UNL     1       4.601   8.996   3.899  0.00  0.00    +0.364 C 
ATOM      2  O   UNL     1       3.658   9.715   4.161  0.00  0.00    -0.243 OA
ENDROOT
BRANCH   1   8
ATOM      3  C   UNL     1       9.943  10.384   5.344  0.00  0.00    +0.066 C 
ATOM      4  C   UNL     1       8.505  10.091   4.999  0.00  0.00    +0.044 A 
ATOM      5  C   UNL     1       7.541  10.975   5.347  0.00  0.00    +0.076 A 
ATOM      6  C   UNL     1       6.200  10.663   5.004  0.00  0.00    +0.215 A 
ATOM      7  O   UNL     1       5.279  11.413   5.286  0.00  0.00    -0.285 OA
ATOM      8  C   UNL     1       5.966   9.396   4.292  0.00  0.00    +0.214 A 
ATOM      9  N   UNL     1       6.997   8.623   4.019  0.00  0.00    -0.156 NA
ATOM     10  N   UNL     1       8.194   8.946   4.343  0.00  0.00    -0.236 N 
BRANCH  10  11
ATOM     11  C   UNL     1       9.232   8.069   4.009  0.00  0.00    +0.066 A 
ATOM     12  C   UNL     1       9.295   7.519   2.734  0.00  0.00    +0.029 A 
ATOM     13  C   UNL     1      10.323   6.658   2.406  0.00  0.00    +0.022 A 
ATOM     14  C   UNL     1      11.284   6.335   3.347  0.00  0.00    +0.041 A 
ATOM     15  C   UNL     1      11.221   6.877   4.619  0.00  0.00    +0.022 A 
ATOM     16  C   UNL     1      10.198   7.742   4.952  0.00  0.00    +0.029 A 
ATOM     17 CL   UNL     1      12.572   5.246   2.933  0.00  0.00    -0.084 Cl
ENDBRANCH  10  11
ENDBRANCH   1   8
BRANCH   1  18
ATOM     18  O   UNL     1       4.402   7.833   3.248  0.00  0.00    -0.451 OA
BRANCH  18  19
ATOM     19  C   UNL     1       3.033   7.504   2.891  0.00  0.00    +0.328 C 
BRANCH  19  20
ATOM     20  C   UNL     1       3.006   6.178   2.175  0.00  0.00    +0.251 C 
ATOM     21  O   UNL     1       4.038   5.570   1.984  0.00  0.00    -0.272 OA
ATOM     22  N   UNL     1       1.834   5.667   1.748  0.00  0.00    -0.306 N 
ATOM     23  H   UNL     1       1.009   6.153   1.900  0.00  0.00    +0.149 HD
BRANCH  22  24
ATOM     24  C   UNL     1       1.807   4.378   1.052  0.00  0.00    +0.100 C 
ATOM     25  C   UNL     1       2.088   4.596  -0.436  0.00  0.00    +0.033 C 
BRANCH  24  26
ATOM     26  C   UNL     1       0.450   3.745   1.220  0.00  0.00    -0.026 A 
ATOM     27  C   UNL     1      -0.689   4.525   1.155  0.00  0.00    +0.007 A 
ATOM     28  C   UNL     1      -1.934   3.946   1.309  0.00  0.00    +0.022 A 
ATOM     29  C   UNL     1      -2.041   2.583   1.522  0.00  0.00    +0.059 A 
ATOM     30  C   UNL     1      -0.900   1.803   1.593  0.00  0.00    +0.060 A 
ATOM     31  C   UNL     1       0.345   2.384   1.439  0.00  0.00    +0.027 A 
ATOM     32 CL   UNL     1      -1.032   0.094   1.869  0.00  0.00    -0.082 Cl
ATOM     33 CL   UNL     1      -3.606   1.853   1.708  0.00  0.00    -0.082 Cl
ENDBRANCH  24  26
ENDBRANCH  22  24
ENDBRANCH  19  20
ENDBRANCH  18  19
ENDBRANCH   1  18
TORSDOF 7
