REMARK  Name = ZINC48523193
REMARK  3 active torsions:
REMARK  status: ('A' for Active; 'I' for Inactive)
REMARK    1  A    between atoms: C_3  and  O_22
REMARK    2  A    between atoms: C_4  and  C_8
REMARK    3  A    between atoms: N_14  and  C_15
REMARK                            x       y       z     vdW  Elec       q    Type
REMARK                         _______ _______ _______ _____ _____    ______ ____
ROOT
ATOM      1  C   UNL     1       3.696  -0.695  -0.038  0.00  0.00    +0.170 A 
ATOM      2  N   UNL     1       4.840  -0.015  -0.041  0.00  0.00    -0.195 NA
ATOM      3  C   UNL     1       5.999  -0.664  -0.056  0.00  0.00    +0.217 A 
ATOM      4  N   UNL     1       6.017  -1.993  -0.069  0.00  0.00    -0.181 NA
ATOM      5  C   UNL     1       4.875  -2.674  -0.066  0.00  0.00    +0.220 A 
ATOM      6  N   UNL     1       3.715  -2.026  -0.046  0.00  0.00    -0.195 NA
ATOM      7  N   UNL     1       4.895  -4.054  -0.080  0.00  0.00    -0.310 N 
ATOM      8  N   UNL     1       7.185   0.042  -0.059  0.00  0.00    -0.327 N 
ATOM      9  H   UNL     1       4.062  -4.551  -0.078  0.00  0.00    +0.149 HD
ATOM     10  H   UNL     1       7.172   1.012  -0.050  0.00  0.00    +0.145 HD
ATOM     11  H   UNL     1       8.032  -0.432  -0.070  0.00  0.00    +0.145 HD
ENDROOT
BRANCH   1  15
ATOM     12  C   UNL     1      -0.017   1.381   0.010  0.00  0.00    +0.023 A 
ATOM     13  C   UNL     1       1.166   2.095   0.002  0.00  0.00    +0.047 A 
ATOM     14  C   UNL     1       2.381   1.427  -0.013  0.00  0.00    +0.128 A 
ATOM     15  C   UNL     1       2.404   0.027  -0.021  0.00  0.00    +0.062 A 
ATOM     16  C   UNL     1       1.204  -0.683  -0.013  0.00  0.00    +0.035 A 
ATOM     17  C   UNL     1       0.002  -0.004   0.002  0.00  0.00    +0.042 A 
ATOM     18 CL   UNL     1      -1.491  -0.889   0.011  0.00  0.00    -0.084 Cl
BRANCH  14  19
ATOM     19  O   UNL     1       3.543   2.127  -0.022  0.00  0.00    -0.506 OA
ATOM     20  H   UNL     1       3.889   2.326   0.859  0.00  0.00    +0.292 HD
ENDBRANCH  14  19
ENDBRANCH   1  15
BRANCH   7  21
ATOM     21  C   UNL     1       6.174  -4.768  -0.097  0.00  0.00    +0.073 C 
ATOM     22  C   UNL     1       6.669  -4.893  -1.539  0.00  0.00    +0.022 C 
ATOM     23  C   UNL     1       8.005  -5.639  -1.557  0.00  0.00    +0.002 C 
ATOM     24  C   UNL     1       7.817  -7.035  -0.959  0.00  0.00    +0.000 C 
ATOM     25  C   UNL     1       7.322  -6.910   0.483  0.00  0.00    +0.002 C 
ATOM     26  C   UNL     1       5.986  -6.164   0.501  0.00  0.00    +0.022 C 
ENDBRANCH   7  21
TORSDOF 3
