REMARK  Name = ZINC22681000
REMARK  8 active torsions:
REMARK  status: ('A' for Active; 'I' for Inactive)
REMARK    1  A    between atoms: C_1  and  C_2
REMARK    2  A    between atoms: N_5  and  C_8
REMARK    3  A    between atoms: C_8  and  C_10
REMARK    4  A    between atoms: C_8  and  C_29
REMARK    5  A    between atoms: C_10  and  N_11
REMARK    6  A    between atoms: C_12  and  C_14
REMARK    7  A    between atoms: C_14  and  N_15
REMARK    8  A    between atoms: C_18  and  N_26
REMARK                            x       y       z     vdW  Elec       q    Type
REMARK                         _______ _______ _______ _____ _____    ______ ____
ROOT
ATOM      1  N   UNL     1      -1.298   2.790  -3.613  0.00  0.00    -0.315 N 
ATOM      2  C   UNL     1      -2.105   3.314  -4.557  0.00  0.00    +0.231 C 
ATOM      3  O   UNL     1      -2.758   2.583  -5.270  0.00  0.00    -0.274 OA
ATOM      4  H   UNL     1      -0.705   3.453  -2.966  0.00  0.00    +0.149 HD
ENDROOT
BRANCH   1   5
ATOM      5  C   UNL     1      -1.211   1.337  -3.449  0.00  0.00    +0.094 C 
BRANCH   5   6
ATOM      6  C   UNL     1      -0.145   1.005  -2.402  0.00  0.00    -0.013 C 
BRANCH   6  11
ATOM      7  C   UNL     1      -1.349   2.948   2.837  0.00  0.00    +0.007 C 
ATOM      8  C   UNL     1      -1.060   2.031   1.646  0.00  0.00    -0.018 C 
ATOM      9  C   UNL     1      -2.107   2.265   0.554  0.00  0.00    -0.015 C 
ATOM     10  C   UNL     1      -1.779   1.390  -0.657  0.00  0.00    -0.078 C 
ATOM     11  N   UNL     1      -0.440   1.727  -1.157  0.00  0.00    +0.386 N 
ATOM     12  C   UNL     1       0.588   1.465  -0.141  0.00  0.00    -0.078 C 
ATOM     13  C   UNL     1       0.330   2.343   1.085  0.00  0.00    -0.015 C 
ATOM     14  H   UNL     1      -0.426   2.805  -1.378  0.00  0.00    -0.081 HD
ENDBRANCH   6  11
BRANCH   6  15
ATOM     15  C   UNL     1      -0.148  -0.478  -2.135  0.00  0.00    -0.022 A 
ATOM     16  C   UNL     1       0.826  -1.390  -2.375  0.00  0.00    +0.009 A 
ATOM     17  C   UNL     1       0.601  -2.713  -2.044  0.00  0.00    +0.008 A 
ATOM     18  C   UNL     1      -0.587  -3.059  -1.490  0.00  0.00    +0.045 A 
ATOM     19  S   UNL     1      -1.431  -1.488  -1.415  0.00  0.00    -0.103 S 
ENDBRANCH   6  15
ENDBRANCH   5   6
ENDBRANCH   1   5
BRANCH   2  20
ATOM     20  C   UNL     1      -2.194   4.809  -4.726  0.00  0.00    +0.209 C 
BRANCH  20  21
ATOM     21  N   UNL     1      -3.130   5.123  -5.809  0.00  0.00    -0.256 N 
ATOM     22  C   UNL     1      -2.676   5.245  -7.130  0.00  0.00    +0.081 A 
ATOM     23  C   UNL     1      -1.430   4.761  -7.496  0.00  0.00    +0.060 A 
ATOM     24  C   UNL     1      -1.002   4.887  -8.805  0.00  0.00    +0.128 A 
ATOM     25  C   UNL     1      -1.814   5.489  -9.748  0.00  0.00    +0.036 A 
ATOM     26  C   UNL     1      -3.061   5.969  -9.389  0.00  0.00    +0.050 A 
ATOM     27  C   UNL     1      -3.497   5.846  -8.081  0.00  0.00    +0.143 A 
ATOM     28  O   UNL     1      -4.719   6.312  -7.711  0.00  0.00    -0.481 OA
ATOM     29  C   UNL     1      -5.398   5.588  -6.681  0.00  0.00    +0.325 C 
ATOM     30  C   UNL     1      -4.444   5.304  -5.549  0.00  0.00    +0.258 C 
ATOM     31  O   UNL     1      -4.853   5.237  -4.409  0.00  0.00    -0.271 OA
BRANCH  24  32
ATOM     32  N   UNL     1       0.331   4.377  -9.197  0.00  0.00    +0.056 N 
ATOM     33  O   UNL     1       0.711   4.487 -10.350  0.00  0.00    -0.126 OA
ATOM     34  O   UNL     1       1.049   3.847  -8.368  0.00  0.00    -0.126 OA
ENDBRANCH  24  32
ENDBRANCH  20  21
ENDBRANCH   2  20
TORSDOF 7
