REMARK  Name = ZINC05432755
REMARK  8 active torsions:
REMARK  status: ('A' for Active; 'I' for Inactive)
REMARK    1  A    between atoms: C_1  and  C_2
REMARK    2  A    between atoms: C_11  and  O_29
REMARK    3  A    between atoms: C_12  and  O_27
REMARK    4  A    between atoms: C_20  and  C_23
REMARK    5  A    between atoms: C_23  and  O_25
REMARK    6  A    between atoms: O_25  and  C_26
REMARK    7  A    between atoms: O_27  and  C_28
REMARK    8  A    between atoms: O_29  and  C_30
REMARK                            x       y       z     vdW  Elec       q    Type
REMARK                         _______ _______ _______ _____ _____    ______ ____
ROOT
ATOM      1  C   UNL     1      -5.148   2.958   5.664  0.00  0.00    +0.052 C 
ATOM      2  C   UNL     1      -4.119   2.205   4.818  0.00  0.00    +0.171 C 
ATOM      3  C   UNL     1      -3.028   3.168   4.353  0.00  0.00    +0.020 C 
ATOM      4  C   UNL     1      -2.330   3.858   5.521  0.00  0.00    -0.070 C 
ATOM      5  C   UNL     1      -0.676   5.564   6.032  0.00  0.00    -0.073 C 
ATOM      6  C   UNL     1       0.061   6.734   5.379  0.00  0.00    +0.017 C 
ATOM      7  C   UNL     1       0.944   6.236   4.265  0.00  0.00    -0.044 A 
ATOM      8  C   UNL     1       1.948   7.069   3.795  0.00  0.00    +0.053 A 
ATOM      9  C   UNL     1       2.780   6.656   2.770  0.00  0.00    +0.162 A 
ATOM     10  C   UNL     1       2.605   5.395   2.207  0.00  0.00    +0.162 A 
ATOM     11  C   UNL     1       1.604   4.566   2.679  0.00  0.00    +0.051 A 
ATOM     12  C   UNL     1       0.774   4.984   3.710  0.00  0.00    -0.054 A 
ATOM     13  C   UNL     1      -0.290   4.041   4.202  0.00  0.00    -0.037 C 
ATOM     14  C   UNL     1      -0.936   3.316   3.016  0.00  0.00    -0.002 C 
ATOM     15  C   UNL     1      -1.988   2.353   3.569  0.00  0.00    +0.033 C 
ATOM     16  C   UNL     1      -2.689   1.586   2.489  0.00  0.00    +0.074 C 
ATOM     17  C   UNL     1      -3.992   1.288   2.596  0.00  0.00    +0.198 C 
ATOM     18  O   UNL     1      -4.761   1.658   3.631  0.00  0.00    -0.496 OA
ATOM     19  N   UNL     1      -1.317   4.787   4.952  0.00  0.00    +0.385 N 
ATOM     20  H   UNL     1      -1.789   5.436   4.311  0.00  0.00    -0.081 HD
ENDROOT
BRANCH  16  21
ATOM     21  C   UNL     1      -1.966   1.166   1.347  0.00  0.00    +0.338 C 
ATOM     22  O   UNL     1      -2.548   0.639   0.418  0.00  0.00    -0.245 OA
BRANCH  21  23
ATOM     23  O   UNL     1      -0.630   1.350   1.289  0.00  0.00    -0.465 OA
ATOM     24  C   UNL     1       0.035   0.901   0.106  0.00  0.00    +0.280 C 
ENDBRANCH  21  23
ENDBRANCH  16  21
BRANCH  10  25
ATOM     25  O   UNL     1       3.414   4.980   1.196  0.00  0.00    -0.491 OA
ATOM     26  C   UNL     1       3.175   3.675   0.667  0.00  0.00    +0.277 C 
ENDBRANCH  10  25
BRANCH   9  27
ATOM     27  O   UNL     1       3.763   7.478   2.314  0.00  0.00    -0.491 OA
ATOM     28  C   UNL     1       3.882   8.757   2.940  0.00  0.00    +0.277 C 
ENDBRANCH   9  27
TORSDOF 4
