REMARK  Name = ZINC08791470
REMARK  9 active torsions:
REMARK  status: ('A' for Active; 'I' for Inactive)
REMARK    1  A    between atoms: CE_1  and  SD_2
REMARK    2  A    between atoms: SD_2  and  CG_3
REMARK    3  A    between atoms: CG_3  and  CB_4
REMARK    4  A    between atoms: CB_4  and  CA_5
REMARK    5  A    between atoms: CA_5  and  C_7
REMARK    6  A    between atoms: CA_5  and  N_9
REMARK    7  A    between atoms: C_10  and  C_12
REMARK    8  A    between atoms: C_12  and  C_25
REMARK    9  A    between atoms: C_18  and  C_20
REMARK                            x       y       z     vdW  Elec       q    Type
REMARK                         _______ _______ _______ _____ _____    ______ ____
ROOT
ATOM      1  C   UNK A   0      -6.524   0.615   3.414  0.00  0.00    +0.075 C 
ATOM      2  C   UNK A   0      -5.508   1.637   3.929  0.00  0.00    +0.040 C 
ATOM      3  C   UNK A   0      -4.916   2.405   2.743  0.00  0.00    +0.109 C 
ATOM      4  N   UNK A   0      -4.365   1.439   1.782  0.00  0.00    -0.303 N 
ATOM      5  C   UNK A   0      -5.233   0.362   1.287  0.00  0.00    +0.109 C 
ATOM      6  C   UNK A   0      -5.820  -0.386   2.494  0.00  0.00    +0.040 C 
ATOM      7  C   UNK A   0      -3.090   1.543   1.359  0.00  0.00    +0.202 C 
ATOM      8  O   UNK A   0      -2.385   2.439   1.772  0.00  0.00    -0.277 OA
ENDROOT
BRANCH   7   9
ATOM      9  C   UNK A   0      -2.539   0.544   0.374  0.00  0.00    +0.027 C 
ATOM     10  C   UNK A   0      -3.006   0.924  -1.056  0.00  0.00    +0.060 C 
ATOM     11  S   UNK A   0      -1.580   0.339  -2.065  0.00  0.00    -0.181 S 
ATOM     12  C   UNK A   0      -0.494  -0.235  -0.689  0.00  0.00    -0.011 C 
ATOM     13  N   UNK A   0      -1.063   0.547   0.452  0.00  0.00    +0.393 N 
ATOM     14  H   UNK A   0      -0.768   0.121   1.339  0.00  0.00    -0.084 HD
ATOM     15  H   UNK A   0      -0.722   1.514   0.407  0.00  0.00    -0.084 HD
ENDBRANCH   7   9
BRANCH   1  16
ATOM     16  C   UNK A   0      -7.133  -0.119   4.581  0.00  0.00    -0.032 A 
ATOM     17  C   UNK A   0      -7.749   0.589   5.596  0.00  0.00    +0.004 A 
ATOM     18  C   UNK A   0      -8.313  -0.084   6.664  0.00  0.00    +0.000 A 
ATOM     19  C   UNK A   0      -8.252  -1.464   6.721  0.00  0.00    +0.000 A 
ATOM     20  C   UNK A   0      -7.632  -2.171   5.708  0.00  0.00    +0.000 A 
ATOM     21  C   UNK A   0      -7.072  -1.498   4.638  0.00  0.00    +0.004 A 
ENDBRANCH   1  16
BRANCH   1  23
ATOM     22  N   MET A   1      -8.532   0.616   1.970  0.00  0.00    -0.301 N 
ATOM     23  C   UNK A   0      -7.608   1.326   2.646  0.00  0.00    +0.224 C 
ATOM     24  O   UNK A   0      -7.648   2.538   2.637  0.00  0.00    -0.275 OA
ATOM     25  H   MET A   1      -8.536  -0.353   2.026  0.00  0.00    +0.150 HD
BRANCH  22  26
ATOM     26  CA  MET A   1      -9.531   1.306   1.151  0.00  0.00    +0.187 C 
BRANCH  26  27
ATOM     27  C   MET A   1      -8.957   1.584  -0.214  0.00  0.00    +0.376 C 
ATOM     28  O   MET A   1      -7.828   1.241  -0.476  0.00  0.00    -0.244 OA
ATOM     29  OXT MET A   1      -9.698   2.213  -1.139  0.00  0.00    -0.244 OA
ENDBRANCH  26  27
BRANCH  26  30
ATOM     30  CB  MET A   1     -10.774   0.424   1.011  0.00  0.00    +0.044 C 
BRANCH  30  31
ATOM     31  CG  MET A   1     -11.428   0.244   2.382  0.00  0.00    +0.071 C 
BRANCH  31  33
ATOM     32  CE  MET A   1     -13.551  -0.915   3.906  0.00  0.00    +0.084 C 
ATOM     33  SD  MET A   1     -12.901  -0.802   2.216  0.00  0.00    -0.164 S 
ENDBRANCH  31  33
ENDBRANCH  30  31
ENDBRANCH  26  30
ENDBRANCH  22  26
ENDBRANCH   1  23
TORSDOF 8
