REMARK  Name = ZINC39394499
REMARK  8 active torsions:
REMARK  status: ('A' for Active; 'I' for Inactive)
REMARK    1  A    between atoms: C_1  and  C_2
REMARK    2  A    between atoms: C_9  and  C_23
REMARK    3  A    between atoms: C_11  and  C_13
REMARK    4  A    between atoms: C_13  and  N_14
REMARK    5  A    between atoms: N_14  and  C_15
REMARK    6  A    between atoms: N_14  and  C_16
REMARK    7  A    between atoms: C_16  and  C_17
REMARK    8  A    between atoms: C_17  and  C_18
REMARK                            x       y       z     vdW  Elec       q    Type
REMARK                         _______ _______ _______ _____ _____    ______ ____
ROOT
ATOM      1  C   UNL     1       0.518   1.635   0.579  0.00  0.00    +0.047 C 
ATOM      2  C   UNL     1       0.379   0.145   0.401  0.00  0.00    -0.011 C 
ATOM      3  C   UNL     1       0.319  -0.389  -0.843  0.00  0.00    +0.008 C 
ATOM      4  C   UNL     1       0.190  -1.780  -1.000  0.00  0.00    +0.016 C 
ATOM      5  C   UNL     1       0.125  -2.579   0.084  0.00  0.00    +0.077 C 
ATOM      6  N   UNL     1       0.184  -2.057   1.344  0.00  0.00    -0.288 N 
ATOM      7  C   UNL     1       0.316  -0.707   1.540  0.00  0.00    +0.124 C 
ATOM      8  N   UNL     1       0.364  -0.373   2.812  0.00  0.00    -0.254 NA
ATOM      9  C   UNL     1       0.266  -1.567   3.658  0.00  0.00    +0.212 C 
ATOM     10  C   UNL     1       0.133  -2.727   2.655  0.00  0.00    +0.097 C 
ENDROOT
BRANCH   9  11
ATOM     11  C   UNL     1      -0.958  -1.494   4.534  0.00  0.00    +0.242 C 
ATOM     12  O   UNL     1      -1.861  -0.735   4.253  0.00  0.00    -0.273 OA
ATOM     13  N   UNL     1      -1.050  -2.273   5.630  0.00  0.00    -0.295 N 
ATOM     14  C   UNL     1       0.036  -3.198   5.995  0.00  0.00    +0.136 C 
ATOM     15  C   UNL     1       0.392  -2.968   7.468  0.00  0.00    +0.179 C 
ATOM     16  O   UNL     1      -0.798  -3.043   8.257  0.00  0.00    -0.377 OA
ATOM     17  C   UNL     1      -1.770  -2.042   7.947  0.00  0.00    +0.179 C 
ATOM     18  C   UNL     1      -2.235  -2.220   6.501  0.00  0.00    +0.136 C 
ENDBRANCH   9  11
BRANCH  10  19
ATOM     19  C   UNL     1      -1.197  -3.462   2.833  0.00  0.00    -0.054 C 
BRANCH  19  20
ATOM     20  N   UNL     1      -1.359  -4.448   1.756  0.00  0.00    +0.379 N 
ATOM     21  C   UNL     1      -0.301  -5.461   1.856  0.00  0.00    -0.096 C 
ATOM     22  H   UNL     1      -1.297  -3.983   0.863  0.00  0.00    -0.082 HD
BRANCH  20  23
ATOM     23  C   UNL     1      -2.672  -5.096   1.880  0.00  0.00    -0.075 C 
BRANCH  23  24
ATOM     24  C   UNL     1      -2.893  -6.032   0.690  0.00  0.00    +0.015 C 
BRANCH  24  25
ATOM     25  C   UNL     1      -4.239  -6.697   0.817  0.00  0.00    -0.029 C 
ATOM     26  C   UNL     1      -5.397  -6.323   0.268  0.00  0.00    +0.135 C 
ATOM     27  N   UNL     1      -6.389  -7.173   0.612  0.00  0.00    -0.162 NA
ATOM     28  N   UNL     1      -6.037  -8.100   1.346  0.00  0.00    -0.183 NA
ATOM     29  C   UNL     1      -4.593  -7.952   1.595  0.00  0.00    +0.198 C 
ENDBRANCH  24  25
ENDBRANCH  23  24
ENDBRANCH  20  23
ENDBRANCH  19  20
ENDBRANCH  10  19
TORSDOF 6
