REMARK  Name = ZINC39710261
REMARK  12 active torsions:
REMARK  status: ('A' for Active; 'I' for Inactive)
REMARK    1  A    between atoms: C_1  and  C_2
REMARK    2  A    between atoms: C_9  and  C_14
REMARK    3  A    between atoms: C_14  and  C_16
REMARK    4  A    between atoms: C_14  and  N_25
REMARK    5  A    between atoms: N_20  and  C_21
REMARK    6  A    between atoms: C_21  and  C_22
REMARK    7  A    between atoms: C_22  and  O_23
REMARK    8  A    between atoms: O_23  and  C_24
REMARK    9  A    between atoms: N_25  and  C_26
REMARK   10  A    between atoms: N_25  and  C_33
REMARK   11  A    between atoms: C_26  and  C_27
REMARK   12  A    between atoms: C_33  and  C_34
REMARK                            x       y       z     vdW  Elec       q    Type
REMARK                         _______ _______ _______ _____ _____    ______ ____
ROOT
ATOM      1  C   UNL     1       2.652  -1.928  -0.997  0.00  0.00    +0.019 C 
ENDROOT
BRANCH   1  10
ATOM      2  C   UNL     1       9.167   0.825  -0.009  0.00  0.00    +0.044 C 
ATOM      3  C   UNL     1       8.190  -0.121  -0.658  0.00  0.00    -0.050 A 
ATOM      4  C   UNL     1       8.661  -1.303  -1.230  0.00  0.00    +0.005 A 
ATOM      5  C   UNL     1       7.841  -2.204  -1.832  0.00  0.00    +0.024 A 
ATOM      6  C   UNL     1       6.455  -1.972  -1.902  0.00  0.00    +0.040 A 
ATOM      7  N   UNL     1       5.660  -2.863  -2.494  0.00  0.00    -0.285 N 
ATOM      8  C   UNL     1       4.351  -2.708  -2.595  0.00  0.00    +0.223 C 
ATOM      9  O   UNL     1       3.676  -3.556  -3.147  0.00  0.00    -0.275 OA
ATOM     10  C   UNL     1       3.695  -1.473  -2.019  0.00  0.00    +0.092 C 
ATOM     11  C   UNL     1       4.595  -0.457  -1.344  0.00  0.00    -0.006 C 
ATOM     12  C   UNL     1       5.930  -0.732  -1.305  0.00  0.00    -0.007 A 
ATOM     13  C   UNL     1       6.869   0.192  -0.668  0.00  0.00    +0.012 A 
ATOM     14  H   UNL     1       6.061  -3.663  -2.870  0.00  0.00    +0.155 HD
ENDBRANCH   1  10
BRANCH   1  15
ATOM     15  C   UNL     1       3.293  -2.868  -0.009  0.00  0.00    +0.139 A 
ATOM     16  N   UNL     1       3.336  -4.175  -0.086  0.00  0.00    -0.115 NA
ATOM     17  N   UNL     1       3.970  -4.615   0.946  0.00  0.00    -0.023 NA
ATOM     18  N   UNL     1       4.333  -3.621   1.679  0.00  0.00    -0.044 NA
ATOM     19  N   UNL     1       3.939  -2.526   1.122  0.00  0.00    -0.229 N 
BRANCH  19  20
ATOM     20  C   UNL     1       4.152  -1.168   1.626  0.00  0.00    +0.175 C 
BRANCH  20  21
ATOM     21  C   UNL     1       5.247  -1.186   2.695  0.00  0.00    +0.183 C 
BRANCH  21  22
ATOM     22  O   UNL     1       5.378   0.118   3.264  0.00  0.00    -0.381 OA
ATOM     23  C   UNL     1       6.380   0.211   4.279  0.00  0.00    +0.194 C 
ENDBRANCH  21  22
ENDBRANCH  20  21
ENDBRANCH  19  20
ENDBRANCH   1  15
BRANCH   1  24
ATOM     24  N   UNL     1       1.556  -2.619  -1.690  0.00  0.00    +0.392 N 
ATOM     25  H   UNL     1       1.915  -3.443  -2.148  0.00  0.00    -0.080 HD
BRANCH  24  26
ATOM     26  C   UNL     1       0.965  -1.720  -2.690  0.00  0.00    -0.042 C 
BRANCH  26  27
ATOM     27  C   UNL     1       1.516  -2.053  -4.053  0.00  0.00    -0.064 A 
ATOM     28  C   UNL     1       2.165  -1.081  -4.792  0.00  0.00    +0.002 A 
ATOM     29  C   UNL     1       2.671  -1.387  -6.041  0.00  0.00    +0.000 A 
ATOM     30  C   UNL     1       2.529  -2.663  -6.552  0.00  0.00    +0.000 A 
ATOM     31  C   UNL     1       1.881  -3.635  -5.812  0.00  0.00    +0.000 A 
ATOM     32  C   UNL     1       1.379  -3.331  -4.561  0.00  0.00    +0.002 A 
ENDBRANCH  26  27
ENDBRANCH  24  26
BRANCH  24  33
ATOM     33  C   UNL     1       0.529  -3.010  -0.715  0.00  0.00    -0.040 C 
BRANCH  33  34
ATOM     34  C   UNL     1       0.438  -4.513  -0.656  0.00  0.00    -0.046 A 
ATOM     35  C   UNL     1       0.155  -5.233  -1.801  0.00  0.00    +0.003 A 
ATOM     36  C   UNL     1       0.072  -6.612  -1.748  0.00  0.00    +0.000 A 
ATOM     37  C   UNL     1       0.270  -7.271  -0.549  0.00  0.00    +0.001 A 
ATOM     38  C   UNL     1       0.553  -6.552   0.597  0.00  0.00    +0.020 A 
ATOM     39  C   UNL     1       0.643  -5.172   0.543  0.00  0.00    +0.042 A 
ATOM     40 CL   UNL     1       1.004  -4.268   1.980  0.00  0.00    -0.083 Cl
ENDBRANCH  33  34
ENDBRANCH  24  33
ENDBRANCH   1  24
TORSDOF 10
