REMARK  Name = ZINC36597731
REMARK  15 active torsions:
REMARK  status: ('A' for Active; 'I' for Inactive)
REMARK    1  A    between atoms: C_1  and  C_2
REMARK    2  A    between atoms: C_5  and  C_7
REMARK    3  A    between atoms: C_7  and  N_8
REMARK    4  A    between atoms: N_8  and  C_9
REMARK    5  A    between atoms: C_9  and  C_11
REMARK    6  A    between atoms: C_9  and  C_23
REMARK    7  A    between atoms: C_20  and  O_21
REMARK    8  A    between atoms: O_21  and  C_22
REMARK    9  A    between atoms: N_25  and  C_26
REMARK   10  A    between atoms: C_26  and  C_27
REMARK   11  A    between atoms: C_26  and  C_28
REMARK   12  A    between atoms: C_26  and  C_29
REMARK   13  A    between atoms: C_30  and  C_32
REMARK   14  A    between atoms: C_36  and  O_39
REMARK   15  A    between atoms: C_37  and  O_38
REMARK                            x       y       z     vdW  Elec       q    Type
REMARK                         _______ _______ _______ _____ _____    ______ ____
ROOT
ATOM      1  C   UNL     1       2.316  -2.810  -2.159  0.00  0.00    +0.197 C 
ENDROOT
BRANCH   1   2
ATOM      2  C   UNL     1       1.293  -2.963  -3.255  0.00  0.00    +0.031 A 
ATOM      3  C   UNL     1      -0.040  -3.271  -2.938  0.00  0.00    -0.009 A 
ATOM      4  C   UNL     1      -0.452  -3.444  -1.605  0.00  0.00    +0.009 A 
ATOM      5  C   UNL     1      -1.752  -3.741  -1.335  0.00  0.00    +0.001 A 
ATOM      6  C   UNL     1      -2.684  -3.879  -2.362  0.00  0.00    +0.001 A 
ATOM      7  C   UNL     1      -2.322  -3.720  -3.664  0.00  0.00    +0.008 A 
ATOM      8  C   UNL     1      -0.989  -3.411  -3.982  0.00  0.00    -0.017 A 
ATOM      9  C   UNL     1      -0.579  -3.239  -5.316  0.00  0.00    +0.012 A 
ATOM     10  C   UNL     1       0.720  -2.941  -5.589  0.00  0.00    +0.046 A 
ATOM     11  C   UNL     1       1.656  -2.797  -4.561  0.00  0.00    +0.126 A 
BRANCH  11  12
ATOM     12  O   UNL     1       2.945  -2.494  -4.865  0.00  0.00    -0.495 OA
ATOM     13  C   UNL     1       3.241  -2.220  -6.236  0.00  0.00    +0.277 C 
ENDBRANCH  11  12
ENDBRANCH   1   2
BRANCH   1  14
ATOM     14  C   UNL     1       3.627  -3.402  -2.609  0.00  0.00    +0.239 C 
ATOM     15  O   UNL     1       3.862  -4.575  -2.413  0.00  0.00    -0.273 OA
ATOM     16  N   UNL     1       4.539  -2.626  -3.229  0.00  0.00    -0.309 N 
ATOM     17  H   UNL     1       4.349  -1.689  -3.390  0.00  0.00    +0.149 HD
BRANCH  16  18
ATOM     18  C   UNL     1       5.816  -3.200  -3.660  0.00  0.00    +0.026 C 
ATOM     19  C   UNL     1       5.557  -4.333  -4.654  0.00  0.00    +0.031 C 
ATOM     20  C   UNL     1       6.661  -2.115  -4.332  0.00  0.00    +0.031 C 
ATOM     21  C   UNL     1       6.565  -3.749  -2.444  0.00  0.00    +0.031 C 
ENDBRANCH  16  18
ENDBRANCH   1  14
BRANCH   1  22
ATOM     22  N   UNL     1       1.853  -3.508  -0.957  0.00  0.00    -0.274 N 
ATOM     23  C   UNL     1       1.404  -4.776  -1.045  0.00  0.00    +0.252 C 
ATOM     24  O   UNL     1       1.404  -5.491  -0.061  0.00  0.00    -0.270 OA
BRANCH  23  25
ATOM     25  C   UNL     1       0.912  -5.297  -2.335  0.00  0.00    +0.082 A 
ATOM     26  C   UNL     1       1.531  -4.913  -3.529  0.00  0.00    +0.017 A 
ATOM     27  C   UNL     1       1.070  -5.402  -4.731  0.00  0.00    +0.005 A 
ATOM     28  C   UNL     1      -0.007  -6.273  -4.766  0.00  0.00    +0.049 A 
ATOM     29  C   UNL     1      -0.630  -6.662  -3.593  0.00  0.00    +0.159 A 
ATOM     30  C   UNL     1      -0.172  -6.181  -2.370  0.00  0.00    +0.171 A 
BRANCH  30  31
ATOM     31  O   UNL     1      -0.777  -6.564  -1.216  0.00  0.00    -0.503 OA
ATOM     32  H   UNL     1      -1.508  -5.992  -0.946  0.00  0.00    +0.292 HD
ENDBRANCH  30  31
BRANCH  29  33
ATOM     33  O   UNL     1      -1.687  -7.517  -3.635  0.00  0.00    -0.503 OA
ATOM     34  H   UNL     1      -1.440  -8.450  -3.580  0.00  0.00    +0.292 HD
ENDBRANCH  29  33
ENDBRANCH  23  25
BRANCH  22  35
ATOM     35  C   UNL     1       1.877  -2.828   0.341  0.00  0.00    +0.183 C 
BRANCH  35  40
ATOM     36  C   UNL     1      -1.653   0.771   0.188  0.00  0.00    +0.086 C 
ATOM     37  C   UNL     1      -0.960  -0.534   0.484  0.00  0.00    +0.102 A 
ATOM     38  C   UNL     1      -1.488  -1.569   1.161  0.00  0.00    +0.045 A 
ATOM     39  C   UNL     1      -0.499  -2.578   1.204  0.00  0.00    +0.046 A 
ATOM     40  C   UNL     1       0.575  -2.099   0.550  0.00  0.00    +0.122 A 
ATOM     41  O   UNL     1       0.288  -0.863   0.111  0.00  0.00    -0.463 OA
ENDBRANCH  35  40
ENDBRANCH  22  35
ENDBRANCH   1  22
TORSDOF 10
