REMARK  Name = ZINC15547729
REMARK  12 active torsions:
REMARK  status: ('A' for Active; 'I' for Inactive)
REMARK    1  A    between atoms: C_1  and  C_2
REMARK    2  A    between atoms: C_11  and  C_12
REMARK    3  A    between atoms: C_11  and  N_66
REMARK    4  A    between atoms: N_14  and  C_15
REMARK    5  A    between atoms: N_14  and  C_20
REMARK    6  A    between atoms: C_15  and  C_16
REMARK    7  A    between atoms: C_16  and  C_17
REMARK    8  A    between atoms: C_17  and  O_18
REMARK    9  A    between atoms: O_18  and  C_19
REMARK   10  A    between atoms: C_21  and  N_36
REMARK   11  A    between atoms: N_22  and  C_29
REMARK   12  A    between atoms: C_29  and  C_30
REMARK                            x       y       z     vdW  Elec       q    Type
REMARK                         _______ _______ _______ _____ _____    ______ ____
ROOT
ATOM      1  C   UNL     1       4.350  -4.255  -1.059  0.00  0.00    +0.203 C 
ATOM      2  O   UNL     1       5.178  -3.425  -1.369  0.00  0.00    -0.277 OA
ATOM      3  N   UNL     1       4.569  -5.560  -1.327  0.00  0.00    -0.266 N 
ENDROOT
BRANCH   3   4
ATOM      4  C   UNL     1       5.714  -5.947  -2.055  0.00  0.00    +0.140 A 
ATOM      5  C   UNL     1       5.889  -5.534  -3.360  0.00  0.00    +0.128 A 
ATOM      6  N   UNL     1       7.018  -5.926  -4.041  0.00  0.00    -0.276 N 
ATOM      7  C   UNL     1       7.935  -6.710  -3.446  0.00  0.00    +0.331 A 
ATOM      8  O   UNL     1       8.924  -7.049  -4.068  0.00  0.00    -0.246 OA
ATOM      9  N   UNL     1       7.779  -7.126  -2.177  0.00  0.00    -0.273 N 
ATOM     10  H   UNL     1       8.475  -7.708  -1.758  0.00  0.00    +0.173 HD
ATOM     11  C   UNL     1       6.693  -6.767  -1.464  0.00  0.00    +0.277 A 
ATOM     12  O   UNL     1       6.561  -7.150  -0.314  0.00  0.00    -0.266 OA
BRANCH   5  13
ATOM     13  N   UNL     1       4.950  -4.738  -3.969  0.00  0.00    -0.343 N 
ATOM     14  H   UNL     1       4.109  -4.552  -3.523  0.00  0.00    +0.144 HD
ATOM     15  H   UNL     1       5.128  -4.362  -4.846  0.00  0.00    +0.144 HD
ENDBRANCH   5  13
BRANCH   6  16
ATOM     16  C   UNL     1       7.221  -5.490  -5.425  0.00  0.00    +0.163 C 
BRANCH  16  17
ATOM     17  C   UNL     1       6.604  -6.495  -6.364  0.00  0.00    -0.028 A 
ATOM     18  C   UNL     1       7.357  -7.553  -6.836  0.00  0.00    +0.005 A 
ATOM     19  C   UNL     1       6.790  -8.478  -7.693  0.00  0.00    +0.000 A 
ATOM     20  C   UNL     1       5.472  -8.338  -8.085  0.00  0.00    +0.000 A 
ATOM     21  C   UNL     1       4.720  -7.277  -7.617  0.00  0.00    +0.000 A 
ATOM     22  C   UNL     1       5.286  -6.356  -6.756  0.00  0.00    +0.005 A 
ENDBRANCH  16  17
ENDBRANCH   6  16
ENDBRANCH   3   4
BRANCH   1  23
ATOM     23  C   UNL     1       3.076  -3.831  -0.373  0.00  0.00    +0.020 C 
BRANCH  23  33
ATOM     24  C   UNL     1       0.726  -2.225  -0.864  0.00  0.00    -0.008 C 
ATOM     25  C   UNL     1       1.755  -1.890   0.218  0.00  0.00    -0.039 C 
ATOM     26  C   UNL     1       1.825  -0.378   0.408  0.00  0.00    -0.051 A 
ATOM     27  C   UNL     1       0.708   0.454   0.433  0.00  0.00    +0.010 A 
ATOM     28  C   UNL     1       0.861   1.788   0.604  0.00  0.00    +0.045 A 
ATOM     29  S   UNL     1       2.636   1.940   0.745  0.00  0.00    -0.101 S 
ATOM     30  C   UNL     1       3.036   0.225   0.566  0.00  0.00    -0.010 A 
ATOM     31  C   UNL     1       4.371  -0.446   0.579  0.00  0.00    +0.024 C 
ATOM     32  C   UNL     1       4.135  -1.957   0.738  0.00  0.00    -0.072 C 
ATOM     33  N   UNL     1       3.087  -2.362  -0.230  0.00  0.00    +0.390 N 
ATOM     34  H   UNL     1       3.298  -1.939  -1.141  0.00  0.00    -0.080 HD
ENDBRANCH  23  33
ENDBRANCH   1  23
BRANCH   3  35
ATOM     35  C   UNL     1       3.617  -6.573  -0.864  0.00  0.00    +0.116 C 
BRANCH  35  36
ATOM     36  C   UNL     1       2.572  -6.827  -1.952  0.00  0.00    +0.047 C 
BRANCH  36  37
ATOM     37  C   UNL     1       1.579  -7.885  -1.468  0.00  0.00    +0.161 C 
BRANCH  37  38
ATOM     38  O   UNL     1       0.603  -8.122  -2.484  0.00  0.00    -0.383 OA
ATOM     39  C   UNL     1      -0.378  -9.100  -2.131  0.00  0.00    +0.193 C 
ENDBRANCH  37  38
ENDBRANCH  36  37
ENDBRANCH  35  36
ENDBRANCH   3  35
TORSDOF 10
