REMARK  Name = ZINC39352173
REMARK  7 active torsions:
REMARK  status: ('A' for Active; 'I' for Inactive)
REMARK    1  A    between atoms: C_1  and  C_2
REMARK    2  A    between atoms: C_2  and  O_3
REMARK    3  A    between atoms: O_3  and  C_4
REMARK    4  A    between atoms: C_7  and  N_10
REMARK    5  A    between atoms: C_15  and  C_29
REMARK    6  A    between atoms: C_31  and  N_36
REMARK    7  A    between atoms: C_34  and  O_35
REMARK                            x       y       z     vdW  Elec       q    Type
REMARK                         _______ _______ _______ _____ _____    ______ ____
ROOT
ATOM      1  N   UNL     1       1.101  -5.940  -1.835  0.00  0.00    -0.209 N 
ATOM      2  C   UNL     1       1.721  -6.516  -2.901  0.00  0.00    +0.231 C 
ATOM      3  O   UNL     1       2.443  -5.967  -3.706  0.00  0.00    -0.274 OA
ATOM      4  C   UNL     1       1.329  -7.978  -2.882  0.00  0.00    +0.107 C 
ATOM      5  C   UNL     1       2.401  -8.963  -3.341  0.00  0.00    +0.055 C 
ATOM      6  C   UNL     1       1.759 -10.339  -3.334  0.00  0.00    +0.114 C 
ATOM      7  C   UNL     1       1.258 -10.754  -1.956  0.00  0.00    +0.080 C 
ATOM      8  N   UNL     1       1.564 -11.976  -1.640  0.00  0.00    -0.197 NA
ATOM      9  C   UNL     1       2.359 -12.780  -2.374  0.00  0.00    +0.132 C 
ATOM     10  S   UNL     1       2.685 -14.447  -2.162  0.00  0.00    -0.026 S 
ATOM     11  S   UNL     1       2.985 -11.663  -3.657  0.00  0.00    -0.090 S 
ATOM     12  S   UNL     1       0.451  -9.695  -0.931  0.00  0.00    -0.098 S 
ATOM     13  C   UNL     1       1.156  -8.138  -1.361  0.00  0.00    +0.151 C 
ATOM     14  C   UNL     1       0.600  -6.844  -0.941  0.00  0.00    +0.240 C 
ATOM     15  O   UNL     1      -0.143  -6.627  -0.007  0.00  0.00    -0.274 OA
ENDROOT
BRANCH   1  19
ATOM     16  C   UNL     1       0.777  -1.810  -1.336  0.00  0.00    +0.121 A 
ATOM     17  C   UNL     1       0.242  -2.668  -0.386  0.00  0.00    +0.047 A 
ATOM     18  C   UNL     1       0.349  -4.035  -0.550  0.00  0.00    +0.027 A 
ATOM     19  C   UNL     1       0.992  -4.551  -1.668  0.00  0.00    +0.044 A 
ATOM     20  C   UNL     1       1.526  -3.692  -2.619  0.00  0.00    +0.027 A 
ATOM     21  C   UNL     1       1.414  -2.326  -2.455  0.00  0.00    +0.047 A 
BRANCH  16  22
ATOM     22  O   UNL     1       0.671  -0.465  -1.174  0.00  0.00    -0.492 OA
BRANCH  22  24
ATOM     23  C   UNL     1      -0.019   1.526   0.010  0.00  0.00    +0.048 C 
ATOM     24  C   UNL     1       0.002  -0.004   0.002  0.00  0.00    +0.225 C 
ENDBRANCH  22  24
ENDBRANCH  16  22
ENDBRANCH   1  19
BRANCH   5  25
ATOM     25  C   UNL     1       2.862  -8.613  -4.732  0.00  0.00    +0.001 A 
ATOM     26  C   UNL     1       1.958  -8.599  -5.777  0.00  0.00    +0.040 A 
ATOM     27  C   UNL     1       2.379  -8.278  -7.053  0.00  0.00    +0.127 A 
ATOM     28  C   UNL     1       3.707  -7.970  -7.288  0.00  0.00    +0.036 A 
ATOM     29  C   UNL     1       4.615  -7.982  -6.248  0.00  0.00    +0.048 A 
ATOM     30  C   UNL     1       4.193  -8.299  -4.964  0.00  0.00    +0.120 A 
BRANCH  27  31
ATOM     31  N   UNL     1       1.409  -8.264  -8.171  0.00  0.00    +0.056 N 
ATOM     32  O   UNL     1       0.248  -8.533  -7.966  0.00  0.00    -0.126 OA
ATOM     33  O   UNL     1       1.776  -7.983  -9.287  0.00  0.00    -0.126 OA
ENDBRANCH  27  31
BRANCH  30  34
ATOM     34  O   UNL     1       5.083  -8.307  -3.938  0.00  0.00    -0.506 OA
ATOM     35  H   UNL     1       5.514  -9.161  -3.798  0.00  0.00    +0.292 HD
ENDBRANCH  30  34
ENDBRANCH   5  25
TORSDOF 6
