REMARK  Name = ZINC38959666
REMARK  6 active torsions:
REMARK  status: ('A' for Active; 'I' for Inactive)
REMARK    1  A    between atoms: C_1  and  C_2
REMARK    2  A    between atoms: C_5  and  N_8
REMARK    3  A    between atoms: N_8  and  C_9
REMARK    4  A    between atoms: C_9  and  C_10
REMARK    5  A    between atoms: C_16  and  C_22
REMARK    6  A    between atoms: C_23  and  C_25
REMARK                            x       y       z     vdW  Elec       q    Type
REMARK                         _______ _______ _______ _____ _____    ______ ____
ROOT
ATOM      1  N   UNL     1       0.210  -4.187  -0.033  0.00  0.00    -0.266 N 
ATOM      2  C   UNL     1      -0.039  -4.838  -1.187  0.00  0.00    +0.257 C 
ATOM      3  O   UNL     1      -0.251  -6.036  -1.176  0.00  0.00    -0.269 OA
ENDROOT
BRANCH   1   8
ATOM      4  C   UNL     1       0.909   1.442  -0.048  0.00  0.00    +0.044 C 
ATOM      5  C   UNL     1       0.723  -0.053  -0.044  0.00  0.00    -0.050 A 
ATOM      6  C   UNL     1       1.822  -0.885  -0.160  0.00  0.00    +0.005 A 
ATOM      7  C   UNL     1       1.655  -2.256  -0.157  0.00  0.00    +0.024 A 
ATOM      8  C   UNL     1       0.383  -2.799  -0.037  0.00  0.00    +0.037 A 
ATOM      9  C   UNL     1      -0.719  -1.961   0.080  0.00  0.00    +0.024 A 
ATOM     10  C   UNL     1      -0.545  -0.591   0.081  0.00  0.00    +0.005 A 
ENDBRANCH   1   8
BRANCH   2  11
ATOM     11  C   UNL     1      -0.056  -4.102  -2.454  0.00  0.00    +0.074 A 
ATOM     12  C   UNL     1      -0.248  -4.582  -3.741  0.00  0.00    +0.021 A 
ATOM     13  C   UNL     1      -0.210  -3.641  -4.741  0.00  0.00    +0.008 A 
ATOM     14  C   UNL     1       0.007  -2.342  -4.416  0.00  0.00    +0.046 A 
ATOM     15  S   UNL     1       0.159  -2.356  -2.743  0.00  0.00    -0.092 S 
ENDBRANCH   2  11
BRANCH   1  16
ATOM     16  C   UNL     1       0.301  -4.933   1.224  0.00  0.00    +0.131 C 
BRANCH  16  17
ATOM     17  C   UNL     1      -1.084  -5.017   1.869  0.00  0.00    +0.116 C 
ATOM     18  C   UNL     1      -0.915  -5.597   3.260  0.00  0.00    -0.003 C 
ATOM     19  C   UNL     1      -1.599  -6.740   3.547  0.00  0.00    -0.007 A 
ATOM     20  C   UNL     1      -1.493  -7.367   4.865  0.00  0.00    +0.010 A 
ATOM     21  C   UNL     1      -2.192  -8.507   5.106  0.00  0.00    +0.004 A 
ATOM     22  C   UNL     1      -3.002  -9.083   4.127  0.00  0.00    -0.049 A 
ATOM     23  C   UNL     1      -3.142  -8.551   2.885  0.00  0.00    +0.027 A 
ATOM     24  C   UNL     1      -2.462  -7.371   2.533  0.00  0.00    +0.041 A 
ATOM     25  N   UNL     1      -2.607  -6.857   1.311  0.00  0.00    -0.284 N 
ATOM     26  C   UNL     1      -1.996  -5.755   0.915  0.00  0.00    +0.226 C 
ATOM     27  O   UNL     1      -2.168  -5.334  -0.214  0.00  0.00    -0.275 OA
ATOM     28  C   UNL     1      -3.750 -10.348   4.460  0.00  0.00    +0.044 C 
ATOM     29  H   UNL     1      -3.189  -7.315   0.684  0.00  0.00    +0.155 HD
ENDBRANCH  16  17
ENDBRANCH   1  16
TORSDOF 4
