REMARK  Name = ZINC37372157
REMARK  8 active torsions:
REMARK  status: ('A' for Active; 'I' for Inactive)
REMARK    1  A    between atoms: C_1  and  C_2
REMARK    2  A    between atoms: C_2  and  N_3
REMARK    3  A    between atoms: N_3  and  C_4
REMARK    4  A    between atoms: C_4  and  C_5
REMARK    5  A    between atoms: C_5  and  C_7
REMARK    6  A    between atoms: C_5  and  O_21
REMARK    7  A    between atoms: C_7  and  N_8
REMARK    8  A    between atoms: C_14  and  C_17
REMARK                            x       y       z     vdW  Elec       q    Type
REMARK                         _______ _______ _______ _____ _____    ______ ____
ROOT
ATOM      1  N   UNL     1       2.234  -4.441  -3.623  0.00  0.00    -0.222 N 
ATOM      2  C   UNL     1       1.723  -4.689  -4.847  0.00  0.00    +0.247 C 
ATOM      3  O   UNL     1       0.569  -4.569  -5.198  0.00  0.00    -0.273 OA
ATOM      4  C   UNL     1       2.893  -5.148  -5.688  0.00  0.00    +0.113 C 
ATOM      5  C   UNL     1       2.662  -6.570  -6.187  0.00  0.00    +0.035 C 
ATOM      6  C   UNL     1       1.444  -6.596  -7.114  0.00  0.00    +0.006 C 
ATOM      7  C   UNL     1       1.684  -5.654  -8.296  0.00  0.00    -0.014 C 
ATOM      8  C   UNL     1       1.893  -4.228  -7.781  0.00  0.00    +0.006 C 
ATOM      9  C   UNL     1       3.112  -4.194  -6.857  0.00  0.00    +0.035 C 
ATOM     10  C   UNL     1       0.471  -5.687  -9.228  0.00  0.00    +0.007 C 
ATOM     11  N   UNL     1       4.034  -5.104  -4.765  0.00  0.00    -0.285 N 
ATOM     12  C   UNL     1       3.552  -4.674  -3.583  0.00  0.00    +0.309 C 
ATOM     13  O   UNL     1       4.236  -4.518  -2.591  0.00  0.00    -0.252 OA
ATOM     14  H   UNL     1       4.954  -5.335  -4.968  0.00  0.00    +0.151 HD
ENDROOT
BRANCH   1  15
ATOM     15  C   UNL     1       1.446  -3.970  -2.482  0.00  0.00    +0.147 C 
BRANCH  15  16
ATOM     16  C   UNL     1       1.426  -2.440  -2.474  0.00  0.00    +0.115 C 
BRANCH  16  17
ATOM     17  O   UNL     1       0.735  -1.967  -3.631  0.00  0.00    -0.392 OA
ATOM     18  H   UNL     1      -0.184  -2.264  -3.690  0.00  0.00    +0.210 HD
ENDBRANCH  16  17
BRANCH  16  19
ATOM     19  C   UNL     1       0.710  -1.947  -1.215  0.00  0.00    -0.049 C 
BRANCH  19  20
ATOM     20  N   UNL     1       0.690  -0.478  -1.207  0.00  0.00    +0.381 N 
ATOM     21  H   UNL     1       0.202  -0.144  -2.024  0.00  0.00    -0.086 HD
ATOM     22  H   UNL     1       1.636  -0.129  -1.214  0.00  0.00    -0.086 HD
BRANCH  20  24
ATOM     23  C   UNL     1      -0.019   1.526   0.010  0.00  0.00    -0.017 C 
ATOM     24  C   UNL     1       0.002  -0.004   0.002  0.00  0.00    -0.086 C 
ENDBRANCH  20  24
ENDBRANCH  19  20
ENDBRANCH  16  19
ENDBRANCH  15  16
ENDBRANCH   1  15
TORSDOF 6
