REMARK  Name = ZINC36344996
REMARK  11 active torsions:
REMARK  status: ('A' for Active; 'I' for Inactive)
REMARK    1  A    between atoms: C_1  and  C_2
REMARK    2  A    between atoms: C_5  and  C_9
REMARK    3  A    between atoms: C_6  and  C_8
REMARK    4  A    between atoms: C_12  and  C_15
REMARK    5  A    between atoms: C_20  and  C_21
REMARK    6  A    between atoms: C_22  and  C_24
REMARK    7  A    between atoms: C_24  and  N_25
REMARK    8  A    between atoms: N_25  and  C_26
REMARK    9  A    between atoms: N_25  and  C_27
REMARK   10  A    between atoms: C_27  and  C_28
REMARK   11  A    between atoms: C_27  and  C_29
REMARK                            x       y       z     vdW  Elec       q    Type
REMARK                         _______ _______ _______ _____ _____    ______ ____
ROOT
ATOM      1  C   UNL     1       0.562  -4.186   0.237  0.00  0.00    +0.069 C 
ATOM      2  N   UNL     1       0.694  -4.824   1.348  0.00  0.00    -0.181 NA
ATOM      3  N   UNL     1       0.955  -6.185   1.196  0.00  0.00    -0.187 N 
ATOM      4  C   UNL     1       1.004  -6.502  -0.240  0.00  0.00    +0.137 C 
ATOM      5  C   UNL     1       0.731  -5.146  -0.919  0.00  0.00    +0.087 C 
ATOM      6  C   UNL     1       1.132  -7.066   2.200  0.00  0.00    +0.219 C 
ATOM      7  O   UNL     1       1.355  -8.232   1.952  0.00  0.00    -0.276 OA
ENDROOT
BRANCH   1  12
ATOM      8  C   UNL     1      -0.525   1.440  -0.250  0.00  0.00    +0.044 C 
ATOM      9  C   UNL     1      -0.240  -0.034  -0.122  0.00  0.00    -0.050 A 
ATOM     10  C   UNL     1       0.015  -0.787  -1.255  0.00  0.00    +0.004 A 
ATOM     11  C   UNL     1       0.277  -2.136  -1.146  0.00  0.00    +0.010 A 
ATOM     12  C   UNL     1       0.284  -2.743   0.112  0.00  0.00    +0.001 A 
ATOM     13  C   UNL     1       0.026  -1.978   1.251  0.00  0.00    -0.041 A 
ATOM     14  C   UNL     1      -0.229  -0.627   1.127  0.00  0.00    +0.007 A 
ATOM     15  C   UNL     1       0.031  -2.623   2.613  0.00  0.00    +0.044 C 
ENDBRANCH   1  12
BRANCH   4  16
ATOM     16  C   UNL     1      -0.068  -7.499  -0.600  0.00  0.00    -0.022 A 
ATOM     17  C   UNL     1      -1.198  -7.613   0.188  0.00  0.00    +0.006 A 
ATOM     18  C   UNL     1      -2.181  -8.527  -0.142  0.00  0.00    +0.000 A 
ATOM     19  C   UNL     1      -2.035  -9.326  -1.260  0.00  0.00    +0.000 A 
ATOM     20  C   UNL     1      -0.905  -9.211  -2.049  0.00  0.00    +0.004 A 
ATOM     21  C   UNL     1       0.076  -8.294  -1.721  0.00  0.00    -0.045 A 
ATOM     22  C   UNL     1       1.305  -8.165  -2.583  0.00  0.00    +0.044 C 
ENDBRANCH   4  16
BRANCH   6  23
ATOM     23  C   UNL     1       1.054  -6.602   3.632  0.00  0.00    +0.020 C 
BRANCH  23  24
ATOM     24  N   UNL     1       1.281  -7.743   4.529  0.00  0.00    +0.385 N 
ATOM     25  C   UNL     1       0.188  -8.713   4.375  0.00  0.00    -0.095 C 
ATOM     26  H   UNL     1       2.158  -8.185   4.296  0.00  0.00    -0.081 HD
BRANCH  24  27
ATOM     27  C   UNL     1       1.324  -7.272   5.920  0.00  0.00    -0.075 C 
ATOM     28  C   UNL     1       1.561  -8.460   6.854  0.00  0.00    -0.014 C 
ATOM     29  C   UNL     1       2.463  -6.262   6.081  0.00  0.00    -0.014 C 
ENDBRANCH  24  27
ENDBRANCH  23  24
ENDBRANCH   6  23
TORSDOF 5
