REMARK  Name = ZINC07061891
REMARK  9 active torsions:
REMARK  status: ('A' for Active; 'I' for Inactive)
REMARK    1  A    between atoms: C_1  and  C_2
REMARK    2  A    between atoms: C_2  and  O_3
REMARK    3  A    between atoms: O_3  and  C_4
REMARK    4  A    between atoms: C_4  and  C_6
REMARK    5  A    between atoms: C_7  and  C_30
REMARK    6  A    between atoms: N_8  and  C_23
REMARK    7  A    between atoms: C_12  and  C_14
REMARK    8  A    between atoms: C_18  and  N_20
REMARK    9  A    between atoms: C_23  and  C_24
REMARK                            x       y       z     vdW  Elec       q    Type
REMARK                         _______ _______ _______ _____ _____    ______ ____
ROOT
ATOM      1  C   UNL     1      -0.046   1.621   2.430  0.00  0.00    +0.078 C 
ATOM      2  C   UNL     1      -0.671   1.698   1.235  0.00  0.00    +0.022 C 
ATOM      3  N   UNL     1      -1.978   2.081   1.147  0.00  0.00    -0.284 N 
ATOM      4  C   UNL     1      -2.733   2.394   2.207  0.00  0.00    +0.138 C 
ATOM      5  S   UNL     1      -4.364   2.853   1.955  0.00  0.00    -0.018 S 
ATOM      6  N   UNL     1      -2.251   2.365   3.465  0.00  0.00    -0.315 N 
ATOM      7  C   UNL     1      -0.848   1.969   3.668  0.00  0.00    +0.141 C 
ATOM      8  C   UNL     1       0.089   1.361  -0.022  0.00  0.00    +0.061 C 
ATOM      9  H   UNL     1      -2.815   2.599   4.218  0.00  0.00    +0.149 HD
ENDROOT
BRANCH   7  10
ATOM     10  C   UNL     1      -0.831   0.772   4.584  0.00  0.00    -0.020 A 
ATOM     11  C   UNL     1      -1.689  -0.287   4.352  0.00  0.00    +0.006 A 
ATOM     12  C   UNL     1      -1.671  -1.387   5.190  0.00  0.00    +0.003 A 
ATOM     13  C   UNL     1      -0.802  -1.423   6.264  0.00  0.00    +0.033 A 
ATOM     14  C   UNL     1       0.052  -0.362   6.499  0.00  0.00    +0.127 A 
ATOM     15  C   UNL     1       0.037   0.736   5.659  0.00  0.00    +0.038 A 
BRANCH  14  16
ATOM     16  N   UNL     1       0.983  -0.401   7.649  0.00  0.00    +0.056 N 
ATOM     17  O   UNL     1       1.735   0.534   7.856  0.00  0.00    -0.126 OA
ATOM     18  O   UNL     1       0.996  -1.369   8.389  0.00  0.00    -0.126 OA
ENDBRANCH  14  16
ENDBRANCH   7  10
BRANCH   1  19
ATOM     19  C   UNL     1       1.309   1.230   2.523  0.00  0.00    +0.339 C 
ATOM     20  O   UNL     1       1.904   0.856   1.529  0.00  0.00    -0.245 OA
BRANCH  19  21
ATOM     21  O   UNL     1       1.944   1.270   3.713  0.00  0.00    -0.462 OA
BRANCH  21  23
ATOM     22  C   UNL     1       3.858   0.975   5.158  0.00  0.00    +0.048 C 
ATOM     23  C   UNL     1       3.313   0.861   3.733  0.00  0.00    +0.229 C 
ENDBRANCH  21  23
ENDBRANCH  19  21
ENDBRANCH   1  19
BRANCH   3  24
ATOM     24  C   UNL     1      -2.590   2.148  -0.183  0.00  0.00    +0.144 C 
BRANCH  24  25
ATOM     25  C   UNL     1      -3.240   0.803  -0.513  0.00  0.00    +0.136 C 
ATOM     26  C   UNL     1      -3.881   0.861  -1.914  0.00  0.00    +0.035 C 
ATOM     27  C   UNL     1      -3.176  -0.270  -2.701  0.00  0.00    +0.031 C 
ATOM     28  C   UNL     1      -2.638  -1.173  -1.561  0.00  0.00    +0.160 C 
ATOM     29  O   UNL     1      -2.240  -0.229  -0.540  0.00  0.00    -0.375 OA
ENDBRANCH  24  25
ENDBRANCH   3  24
TORSDOF 7
