REMARK  Name = ZINC54156578
REMARK  9 active torsions:
REMARK  status: ('A' for Active; 'I' for Inactive)
REMARK    1  A    between atoms: C_1  and  C_2
REMARK    2  A    between atoms: C_2  and  C_3
REMARK    3  A    between atoms: C_3  and  C_5
REMARK    4  A    between atoms: C_3  and  N_6
REMARK    5  A    between atoms: C_7  and  N_11
REMARK    6  A    between atoms: C_12  and  C_14
REMARK    7  A    between atoms: C_14  and  C_16
REMARK    8  A    between atoms: C_14  and  S_17
REMARK    9  A    between atoms: S_17  and  C_18
REMARK                            x       y       z     vdW  Elec       q    Type
REMARK                         _______ _______ _______ _____ _____    ______ ____
ROOT
ATOM      1  N   UNL     1      -0.544  -2.162  -3.465  0.00  0.00    -0.270 N 
ATOM      2  C   UNL     1      -1.071  -2.997  -4.381  0.00  0.00    +0.231 C 
ATOM      3  O   UNL     1      -1.016  -4.197  -4.212  0.00  0.00    -0.274 OA
ATOM      4  H   UNL     1      -0.588  -1.203  -3.600  0.00  0.00    +0.156 HD
ENDROOT
BRANCH   1   6
ATOM      5  N   UNL     1       0.634  -1.958  -1.325  0.00  0.00    -0.248 N 
ATOM      6  C   UNL     1       0.067  -2.677  -2.321  0.00  0.00    +0.123 A 
ATOM      7  C   UNL     1       0.199  -3.994  -2.004  0.00  0.00    +0.065 A 
ATOM      8  C   UNL     1       0.867  -4.074  -0.779  0.00  0.00    +0.136 A 
ATOM      9  N   UNL     1       1.132  -2.858  -0.375  0.00  0.00    -0.178 NA
BRANCH   5  10
ATOM     10  C   UNL     1       0.718  -0.497  -1.257  0.00  0.00    +0.106 C 
ATOM     11  C   UNL     1       2.187  -0.073  -1.207  0.00  0.00    +0.032 C 
BRANCH  10  13
ATOM     12  C   UNL     1      -0.019   1.526   0.010  0.00  0.00    +0.006 C 
ATOM     13  C   UNL     1       0.002  -0.004   0.002  0.00  0.00    +0.023 C 
ENDBRANCH  10  13
ENDBRANCH   5  10
ENDBRANCH   1   6
BRANCH   2  14
ATOM     14  C   UNL     1      -1.731  -2.441  -5.617  0.00  0.00    +0.137 C 
ATOM     15  C   UNL     1      -3.149  -1.981  -5.275  0.00  0.00    +0.029 C 
BRANCH  14  16
ATOM     16  S   UNL     1      -1.803  -3.726  -6.895  0.00  0.00    -0.072 S 
BRANCH  16  17
ATOM     17  C   UNL     1      -2.454  -2.891  -8.303  0.00  0.00    +0.212 A 
ATOM     18  N   UNL     1      -2.787  -1.603  -8.347  0.00  0.00    -0.183 NA
ATOM     19  C   UNL     1      -3.243  -1.299  -9.558  0.00  0.00    +0.254 A 
ATOM     20  N   UNL     1      -3.694  -0.158 -10.091  0.00  0.00    -0.219 NA
ATOM     21  C   UNL     1      -4.098  -0.111 -11.341  0.00  0.00    +0.116 A 
ATOM     22  C   UNL     1      -4.063  -1.261 -12.138  0.00  0.00    +0.040 A 
ATOM     23  C   UNL     1      -3.607  -2.425 -11.604  0.00  0.00    +0.118 A 
ATOM     24  N   UNL     1      -3.196  -2.440 -10.309  0.00  0.00    -0.203 N 
ATOM     25  N   UNL     1      -2.680  -3.443  -9.479  0.00  0.00    -0.137 NA
ENDBRANCH  16  17
ENDBRANCH  14  16
ENDBRANCH   2  14
TORSDOF 6
