REMARK  Name = ZINC09903525
REMARK  6 active torsions:
REMARK  status: ('A' for Active; 'I' for Inactive)
REMARK    1  A    between atoms: C_4  and  N_7
REMARK    2  A    between atoms: N_7  and  S_8
REMARK    3  A    between atoms: S_8  and  C_11
REMARK    4  A    between atoms: C_14  and  N_17
REMARK    5  A    between atoms: C_18  and  C_20
REMARK    6  A    between atoms: C_20  and  C_21
REMARK                            x       y       z     vdW  Elec       q    Type
REMARK                         _______ _______ _______ _____ _____    ______ ____
ROOT
ATOM      1  C   UNL     1      -2.910   5.571  -0.583  0.00  0.00    +0.109 A 
ATOM      2  C   UNL     1      -3.603   4.455  -1.015  0.00  0.00    +0.030 A 
ATOM      3  C   UNL     1      -4.820   4.132  -0.447  0.00  0.00    +0.025 A 
ATOM      4  C   UNL     1      -5.352   4.936   0.553  0.00  0.00    +0.033 A 
ATOM      5  C   UNL     1      -4.657   6.058   0.981  0.00  0.00    +0.025 A 
ATOM      6  C   UNL     1      -3.438   6.373   0.413  0.00  0.00    +0.030 A 
ENDROOT
BRANCH   4   7
ATOM      7  N   UNL     1      -6.588   4.615   1.126  0.00  0.00    -0.285 N 
ATOM      8  C   UNL     1      -7.412   5.596   1.543  0.00  0.00    +0.217 C 
ATOM      9  O   UNL     1      -7.127   6.757   1.336  0.00  0.00    -0.275 OA
ATOM     10  H   UNL     1      -6.851   3.686   1.224  0.00  0.00    +0.155 HD
BRANCH   8  11
ATOM     11  C   UNL     1      -8.688   5.251   2.267  0.00  0.00    +0.100 C 
BRANCH  11  12
ATOM     12  C   UNL     1      -9.434   6.538   2.627  0.00  0.00    +0.001 C 
ATOM     13  C   UNL     1     -10.030   7.189   1.358  0.00  0.00    +0.007 C 
ATOM     14  C   UNL     1     -11.569   7.201   1.606  0.00  0.00    -0.010 C 
ATOM     15  C   UNL     1     -11.990   5.702   1.515  0.00  0.00    +0.004 C 
ATOM     16  C   UNL     1     -11.395   5.051   2.784  0.00  0.00    +0.004 C 
ATOM     17  C   UNL     1     -10.669   6.217   3.522  0.00  0.00    -0.007 C 
ATOM     18  C   UNL     1     -11.611   7.420   3.160  0.00  0.00    +0.007 C 
ENDBRANCH  11  12
ENDBRANCH   8  11
ENDBRANCH   4   7
BRANCH   1  19
ATOM     19  S   UNL     1      -1.355   5.975  -1.306  0.00  0.00    +0.072 S 
ATOM     20  O   UNL     1      -1.111   7.342  -1.004  0.00  0.00    -0.150 OA
ATOM     21  O   UNL     1      -1.387   5.482  -2.638  0.00  0.00    -0.150 OA
BRANCH  19  22
ATOM     22  N   UNL     1      -0.200   5.100  -0.505  0.00  0.00    -0.216 N 
ATOM     23  H   UNL     1       0.332   4.446  -0.984  0.00  0.00    +0.174 HD
BRANCH  22  27
ATOM     24  C   UNL     1       0.419   5.706   3.568  0.00  0.00    +0.000 A 
ATOM     25  C   UNL     1       0.300   6.791   2.719  0.00  0.00    +0.002 A 
ATOM     26  C   UNL     1       0.101   6.594   1.367  0.00  0.00    +0.024 A 
ATOM     27  C   UNL     1       0.008   5.303   0.861  0.00  0.00    +0.048 A 
ATOM     28  C   UNL     1       0.122   4.215   1.718  0.00  0.00    +0.024 A 
ATOM     29  C   UNL     1       0.327   4.420   3.068  0.00  0.00    +0.002 A 
ENDBRANCH  22  27
ENDBRANCH  19  22
ENDBRANCH   1  19
TORSDOF 6
