REMARK  Name = ZINC65011128
REMARK  9 active torsions:
REMARK  status: ('A' for Active; 'I' for Inactive)
REMARK    1  A    between atoms: C_1  and  C_2
REMARK    2  A    between atoms: C_2  and  C_3
REMARK    3  A    between atoms: C_3  and  C_4
REMARK    4  A    between atoms: C_5  and  C_16
REMARK    5  A    between atoms: C_19  and  C_34
REMARK    6  A    between atoms: C_20  and  S_22
REMARK    7  A    between atoms: S_22  and  N_25
REMARK    8  A    between atoms: N_25  and  C_26
REMARK    9  A    between atoms: C_31  and  C_32
REMARK                            x       y       z     vdW  Elec       q    Type
REMARK                         _______ _______ _______ _____ _____    ______ ____
ROOT
ATOM      1  C   UNL     1      -1.473  -2.022   2.370  0.00  0.00    -0.011 A 
ATOM      2  C   UNL     1      -1.416  -1.363   3.598  0.00  0.00    +0.009 A 
ATOM      3  C   UNL     1      -2.583  -0.972   4.223  0.00  0.00    +0.006 A 
ATOM      4  C   UNL     1      -3.807  -1.231   3.633  0.00  0.00    -0.024 A 
ATOM      5  C   UNL     1      -3.870  -1.885   2.416  0.00  0.00    +0.112 A 
ATOM      6  C   UNL     1      -2.709  -2.276   1.779  0.00  0.00    +0.037 A 
ATOM      7  C   UNL     1      -5.077  -0.801   4.320  0.00  0.00    +0.046 C 
ENDROOT
BRANCH   1   9
ATOM      8  C   UNL     1       0.781  -1.596   1.194  0.00  0.00    +0.073 A 
ATOM      9  C   UNL     1      -0.223  -2.445   1.694  0.00  0.00    +0.045 A 
ATOM     10  C   UNL     1       0.171  -3.754   1.439  0.00  0.00    +0.139 A 
ATOM     11  N   UNL     1       1.398  -3.691   0.862  0.00  0.00    -0.185 N 
ATOM     12  N   UNL     1       1.722  -2.332   0.679  0.00  0.00    -0.167 NA
ATOM     13  C   UNL     1       2.255  -4.686   0.546  0.00  0.00    +0.250 C 
ATOM     14  O   UNL     1       3.255  -4.411  -0.074  0.00  0.00    -0.271 OA
ATOM     15  C   UNL     1       2.026  -6.092   0.924  0.00  0.00    +0.110 C 
ATOM     16  C   UNL     1       1.313  -6.281   2.237  0.00  0.00    +0.105 C 
ATOM     17  C   UNL     1      -0.157  -6.058   2.105  0.00  0.00    +0.219 C 
ATOM     18  O   UNL     1      -0.932  -6.962   2.333  0.00  0.00    -0.275 OA
ATOM     19  N   UNL     1      -0.620  -4.847   1.731  0.00  0.00    -0.270 N 
ATOM     20  H   UNL     1      -1.581  -4.736   1.662  0.00  0.00    +0.156 HD
BRANCH   8  21
ATOM     21  C   UNL     1       0.765  -0.090   1.239  0.00  0.00    +0.058 C 
BRANCH  21  23
ATOM     22  C   UNL     1       0.072   1.981   0.025  0.00  0.00    +0.004 C 
ATOM     23  C   UNL     1       0.088   0.452  -0.021  0.00  0.00    +0.003 C 
ENDBRANCH  21  23
ENDBRANCH   8  21
ENDBRANCH   1   9
BRANCH   5  24
ATOM     24  S   UNL     1      -5.434  -2.212   1.673  0.00  0.00    +0.073 S 
ATOM     25  O   UNL     1      -6.145  -0.982   1.665  0.00  0.00    -0.150 OA
ATOM     26  O   UNL     1      -5.173  -2.949   0.486  0.00  0.00    -0.150 OA
BRANCH  24  27
ATOM     27  N   UNL     1      -6.256  -3.227   2.690  0.00  0.00    -0.216 N 
ATOM     28  H   UNL     1      -7.049  -2.913   3.152  0.00  0.00    +0.174 HD
BRANCH  27  29
ATOM     29  C   UNL     1      -5.808  -4.538   2.882  0.00  0.00    +0.051 A 
ATOM     30  C   UNL     1      -4.447  -4.813   2.895  0.00  0.00    +0.027 A 
ATOM     31  C   UNL     1      -4.007  -6.108   3.085  0.00  0.00    +0.040 A 
ATOM     32  C   UNL     1      -4.922  -7.132   3.264  0.00  0.00    +0.124 A 
ATOM     33  C   UNL     1      -6.279  -6.860   3.251  0.00  0.00    +0.043 A 
ATOM     34  C   UNL     1      -6.724  -5.566   3.066  0.00  0.00    -0.025 A 
ATOM     35  C   UNL     1      -8.201  -5.269   3.060  0.00  0.00    +0.046 C 
ATOM     36  F   UNL     1      -4.489  -8.398   3.449  0.00  0.00    -0.205 F 
ENDBRANCH  27  29
ENDBRANCH  24  27
ENDBRANCH   5  24
TORSDOF 6
