REMARK  Name = ZINC17072985
REMARK  3 active torsions:
REMARK  status: ('A' for Active; 'I' for Inactive)
REMARK    1  A    between atoms: C_1  and  C_2
REMARK    2  A    between atoms: C_5  and  N_9
REMARK    3  A    between atoms: N_13  and  C_15
REMARK                            x       y       z     vdW  Elec       q    Type
REMARK                         _______ _______ _______ _____ _____    ______ ____
ROOT
ATOM      1  N   UNL     1       0.153  -4.178  -0.028  0.00  0.00    -0.296 N 
ATOM      2  C   UNL     1       0.002  -4.864  -1.232  0.00  0.00    +0.156 A 
ATOM      3  C   UNL     1      -0.185  -6.292  -1.397  0.00  0.00    +0.080 A 
ATOM      4  C   UNL     1      -0.289  -6.535  -2.766  0.00  0.00    +0.057 A 
ATOM      5  N   UNL     1      -0.179  -5.361  -3.386  0.00  0.00    -0.234 N 
ATOM      6  N   UNL     1      -0.005  -4.342  -2.439  0.00  0.00    -0.150 NA
ATOM      7  C   UNL     1      -0.485  -7.914  -3.339  0.00  0.00    +0.057 C 
ATOM      8  C   UNL     1      -0.048  -8.957  -2.305  0.00  0.00    +0.014 C 
ATOM      9  C   UNL     1      -0.743  -8.713  -0.962  0.00  0.00    +0.080 C 
ATOM     10  C   UNL     1      -0.270  -7.375  -0.411  0.00  0.00    +0.168 C 
ATOM     11  O   UNL     1       0.016  -7.217   0.757  0.00  0.00    -0.292 OA
ATOM     12  H   UNL     1       0.205  -4.669   0.807  0.00  0.00    +0.154 HD
ENDROOT
BRANCH   1  17
ATOM     13  C   UNL     1       0.461   1.486  -0.014  0.00  0.00    +0.044 C 
ATOM     14  C   UNL     1       0.379  -0.018  -0.017  0.00  0.00    -0.049 A 
ATOM     15  C   UNL     1       0.387  -0.707  -1.216  0.00  0.00    +0.005 A 
ATOM     16  C   UNL     1       0.311  -2.086  -1.224  0.00  0.00    +0.025 A 
ATOM     17  C   UNL     1       0.229  -2.782  -0.024  0.00  0.00    +0.051 A 
ATOM     18  C   UNL     1       0.222  -2.087   1.180  0.00  0.00    +0.062 A 
ATOM     19  C   UNL     1       0.303  -0.708   1.179  0.00  0.00    +0.025 A 
ATOM     20 CL   UNL     1       0.120  -2.952   2.682  0.00  0.00    -0.082 Cl
ENDBRANCH   1  17
BRANCH   5  21
ATOM     21  C   UNL     1      -0.233  -5.173  -4.772  0.00  0.00    +0.066 A 
ATOM     22  C   UNL     1      -1.171  -5.860  -5.532  0.00  0.00    +0.028 A 
ATOM     23  C   UNL     1      -1.223  -5.673  -6.899  0.00  0.00    +0.002 A 
ATOM     24  C   UNL     1      -0.341  -4.801  -7.512  0.00  0.00    +0.000 A 
ATOM     25  C   UNL     1       0.594  -4.116  -6.759  0.00  0.00    +0.002 A 
ATOM     26  C   UNL     1       0.647  -4.294  -5.391  0.00  0.00    +0.028 A 
ENDBRANCH   5  21
TORSDOF 2
