REMARK  Name = ZINC06074979
REMARK  13 active torsions:
REMARK  status: ('A' for Active; 'I' for Inactive)
REMARK    1  A    between atoms: C_1  and  C_2
REMARK    2  A    between atoms: C_2  and  C_3
REMARK    3  A    between atoms: C_2  and  C_4
REMARK    4  A    between atoms: C_2  and  N_5
REMARK    5  A    between atoms: C_6  and  C_8
REMARK    6  A    between atoms: C_8  and  C_10
REMARK    7  A    between atoms: C_8  and  N_17
REMARK    8  A    between atoms: C_13  and  O_16
REMARK    9  A    between atoms: N_17  and  C_18
REMARK   10  A    between atoms: C_18  and  C_19
REMARK   11  A    between atoms: C_24  and  C_26
REMARK   12  A    between atoms: C_26  and  N_27
REMARK   13  A    between atoms: C_29  and  C_32
REMARK                            x       y       z     vdW  Elec       q    Type
REMARK                         _______ _______ _______ _____ _____    ______ ____
ROOT
ATOM      1  N   UNL     1       0.827  -1.899  -0.759  0.00  0.00    -0.279 N 
ATOM      2  C   UNL     1       1.274  -2.558   0.328  0.00  0.00    +0.240 C 
ATOM      3  O   UNL     1       0.654  -3.507   0.759  0.00  0.00    -0.273 OA
ENDROOT
BRANCH   1   4
ATOM      4  C   UNL     1      -0.408  -2.329  -1.421  0.00  0.00    +0.193 C 
BRANCH   4   5
ATOM      5  C   UNL     1      -1.482  -1.295  -1.201  0.00  0.00    -0.018 A 
ATOM      6  C   UNL     1      -1.204   0.044  -1.405  0.00  0.00    +0.009 A 
ATOM      7  C   UNL     1      -2.189   0.993  -1.209  0.00  0.00    +0.046 A 
ATOM      8  C   UNL     1      -3.454   0.602  -0.796  0.00  0.00    +0.117 A 
ATOM      9  C   UNL     1      -3.729  -0.742  -0.586  0.00  0.00    +0.046 A 
ATOM     10  C   UNL     1      -2.743  -1.687  -0.789  0.00  0.00    +0.009 A 
BRANCH   8  11
ATOM     11  O   UNL     1      -4.423   1.534  -0.597  0.00  0.00    -0.507 OA
ATOM     12  H   UNL     1      -4.453   1.884   0.304  0.00  0.00    +0.292 HD
ENDBRANCH   8  11
ENDBRANCH   4   5
BRANCH   4  14
ATOM     13  N   UNL     1      -0.743  -3.493  -3.578  0.00  0.00    -0.309 N 
ATOM     14  C   UNL     1      -0.158  -2.486  -2.898  0.00  0.00    +0.238 C 
ATOM     15  O   UNL     1       0.570  -1.708  -3.477  0.00  0.00    -0.273 OA
ATOM     16  H   UNL     1      -1.393  -4.062  -3.136  0.00  0.00    +0.149 HD
BRANCH  13  18
ATOM     17  C   UNL     1       1.121  -3.855  -5.120  0.00  0.00    +0.031 C 
ATOM     18  C   UNL     1      -0.398  -3.727  -4.982  0.00  0.00    +0.026 C 
ATOM     19  C   UNL     1      -1.065  -5.017  -5.463  0.00  0.00    +0.031 C 
ATOM     20  C   UNL     1      -0.889  -2.552  -5.830  0.00  0.00    +0.031 C 
ENDBRANCH  13  18
ENDBRANCH   4  14
ENDBRANCH   1   4
BRANCH   1  21
ATOM     21  C   UNL     1       1.575  -0.752  -1.280  0.00  0.00    +0.151 C 
BRANCH  21  22
ATOM     22  C   UNL     1       2.950  -1.200  -1.703  0.00  0.00    +0.007 A 
ATOM     23  C   UNL     1       3.338  -1.786  -2.862  0.00  0.00    +0.013 A 
ATOM     24  C   UNL     1       4.669  -2.115  -3.035  0.00  0.00    +0.008 A 
ATOM     25  C   UNL     1       5.548  -1.840  -2.040  0.00  0.00    +0.045 A 
ATOM     26  S   UNL     1       4.493  -1.089  -0.812  0.00  0.00    -0.100 S 
ENDBRANCH  21  22
ENDBRANCH   1  21
BRANCH   2  27
ATOM     27  C   UNL     1       2.543  -2.115   1.008  0.00  0.00    +0.264 C 
BRANCH  27  28
ATOM     28  N   UNL     1       2.812  -2.986   2.155  0.00  0.00    -0.154 N 
ATOM     29  N   UNL     1       2.397  -2.783   3.358  0.00  0.00    -0.130 NA
ATOM     30  C   UNL     1       2.834  -3.775   4.109  0.00  0.00    +0.205 A 
ATOM     31  N   UNL     1       3.538  -4.583   3.304  0.00  0.00    -0.108 NA
ATOM     32  N   UNL     1       3.504  -4.071   2.121  0.00  0.00    -0.045 NA
BRANCH  30  33
ATOM     33  C   UNL     1       2.596  -3.958   5.562  0.00  0.00    +0.023 A 
ATOM     34  C   UNL     1       1.843  -3.024   6.270  0.00  0.00    +0.014 A 
ATOM     35  C   UNL     1       1.620  -3.201   7.620  0.00  0.00    +0.039 A 
ATOM     36  C   UNL     1       2.153  -4.301   8.274  0.00  0.00    +0.123 A 
ATOM     37  C   UNL     1       2.907  -5.229   7.575  0.00  0.00    +0.039 A 
ATOM     38  C   UNL     1       3.130  -5.062   6.223  0.00  0.00    +0.014 A 
ATOM     39  F   UNL     1       1.937  -4.467   9.597  0.00  0.00    -0.205 F 
ENDBRANCH  30  33
ENDBRANCH  27  28
ENDBRANCH   2  27
TORSDOF 10
