REMARK  Name = ZINC37672355
REMARK  5 active torsions:
REMARK  status: ('A' for Active; 'I' for Inactive)
REMARK    1  A    between atoms: C_3  and  C_8
REMARK    2  A    between atoms: C_5  and  N_7
REMARK    3  A    between atoms: C_8  and  N_9
REMARK    4  A    between atoms: N_9  and  C_10
REMARK    5  A    between atoms: C_10  and  C_11
REMARK                            x       y       z     vdW  Elec       q    Type
REMARK                         _______ _______ _______ _____ _____    ______ ____
ROOT
ATOM      1  N   UNL     1       4.103   2.438   1.355  0.00  0.00    -0.301 N 
ATOM      2  C   UNL     1       3.686   3.587   2.019  0.00  0.00    +0.141 A 
ATOM      3  C   UNL     1       2.564   3.540   2.842  0.00  0.00    +0.082 A 
ATOM      4  C   UNL     1       2.161   4.691   3.496  0.00  0.00    +0.045 A 
ATOM      5  C   UNL     1       2.895   5.855   3.304  0.00  0.00    +0.061 A 
ATOM      6  C   UNL     1       3.998   5.829   2.473  0.00  0.00    +0.133 A 
ATOM      7  N   UNL     1       4.363   4.715   1.866  0.00  0.00    -0.237 NA
ATOM      8 CL   UNL     1       2.432   7.326   4.100  0.00  0.00    -0.082 Cl
ATOM      9 CL   UNL     1       1.684   2.058   3.045  0.00  0.00    -0.080 Cl
ENDROOT
BRANCH   1  10
ATOM     10  C   UNL     1       3.698   2.206  -0.033  0.00  0.00    +0.142 C 
BRANCH  10  13
ATOM     11  C   UNL     1       0.002   1.432  -0.085  0.00  0.00    +0.002 A 
ATOM     12  C   UNL     1       1.197   2.127  -0.063  0.00  0.00    +0.005 A 
ATOM     13  C   UNL     1       2.398   1.443  -0.056  0.00  0.00    -0.028 A 
ATOM     14  C   UNL     1       2.409   0.062  -0.071  0.00  0.00    +0.028 A 
ATOM     15  C   UNL     1       1.210  -0.639  -0.093  0.00  0.00    +0.025 A 
ATOM     16  C   UNL     1       0.005   0.051  -0.100  0.00  0.00    +0.023 A 
BRANCH  15  17
ATOM     17  N   UNL     1       1.217  -2.036  -0.109  0.00  0.00    -0.358 N 
ATOM     18  H   UNL     1       2.059  -2.517  -0.104  0.00  0.00    +0.142 HD
ATOM     19  H   UNL     1       0.380  -2.525  -0.124  0.00  0.00    +0.142 HD
ENDBRANCH  15  17
ENDBRANCH  10  13
ENDBRANCH   1  10
BRANCH   1  20
ATOM     20  C   UNL     1       4.948   1.459   2.046  0.00  0.00    +0.202 C 
BRANCH  20  21
ATOM     21  C   UNL     1       6.396   1.734   1.729  0.00  0.00    +0.228 C 
ATOM     22  O   UNL     1       6.693   2.656   1.000  0.00  0.00    -0.274 OA
ATOM     23  N   UNL     1       7.360   0.955   2.258  0.00  0.00    -0.328 N 
ATOM     24  H   UNL     1       7.122   0.217   2.841  0.00  0.00    +0.145 HD
ATOM     25  H   UNL     1       8.292   1.131   2.054  0.00  0.00    +0.145 HD
ENDBRANCH  20  21
ENDBRANCH   1  20
TORSDOF 5
