REMARK  Name = ZINC22508047
REMARK  6 active torsions:
REMARK  status: ('A' for Active; 'I' for Inactive)
REMARK    1  A    between atoms: C_1  and  C_2
REMARK    2  A    between atoms: C_6  and  C_8
REMARK    3  A    between atoms: C_6  and  C_9
REMARK    4  A    between atoms: N_11  and  N_12
REMARK    5  A    between atoms: N_12  and  C_13
REMARK    6  A    between atoms: C_13  and  C_14
REMARK                            x       y       z     vdW  Elec       q    Type
REMARK                         _______ _______ _______ _____ _____    ______ ____
ROOT
ATOM      1  C   UNL     1      -3.559   3.788   0.027  0.00  0.00    +0.234 C 
ATOM      2  O   UNL     1      -3.710   2.585   0.021  0.00  0.00    -0.274 OA
ATOM      3  N   UNL     1      -2.317   4.311   0.029  0.00  0.00    -0.264 N 
ATOM      4  C   UNL     1      -1.209   3.472   0.024  0.00  0.00    +0.165 A 
ATOM      5  N   UNL     1      -1.167   2.154   0.017  0.00  0.00    -0.229 NA
ATOM      6  C   UNL     1      -0.018   1.503   0.010  0.00  0.00    +0.054 A 
ATOM      7  C   UNL     1       1.130   2.222   0.003  0.00  0.00    +0.014 A 
ATOM      8  S   UNL     1       0.476   3.888   0.025  0.00  0.00    -0.057 S 
ATOM      9  C   UNL     1       2.565   1.774  -0.017  0.00  0.00    +0.044 C 
ATOM     10  C   UNL     1       2.678   0.282  -0.333  0.00  0.00    +0.005 C 
ATOM     11  C   UNL     1       4.156  -0.122  -0.286  0.00  0.00    +0.000 C 
ATOM     12  C   UNL     1       4.301  -1.480   0.403  0.00  0.00    +0.000 C 
ATOM     13  C   UNL     1       3.262  -1.608   1.518  0.00  0.00    +0.000 C 
ATOM     14  C   UNL     1       2.220  -2.660   1.132  0.00  0.00    +0.000 C 
ATOM     15  C   UNL     1       1.051  -2.608   2.119  0.00  0.00    +0.000 C 
ATOM     16  C   UNL     1      -0.189  -2.062   1.404  0.00  0.00    +0.000 C 
ATOM     17  C   UNL     1      -0.153  -0.530   1.431  0.00  0.00    +0.006 C 
ATOM     18  C   UNL     1       0.002  -0.004   0.002  0.00  0.00    +0.056 C 
ATOM     19  H   UNL     1      -2.180   5.403   0.034  0.00  0.00    +0.157 HD
ENDROOT
BRANCH   1  20
ATOM     20  C   UNL     1      -4.760   4.698   0.032  0.00  0.00    +0.198 C 
BRANCH  20  21
ATOM     21  N   UNL     1      -5.987   3.890   0.029  0.00  0.00    -0.232 NA
ATOM     22  H   UNL     1      -6.000   3.256  -0.755  0.00  0.00    +0.145 HD
BRANCH  21  25
ATOM     23  C   UNL     1      -8.325   4.130   0.032  0.00  0.00    +0.286 C 
ATOM     24  O   UNL     1      -8.444   2.923   0.026  0.00  0.00    -0.269 OA
ATOM     25  N   UNL     1      -7.097   4.686   0.034  0.00  0.00    -0.246 N 
ATOM     26  H   UNL     1      -6.989   5.781   0.039  0.00  0.00    +0.169 HD
BRANCH  23  31
ATOM     27  C   UNL     1     -12.694   3.704   1.278  0.00  0.00    +0.040 C 
ATOM     28  C   UNL     1     -11.189   3.975   1.251  0.00  0.00    +0.145 C 
ATOM     29  C   UNL     1     -10.857   5.332   1.920  0.00  0.00    +0.195 C 
ATOM     30  O   UNL     1      -9.626   5.721   1.278  0.00  0.00    -0.339 OA
ATOM     31  C   UNL     1      -9.550   5.008   0.037  0.00  0.00    +0.247 C 
ATOM     32  O   UNL     1     -10.727   4.195  -0.104  0.00  0.00    -0.336 OA
ATOM     33  C   UNL     1      -9.474   6.002  -1.123  0.00  0.00    +0.085 C 
ENDBRANCH  23  31
ENDBRANCH  21  25
ENDBRANCH  20  21
ENDBRANCH   1  20
TORSDOF 4
