REMARK  Name = ZINC08591194
REMARK  11 active torsions:
REMARK  status: ('A' for Active; 'I' for Inactive)
REMARK    1  A    between atoms: C_1  and  C_2
REMARK    2  A    between atoms: C_2  and  O_3
REMARK    3  A    between atoms: O_3  and  C_4
REMARK    4  A    between atoms: C_7  and  C_13
REMARK    5  A    between atoms: C_9  and  O_10
REMARK    6  A    between atoms: O_10  and  C_11
REMARK    7  A    between atoms: C_11  and  C_12
REMARK    8  A    between atoms: C_13  and  C_14
REMARK    9  A    between atoms: C_14  and  N_15
REMARK   10  A    between atoms: C_16  and  C_18
REMARK   11  A    between atoms: C_18  and  N_19
REMARK                            x       y       z     vdW  Elec       q    Type
REMARK                         _______ _______ _______ _____ _____    ______ ____
ROOT
ATOM      1  N   UNL     1      -2.217  -8.065   1.423  0.00  0.00    -0.313 N 
ATOM      2  C   UNL     1      -2.289  -8.740   2.587  0.00  0.00    +0.235 C 
ATOM      3  O   UNL     1      -2.214  -8.143   3.640  0.00  0.00    -0.274 OA
ATOM      4  H   UNL     1      -2.276  -8.543   0.581  0.00  0.00    +0.149 HD
ENDROOT
BRANCH   1   5
ATOM      5  C   UNL     1      -2.048  -6.610   1.429  0.00  0.00    +0.109 C 
BRANCH   5   6
ATOM      6  C   UNL     1      -1.996  -6.097  -0.011  0.00  0.00    +0.054 C 
BRANCH   6  10
ATOM      7  C   UNL     1      -1.498  -1.849   0.006  0.00  0.00    +0.162 A 
ATOM      8  C   UNL     1      -0.389  -2.680  -0.003  0.00  0.00    +0.050 A 
ATOM      9  C   UNL     1      -0.553  -4.052  -0.008  0.00  0.00    +0.007 A 
ATOM     10  C   UNL     1      -1.823  -4.600  -0.005  0.00  0.00    -0.042 A 
ATOM     11  C   UNL     1      -2.934  -3.777   0.004  0.00  0.00    +0.053 A 
ATOM     12  C   UNL     1      -2.776  -2.400   0.016  0.00  0.00    +0.162 A 
BRANCH   7  13
ATOM     13  O   UNL     1      -1.339  -0.499   0.012  0.00  0.00    -0.489 OA
BRANCH  13  15
ATOM     14  C   UNL     1      -0.019   1.526   0.010  0.00  0.00    +0.048 C 
ATOM     15  C   UNL     1       0.002  -0.004   0.002  0.00  0.00    +0.226 C 
ENDBRANCH  13  15
ENDBRANCH   7  13
BRANCH  12  16
ATOM     16  O   UNL     1      -3.868  -1.589   0.030  0.00  0.00    -0.489 OA
BRANCH  16  17
ATOM     17  C   UNL     1      -5.148  -2.225   0.039  0.00  0.00    +0.226 C 
ATOM     18  C   UNL     1      -6.246  -1.159   0.055  0.00  0.00    +0.048 C 
ENDBRANCH  16  17
ENDBRANCH  12  16
ENDBRANCH   6  10
ENDBRANCH   5   6
ENDBRANCH   1   5
BRANCH   2  19
ATOM     19  C   UNL     1      -2.462 -10.237   2.581  0.00  0.00    +0.243 C 
BRANCH  19  20
ATOM     20  N   UNL     1      -2.512 -10.729   3.960  0.00  0.00    -0.219 N 
ATOM     21  C   UNL     1      -3.700 -10.823   4.590  0.00  0.00    +0.292 A 
ATOM     22  O   UNL     1      -4.728 -10.501   4.018  0.00  0.00    -0.264 OA
ATOM     23  C   UNL     1      -3.742 -11.298   5.923  0.00  0.00    +0.116 A 
ATOM     24  C   UNL     1      -2.544 -11.656   6.541  0.00  0.00    +0.032 A 
ATOM     25  C   UNL     1      -1.331 -11.537   5.831  0.00  0.00    +0.143 A 
ATOM     26  N   UNL     1      -1.327 -11.100   4.603  0.00  0.00    -0.175 NA
ATOM     27  C   UNL     1      -2.892 -12.105   7.896  0.00  0.00    +0.009 A 
ATOM     28  C   UNL     1      -2.145 -12.578   8.976  0.00  0.00    +0.010 A 
ATOM     29  C   UNL     1      -2.774 -12.925  10.139  0.00  0.00    +0.001 A 
ATOM     30  C   UNL     1      -4.153 -12.811  10.254  0.00  0.00    +0.002 A 
ATOM     31  C   UNL     1      -4.908 -12.347   9.200  0.00  0.00    +0.026 A 
ATOM     32  C   UNL     1      -4.288 -11.987   8.006  0.00  0.00    +0.048 A 
ATOM     33  N   UNL     1      -4.775 -11.502   6.811  0.00  0.00    -0.350 N 
ATOM     34  H   UNL     1      -5.710 -11.329   6.623  0.00  0.00    +0.166 HD
ENDBRANCH  19  20
ENDBRANCH   2  19
TORSDOF 9
