REMARK  Name = ZINC08632921
REMARK  9 active torsions:
REMARK  status: ('A' for Active; 'I' for Inactive)
REMARK    1  A    between atoms: C_1  and  C_2
REMARK    2  A    between atoms: C_3  and  N_11
REMARK    3  A    between atoms: C_7  and  N_8
REMARK    4  A    between atoms: C_12  and  C_14
REMARK    5  A    between atoms: C_14  and  S_15
REMARK    6  A    between atoms: S_15  and  C_16
REMARK    7  A    between atoms: C_24  and  C_28
REMARK    8  A    between atoms: N_31  and  C_32
REMARK    9  A    between atoms: C_32  and  C_33
REMARK                            x       y       z     vdW  Elec       q    Type
REMARK                         _______ _______ _______ _____ _____    ______ ____
ROOT
ATOM      1  C   UNL     1       1.810  -2.515  -0.569  0.00  0.00    +0.173 A 
ATOM      2  N   UNL     1       2.002  -3.230   0.521  0.00  0.00    -0.216 NA
ATOM      3  C   UNL     1       2.697  -2.741   1.541  0.00  0.00    +0.117 A 
ATOM      4  C   UNL     1       3.258  -1.453   1.514  0.00  0.00    +0.076 A 
ATOM      5  C   UNL     1       3.997  -1.052   2.713  0.00  0.00    -0.023 A 
ATOM      6  C   UNL     1       4.066  -1.949   3.717  0.00  0.00    -0.004 A 
ATOM      7  S   UNL     1       3.166  -3.361   3.137  0.00  0.00    -0.073 S 
ATOM      8  C   UNL     1       4.757  -1.782   5.037  0.00  0.00    +0.046 C 
ATOM      9  C   UNL     1       5.697  -0.572   4.942  0.00  0.00    -0.009 C 
ATOM     10  C   UNL     1       4.931   0.598   4.319  0.00  0.00    +0.008 C 
ATOM     11  C   UNL     1       4.664   0.315   2.840  0.00  0.00    +0.037 C 
ATOM     12  C   UNL     1       6.178  -0.186   6.343  0.00  0.00    +0.008 C 
ATOM     13  C   UNL     1       3.039  -0.702   0.316  0.00  0.00    +0.263 A 
ATOM     14  O   UNL     1       3.492   0.423   0.200  0.00  0.00    -0.267 OA
ATOM     15  N   UNL     1       2.320  -1.254  -0.679  0.00  0.00    -0.283 N 
ENDROOT
BRANCH   1  16
ATOM     16  S   UNL     1       0.881  -3.196  -1.903  0.00  0.00    -0.078 S 
BRANCH  16  17
ATOM     17  C   UNL     1       0.482  -4.821  -1.210  0.00  0.00    +0.173 C 
BRANCH  17  19
ATOM     18  N   UNL     1      -0.748  -6.851  -1.905  0.00  0.00    -0.285 N 
ATOM     19  C   UNL     1      -0.334  -5.604  -2.206  0.00  0.00    +0.227 C 
ATOM     20  O   UNL     1      -0.617  -5.113  -3.278  0.00  0.00    -0.275 OA
ATOM     21  H   UNL     1      -0.460  -7.272  -1.080  0.00  0.00    +0.155 HD
BRANCH  18  24
ATOM     22  C   UNL     1      -0.884  -9.686  -1.697  0.00  0.00    +0.048 C 
ATOM     23  C   UNL     1      -1.691  -8.922  -2.716  0.00  0.00    +0.001 A 
ATOM     24  C   UNL     1      -1.594  -7.538  -2.782  0.00  0.00    +0.038 A 
ATOM     25  C   UNL     1      -2.335  -6.838  -3.725  0.00  0.00    +0.024 A 
ATOM     26  C   UNL     1      -3.169  -7.519  -4.591  0.00  0.00    +0.004 A 
ATOM     27  C   UNL     1      -3.267  -8.896  -4.518  0.00  0.00    +0.033 A 
ATOM     28  C   UNL     1      -2.531  -9.596  -3.579  0.00  0.00    +0.131 A 
BRANCH  28  29
ATOM     29  N   UNL     1      -2.639 -11.071  -3.505  0.00  0.00    +0.057 N 
ATOM     30  O   UNL     1      -3.267 -11.679  -4.353  0.00  0.00    -0.126 OA
ATOM     31  O   UNL     1      -2.101 -11.675  -2.595  0.00  0.00    -0.126 OA
ENDBRANCH  28  29
ENDBRANCH  18  24
ENDBRANCH  17  19
ENDBRANCH  16  17
ENDBRANCH   1  16
BRANCH  15  32
ATOM     32  C   UNL     1       2.087  -0.489  -1.907  0.00  0.00    +0.154 C 
BRANCH  32  33
ATOM     33  C   UNL     1       0.813   0.305  -1.769  0.00  0.00    -0.013 C 
ATOM     34  C   UNL     1       0.826   1.601  -1.956  0.00  0.00    +0.005 C 
ENDBRANCH  32  33
ENDBRANCH  15  32
TORSDOF 7
