REMARK  Name = ZINC02158071
REMARK  12 active torsions:
REMARK  status: ('A' for Active; 'I' for Inactive)
REMARK    1  A    between atoms: C_1  and  C_2
REMARK    2  A    between atoms: N_12  and  N_13
REMARK    3  A    between atoms: C_14  and  C_15
REMARK    4  A    between atoms: C_17  and  C_26
REMARK    5  A    between atoms: C_18  and  O_25
REMARK    6  A    between atoms: C_19  and  C_21
REMARK    7  A    between atoms: C_21  and  C_22
REMARK    8  A    between atoms: C_21  and  C_23
REMARK    9  A    between atoms: C_21  and  C_24
REMARK   10  A    between atoms: C_26  and  C_27
REMARK   11  A    between atoms: C_26  and  C_28
REMARK   12  A    between atoms: C_26  and  C_29
REMARK                            x       y       z     vdW  Elec       q    Type
REMARK                         _______ _______ _______ _____ _____    ______ ____
ROOT
ATOM      1  C   UNL     1       0.968  -6.328  -0.247  0.00  0.00    -0.004 A 
ATOM      2  C   UNL     1      -0.275  -6.967  -0.232  0.00  0.00    +0.017 A 
ATOM      3  C   UNL     1      -0.344  -8.338  -0.347  0.00  0.00    +0.000 A 
ATOM      4  C   UNL     1       0.820  -9.087  -0.466  0.00  0.00    +0.124 A 
ATOM      5  C   UNL     1       2.058  -8.457  -0.476  0.00  0.00    +0.000 A 
ATOM      6  C   UNL     1       2.137  -7.086  -0.367  0.00  0.00    +0.017 A 
ENDROOT
BRANCH   5   7
ATOM      7  C   UNL     1       3.318  -9.274  -0.605  0.00  0.00    -0.009 C 
ATOM      8  C   UNL     1       4.533  -8.345  -0.589  0.00  0.00    +0.015 C 
ATOM      9  C   UNL     1       3.410 -10.256   0.564  0.00  0.00    +0.015 C 
ATOM     10  C   UNL     1       3.288 -10.052  -1.923  0.00  0.00    +0.015 C 
ENDBRANCH   5   7
BRANCH   3  11
ATOM     11  C   UNL     1      -1.684  -9.028  -0.336  0.00  0.00    -0.009 C 
ATOM     12  C   UNL     1      -2.794  -7.984  -0.196  0.00  0.00    +0.015 C 
ATOM     13  C   UNL     1      -1.871  -9.798  -1.645  0.00  0.00    +0.015 C 
ATOM     14  C   UNL     1      -1.747 -10.002   0.842  0.00  0.00    +0.015 C 
ENDBRANCH   3  11
BRANCH   1  16
ATOM     15  N   UNL     1      -0.041  -4.160  -0.018  0.00  0.00    -0.170 NA
ATOM     16  C   UNL     1       1.046  -4.862  -0.130  0.00  0.00    +0.141 C 
BRANCH  15  28
ATOM     17  C   UNL     1      -0.746  -2.852   2.322  0.00  0.00    +0.088 C 
ATOM     18  C   UNL     1      -0.310  -2.072   1.108  0.00  0.00    +0.132 A 
ATOM     19  N   UNL     1      -0.273  -0.776   1.189  0.00  0.00    -0.232 NA
ATOM     20  C   UNL     1       0.109  -0.009   0.138  0.00  0.00    +0.078 A 
ATOM     21  C   UNL     1       0.150   1.384   0.222  0.00  0.00    +0.028 A 
ATOM     22  C   UNL     1       0.545   2.119  -0.873  0.00  0.00    +0.002 A 
ATOM     23  C   UNL     1       0.904   1.492  -2.059  0.00  0.00    +0.001 A 
ATOM     24  C   UNL     1       0.873   0.129  -2.166  0.00  0.00    +0.015 A 
ATOM     25  C   UNL     1       0.476  -0.639  -1.073  0.00  0.00    +0.067 A 
ATOM     26  C   UNL     1       0.424  -2.106  -1.131  0.00  0.00    +0.282 A 
ATOM     27  O   UNL     1       0.727  -2.710  -2.144  0.00  0.00    -0.265 OA
ATOM     28  N   UNL     1       0.026  -2.760  -0.016  0.00  0.00    -0.182 N 
ENDBRANCH  15  28
ENDBRANCH   1  16
BRANCH   4  29
ATOM     29  O   UNL     1       0.748 -10.439  -0.574  0.00  0.00    -0.506 OA
ATOM     30  H   UNL     1       0.771 -10.903   0.274  0.00  0.00    +0.292 HD
ENDBRANCH   4  29
TORSDOF 5
