REMARK  Name = ZINC39937985
REMARK  8 active torsions:
REMARK  status: ('A' for Active; 'I' for Inactive)
REMARK    1  A    between atoms: C_1  and  C_2
REMARK    2  A    between atoms: C_2  and  C_3
REMARK    3  A    between atoms: C_2  and  C_4
REMARK    4  A    between atoms: C_4  and  C_6
REMARK    5  A    between atoms: C_4  and  N_20
REMARK    6  A    between atoms: N_8  and  N_9
REMARK    7  A    between atoms: C_10  and  C_11
REMARK    8  A    between atoms: C_21  and  C_23
REMARK                            x       y       z     vdW  Elec       q    Type
REMARK                         _______ _______ _______ _____ _____    ______ ____
ROOT
ATOM      1  C   UNL     1      -1.394  -0.633  -0.051  0.00  0.00    +0.163 C 
ENDROOT
BRANCH   1   2
ATOM      2  C   UNL     1      -2.074  -0.231  -1.335  0.00  0.00    +0.253 C 
ATOM      3  O   UNL     1      -2.505  -1.081  -2.084  0.00  0.00    -0.272 OA
ATOM      4  N   UNL     1      -2.204   1.073  -1.649  0.00  0.00    -0.205 N 
ATOM      5  H   UNL     1      -1.924   1.754  -1.018  0.00  0.00    +0.177 HD
BRANCH   4   6
ATOM      6  N   UNL     1      -2.744   1.445  -2.887  0.00  0.00    -0.188 NA
ATOM      7  C   UNL     1      -2.869   2.712  -3.192  0.00  0.00    +0.136 C 
BRANCH   7   8
ATOM      8  C   UNL     1      -3.409   3.084  -4.432  0.00  0.00    +0.000 C 
ATOM      9  C   UNL     1      -3.605   4.377  -4.911  0.00  0.00    +0.004 A 
ATOM     10  C   UNL     1      -3.347   5.650  -4.356  0.00  0.00    +0.010 A 
ATOM     11  C   UNL     1      -3.647   6.767  -5.065  0.00  0.00    +0.001 A 
ATOM     12  C   UNL     1      -4.209   6.695  -6.343  0.00  0.00    +0.002 A 
ATOM     13  C   UNL     1      -4.483   5.509  -6.938  0.00  0.00    +0.026 A 
ATOM     14  C   UNL     1      -4.197   4.295  -6.258  0.00  0.00    +0.043 A 
ATOM     15  N   UNL     1      -4.366   3.038  -6.610  0.00  0.00    -0.380 N 
ATOM     16  C   UNL     1      -3.895   2.165  -5.531  0.00  0.00    +0.150 C 
ATOM     17  H   UNL     1      -4.740   2.737  -7.453  0.00  0.00    +0.160 HD
ENDBRANCH   7   8
ENDBRANCH   4   6
ENDBRANCH   1   2
BRANCH   1  18
ATOM     18  N   UNL     1      -1.753  -2.014   0.280  0.00  0.00    -0.300 N 
ATOM     19  C   UNL     1      -1.708  -2.433   1.560  0.00  0.00    +0.246 C 
ATOM     20  O   UNL     1      -1.370  -1.665   2.440  0.00  0.00    -0.270 OA
ATOM     21  H   UNL     1      -2.023  -2.627  -0.422  0.00  0.00    +0.150 HD
BRANCH  19  22
ATOM     22  C   UNL     1      -2.071  -3.825   1.895  0.00  0.00    +0.055 A 
ATOM     23  C   UNL     1      -2.454  -4.712   0.886  0.00  0.00    +0.016 A 
ATOM     24  C   UNL     1      -2.791  -6.010   1.204  0.00  0.00    +0.021 A 
ATOM     25  C   UNL     1      -2.750  -6.437   2.521  0.00  0.00    +0.042 A 
ATOM     26  C   UNL     1      -2.372  -5.565   3.527  0.00  0.00    +0.040 A 
ATOM     27  C   UNL     1      -2.025  -4.263   3.221  0.00  0.00    +0.054 A 
ATOM     28 CL   UNL     1      -1.543  -3.172   4.481  0.00  0.00    -0.083 Cl
ATOM     29 CL   UNL     1      -3.177  -8.074   2.913  0.00  0.00    -0.083 Cl
ENDBRANCH  19  22
ENDBRANCH   1  18
BRANCH   1  31
ATOM     30  C   UNL     1       0.810  -0.837   1.108  0.00  0.00    +0.009 C 
ATOM     31  C   UNL     1       0.123  -0.527  -0.224  0.00  0.00    +0.012 C 
ATOM     32  C   UNL     1       0.587  -1.530  -1.282  0.00  0.00    +0.009 C 
ENDBRANCH   1  31
TORSDOF 6
