REMARK  Name = ZINC48858739
REMARK  4 active torsions:
REMARK  status: ('A' for Active; 'I' for Inactive)
REMARK    1  A    between atoms: C_5  and  C_8
REMARK    2  A    between atoms: C_5  and  N_11
REMARK    3  A    between atoms: C_19  and  C_21
REMARK    4  A    between atoms: C_21  and  O_22
REMARK                            x       y       z     vdW  Elec       q    Type
REMARK                         _______ _______ _______ _____ _____    ______ ____
ROOT
ATOM      1  N   UNL     1       2.565  -0.629  -0.344  0.00  0.00    -0.283 N 
ATOM      2  C   UNL     1       2.188  -1.681  -1.097  0.00  0.00    +0.303 C 
ATOM      3  O   UNL     1       1.558  -2.592  -0.595  0.00  0.00    -0.253 OA
ATOM      4  N   UNL     1       2.509  -1.724  -2.405  0.00  0.00    -0.280 N 
ATOM      5  C   UNL     1       3.382  -0.700  -2.995  0.00  0.00    +0.110 C 
ATOM      6  C   UNL     1       2.676  -0.090  -4.210  0.00  0.00    +0.019 C 
ATOM      7  C   UNL     1       2.276  -1.208  -5.176  0.00  0.00    +0.003 C 
ATOM      8  C   UNL     1       1.303  -2.162  -4.480  0.00  0.00    +0.025 C 
ATOM      9  C   UNL     1       1.998  -2.798  -3.267  0.00  0.00    +0.103 C 
ATOM     10  H   UNL     1       3.000   0.133  -0.758  0.00  0.00    +0.151 HD
ENDROOT
BRANCH   1  15
ATOM     11  C   UNL     1       0.095   1.365   0.168  0.00  0.00    +0.000 C 
ATOM     12  C   UNL     1       1.514   1.970   0.134  0.00  0.00    +0.000 C 
ATOM     13  C   UNL     1       2.101   1.889   1.517  0.00  0.00    +0.003 C 
ATOM     14  C   UNL     1       2.956   0.623   1.720  0.00  0.00    +0.037 C 
ATOM     15  C   UNL     1       2.318  -0.635   1.100  0.00  0.00    +0.137 C 
ATOM     16  C   UNL     1       0.834  -0.706   1.340  0.00  0.00    +0.037 C 
ATOM     17  C   UNL     1       0.111  -0.089   0.125  0.00  0.00    +0.003 C 
BRANCH  15  18
ATOM     18  C   UNL     1       2.968  -1.856   1.698  0.00  0.00    +0.379 C 
ATOM     19  O   UNL     1       2.911  -2.050   2.900  0.00  0.00    -0.244 OA
ATOM     20  O   UNL     1       3.550  -2.651   0.979  0.00  0.00    -0.244 OA
ENDBRANCH  15  18
ENDBRANCH   1  15
BRANCH   9  21
ATOM     21  C   UNL     1       0.994  -3.648  -2.485  0.00  0.00    +0.178 C 
BRANCH  21  22
ATOM     22  O   UNL     1      -0.119  -2.839  -2.102  0.00  0.00    -0.393 OA
ATOM     23  H   UNL     1      -0.797  -3.313  -1.602  0.00  0.00    +0.209 HD
ENDBRANCH  21  22
ENDBRANCH   9  21
TORSDOF 4
