REMARK  Name = ZINC02319343
REMARK  7 active torsions:
REMARK  status: ('A' for Active; 'I' for Inactive)
REMARK    1  A    between atoms: C_6  and  C_7
REMARK    2  A    between atoms: C_10  and  C_12
REMARK    3  A    between atoms: C_13  and  C_14
REMARK    4  A    between atoms: C_13  and  N_24
REMARK    5  A    between atoms: N_16  and  C_17
REMARK    6  A    between atoms: C_17  and  C_18
REMARK    7  A    between atoms: C_25  and  C_27
REMARK                            x       y       z     vdW  Elec       q    Type
REMARK                         _______ _______ _______ _____ _____    ______ ____
ROOT
ATOM      1  C   UNL     1      -0.968   4.056   5.725  0.00  0.00    +0.074 C 
ATOM      2  C   UNL     1      -2.306   4.164   5.498  0.00  0.00    +0.100 C 
ENDROOT
BRANCH   1   6
ATOM      3  C   UNL     1      -0.304   5.015   9.096  0.00  0.00    +0.136 A 
ATOM      4  C   UNL     1       0.977   4.829   8.662  0.00  0.00    +0.050 A 
ATOM      5  C   UNL     1       0.906   4.439   7.322  0.00  0.00    +0.050 A 
ATOM      6  C   UNL     1      -0.435   4.402   6.988  0.00  0.00    +0.131 A 
ATOM      7  O   UNL     1      -1.146   4.760   8.078  0.00  0.00    -0.455 OA
BRANCH   3  13
ATOM      8  C   UNL     1       0.275   5.773  11.396  0.00  0.00    +0.013 A 
ATOM      9  C   UNL     1      -0.101   6.168  12.663  0.00  0.00    +0.021 A 
ATOM     10  C   UNL     1      -1.442   6.218  13.006  0.00  0.00    +0.041 A 
ATOM     11  C   UNL     1      -2.414   5.877  12.079  0.00  0.00    +0.021 A 
ATOM     12  C   UNL     1      -2.051   5.485  10.807  0.00  0.00    +0.013 A 
ATOM     13  C   UNL     1      -0.700   5.433  10.455  0.00  0.00    +0.017 A 
ATOM     14 CL   UNL     1      -1.908   6.710  14.604  0.00  0.00    -0.084 Cl
ENDBRANCH   3  13
ENDBRANCH   1   6
BRANCH   2  15
ATOM     15  C   UNL     1      -2.873   3.697   4.231  0.00  0.00    +0.258 C 
ATOM     16  O   UNL     1      -4.079   3.712   4.063  0.00  0.00    -0.269 OA
ATOM     17  N   UNL     1      -2.062   3.251   3.253  0.00  0.00    -0.308 N 
ATOM     18  H   UNL     1      -1.101   3.239   3.387  0.00  0.00    +0.149 HD
BRANCH  17  19
ATOM     19  C   UNL     1      -2.630   2.784   1.986  0.00  0.00    +0.136 C 
BRANCH  19  20
ATOM     20  C   UNL     1      -1.501   2.335   1.056  0.00  0.00    +0.135 C 
ATOM     21  C   UNL     1      -2.061   1.953  -0.338  0.00  0.00    +0.035 C 
ATOM     22  C   UNL     1      -0.981   0.978  -0.866  0.00  0.00    +0.031 C 
ATOM     23  C   UNL     1      -0.256   0.494   0.405  0.00  0.00    +0.160 C 
ATOM     24  O   UNL     1      -0.906   1.106   1.531  0.00  0.00    -0.375 OA
ENDBRANCH  19  20
ENDBRANCH  17  19
ENDBRANCH   2  15
BRANCH   2  25
ATOM     25  N   UNL     1      -3.138   4.721   6.475  0.00  0.00    -0.277 N 
ATOM     26  C   UNL     1      -4.145   3.994   6.997  0.00  0.00    +0.248 C 
ATOM     27  O   UNL     1      -4.380   2.882   6.564  0.00  0.00    -0.270 OA
ATOM     28  H   UNL     1      -2.991   5.632   6.776  0.00  0.00    +0.155 HD
BRANCH  26  29
ATOM     29  C   UNL     1      -4.964   4.546   8.096  0.00  0.00    +0.037 A 
ATOM     30  C   UNL     1      -4.766   5.860   8.525  0.00  0.00    +0.014 A 
ATOM     31  C   UNL     1      -5.538   6.373   9.546  0.00  0.00    +0.021 A 
ATOM     32  C   UNL     1      -6.500   5.583  10.154  0.00  0.00    +0.041 A 
ATOM     33  C   UNL     1      -6.697   4.277   9.737  0.00  0.00    +0.021 A 
ATOM     34  C   UNL     1      -5.936   3.756   8.713  0.00  0.00    +0.014 A 
ATOM     35 CL   UNL     1      -7.462   6.233  11.445  0.00  0.00    -0.084 Cl
ENDBRANCH  26  29
ENDBRANCH   2  25
TORSDOF 7
