REMARK  Name = ZINC63589375
REMARK  10 active torsions:
REMARK  status: ('A' for Active; 'I' for Inactive)
REMARK    1  A    between atoms: C_1  and  C_2
REMARK    2  A    between atoms: C_6  and  N_9
REMARK    3  A    between atoms: C_7  and  C_8
REMARK    4  A    between atoms: N_11  and  C_12
REMARK    5  A    between atoms: C_12  and  C_13
REMARK    6  A    between atoms: C_13  and  C_14
REMARK    7  A    between atoms: N_23  and  C_24
REMARK    8  A    between atoms: C_24  and  C_26
REMARK    9  A    between atoms: C_29  and  N_32
REMARK   10  A    between atoms: C_33  and  C_35
REMARK                            x       y       z     vdW  Elec       q    Type
REMARK                         _______ _______ _______ _____ _____    ______ ____
ROOT
ATOM      1  N   UNL     1      -1.512  -4.566   2.166  0.00  0.00    -0.328 N 
ATOM      2  C   UNL     1      -0.727  -5.663   2.376  0.00  0.00    +0.194 C 
ATOM      3  N   UNL     1      -0.399  -6.034   3.648  0.00  0.00    -0.357 N 
ATOM      4  N   UNL     1      -0.284  -6.368   1.347  0.00  0.00    -0.143 NA
ATOM      5  H   UNL     1       0.212  -6.773   3.795  0.00  0.00    +0.162 HD
ATOM      6  H   UNL     1      -2.424  -4.675   1.854  0.00  0.00    +0.169 HD
ENDROOT
BRANCH   1  12
ATOM      7  C   UNL     1      -2.247   0.281   2.538  0.00  0.00    +0.044 C 
ATOM      8  C   UNL     1      -1.334  -0.918   2.587  0.00  0.00    -0.046 A 
ATOM      9  C   UNL     1       0.010  -0.752   2.865  0.00  0.00    +0.004 A 
ATOM     10  C   UNL     1       0.851  -1.849   2.911  0.00  0.00    +0.002 A 
ATOM     11  C   UNL     1       0.349  -3.115   2.679  0.00  0.00    +0.026 A 
ATOM     12  C   UNL     1      -1.001  -3.285   2.401  0.00  0.00    +0.045 A 
ATOM     13  C   UNL     1      -1.843  -2.182   2.360  0.00  0.00    -0.024 A 
ATOM     14  C   UNL     1      -3.309  -2.362   2.063  0.00  0.00    +0.046 C 
ENDBRANCH   1  12
BRANCH   4  15
ATOM     15  C   UNL     1      -0.438  -5.901   0.100  0.00  0.00    +0.270 C 
ATOM     16  O   UNL     1      -0.884  -4.782  -0.081  0.00  0.00    -0.268 OA
BRANCH  15  17
ATOM     17  C   UNL     1      -0.066  -6.745  -1.057  0.00  0.00    +0.039 A 
ATOM     18  C   UNL     1       0.332  -8.069  -0.858  0.00  0.00    +0.015 A 
ATOM     19  C   UNL     1       0.678  -8.852  -1.937  0.00  0.00    +0.024 A 
ATOM     20  C   UNL     1       0.631  -8.326  -3.223  0.00  0.00    +0.033 A 
ATOM     21  C   UNL     1       0.234  -7.008  -3.425  0.00  0.00    +0.024 A 
ATOM     22  C   UNL     1      -0.119  -6.222  -2.350  0.00  0.00    +0.015 A 
BRANCH  20  23
ATOM     23  N   UNL     1       0.982  -9.121  -4.314  0.00  0.00    -0.286 N 
ATOM     24  C   UNL     1       0.758 -10.450  -4.279  0.00  0.00    +0.214 C 
ATOM     25  O   UNL     1       0.153 -10.938  -3.349  0.00  0.00    -0.276 OA
ATOM     26  C   UNL     1       1.260 -11.328  -5.396  0.00  0.00    +0.109 C 
ATOM     27  H   UNL     1       1.388  -8.718  -5.098  0.00  0.00    +0.155 HD
ENDBRANCH  20  23
ENDBRANCH  15  17
ENDBRANCH   4  15
BRANCH   3  28
ATOM     28  C   UNL     1      -0.969  -5.315   4.790  0.00  0.00    +0.120 C 
BRANCH  28  29
ATOM     29  C   UNL     1      -0.397  -5.887   6.089  0.00  0.00    +0.054 C 
BRANCH  29  30
ATOM     30  C   UNL     1      -1.070  -5.230   7.266  0.00  0.00    -0.040 C 
ATOM     31  C   UNL     1      -2.252  -5.577   7.825  0.00  0.00    -0.001 A 
ATOM     32  C   UNL     1      -3.227  -6.630   7.516  0.00  0.00    +0.010 A 
ATOM     33  C   UNL     1      -4.344  -6.732   8.272  0.00  0.00    +0.001 A 
ATOM     34  C   UNL     1      -4.593  -5.859   9.340  0.00  0.00    +0.002 A 
ATOM     35  C   UNL     1      -3.745  -4.867   9.685  0.00  0.00    +0.026 A 
ATOM     36  C   UNL     1      -2.538  -4.669   8.959  0.00  0.00    +0.043 A 
ATOM     37  N   UNL     1      -1.571  -3.794   9.095  0.00  0.00    -0.380 N 
ATOM     38  C   UNL     1      -0.558  -4.053   8.066  0.00  0.00    +0.144 C 
ATOM     39  H   UNL     1      -1.531  -3.095   9.766  0.00  0.00    +0.160 HD
ENDBRANCH  29  30
ENDBRANCH  28  29
ENDBRANCH   3  28
TORSDOF 7
