REMARK  Name = ZINC06780234
REMARK  7 active torsions:
REMARK  status: ('A' for Active; 'I' for Inactive)
REMARK    1  A    between atoms: C_1  and  C_2
REMARK    2  A    between atoms: C_18  and  C_35
REMARK    3  A    between atoms: C_23  and  O_25
REMARK    4  A    between atoms: O_25  and  C_26
REMARK    5  A    between atoms: C_26  and  C_28
REMARK    6  A    between atoms: C_28  and  C_29
REMARK    7  A    between atoms: C_29  and  N_74
REMARK                            x       y       z     vdW  Elec       q    Type
REMARK                         _______ _______ _______ _____ _____    ______ ____
ROOT
ATOM      1  C   UNL     1       0.330   0.043   2.478  0.00  0.00    +0.012 C 
ATOM      2  C   UNL     1       0.870  -0.507   1.157  0.00  0.00    -0.025 C 
ATOM      3  C   UNL     1       2.315  -0.042   0.962  0.00  0.00    +0.015 C 
ATOM      4  C   UNL     1       2.373   1.488   1.016  0.00  0.00    +0.075 C 
ATOM      5  C   UNL     1       1.405   2.037  -0.000  0.00  0.00    +0.134 C 
ATOM      6  O   UNL     1       1.766   2.857  -0.810  0.00  0.00    -0.297 OA
ATOM      7  C   UNL     1      -0.019   1.530   0.011  0.00  0.00    +0.078 C 
ATOM      8  C   UNL     1       0.002  -0.004   0.002  0.00  0.00    +0.002 C 
ATOM      9  C   UNL     1      -1.433  -0.512   0.162  0.00  0.00    +0.005 C 
ATOM     10  C   UNL     1      -1.442  -2.041   0.188  0.00  0.00    +0.004 C 
ATOM     11  C   UNL     1      -0.598  -2.527   1.369  0.00  0.00    -0.004 C 
ATOM     12  C   UNL     1       0.838  -2.038   1.198  0.00  0.00    -0.001 C 
ATOM     13  C   UNL     1       1.387  -2.584  -0.125  0.00  0.00    +0.005 C 
ATOM     14  C   UNL     1       1.423  -4.109  -0.038  0.00  0.00    +0.011 C 
ATOM     15  C   UNL     1       0.047  -4.679   0.216  0.00  0.00    +0.008 C 
ATOM     16  C   UNL     1      -0.648  -4.055   1.440  0.00  0.00    +0.002 C 
ATOM     17  C   UNL     1      -2.132  -4.463   1.202  0.00  0.00    +0.008 C 
ATOM     18  C   UNL     1      -2.319  -4.303  -0.323  0.00  0.00    +0.045 C 
ATOM     19  C   UNL     1      -0.918  -4.436  -0.952  0.00  0.00    +0.183 C 
ATOM     20  C   UNL     1       0.167  -6.185   0.455  0.00  0.00    +0.015 C 
ENDROOT
BRANCH  19  21
ATOM     21  O   UNL     1      -0.886  -5.561  -1.869  0.00  0.00    -0.461 OA
BRANCH  21  22
ATOM     22  C   UNL     1      -1.135  -5.301  -3.162  0.00  0.00    +0.306 C 
ATOM     23  O   UNL     1      -1.371  -4.170  -3.516  0.00  0.00    -0.251 OA
BRANCH  22  24
ATOM     24  C   UNL     1      -1.119  -6.419  -4.173  0.00  0.00    +0.102 C 
BRANCH  24  25
ATOM     25  C   UNL     1      -1.431  -5.856  -5.561  0.00  0.00    -0.068 C 
BRANCH  25  31
ATOM     26  C   UNL     1      -0.068  -7.509  -6.687  0.00  0.00    -0.079 C 
ATOM     27  C   UNL     1      -0.117  -8.731  -7.607  0.00  0.00    -0.019 C 
ATOM     28  C   UNL     1      -0.660  -8.311  -8.976  0.00  0.00    -0.004 C 
ATOM     29  C   UNL     1      -2.046  -7.684  -8.795  0.00  0.00    -0.019 C 
ATOM     30  C   UNL     1      -1.940  -6.492  -7.841  0.00  0.00    -0.079 C 
ATOM     31  N   UNL     1      -1.434  -6.967  -6.535  0.00  0.00    +0.380 N 
ATOM     32  H   UNL     1      -2.051  -7.712  -6.189  0.00  0.00    -0.082 HD
ENDBRANCH  25  31
ENDBRANCH  24  25
ENDBRANCH  22  24
ENDBRANCH  21  22
ENDBRANCH  19  21
TORSDOF 5
