REMARK  Name = ZINC58961128
REMARK  11 active torsions:
REMARK  status: ('A' for Active; 'I' for Inactive)
REMARK    1  A    between atoms: C_1  and  C_2
REMARK    2  A    between atoms: C_5  and  C_8
REMARK    3  A    between atoms: C_10  and  C_29
REMARK    4  A    between atoms: C_12  and  S_14
REMARK    5  A    between atoms: S_14  and  C_15
REMARK    6  A    between atoms: C_15  and  C_17
REMARK    7  A    between atoms: C_15  and  C_18
REMARK    8  A    between atoms: N_20  and  C_21
REMARK    9  A    between atoms: C_21  and  C_22
REMARK   10  A    between atoms: C_22  and  C_23
REMARK   11  A    between atoms: C_23  and  N_24
REMARK                            x       y       z     vdW  Elec       q    Type
REMARK                         _______ _______ _______ _____ _____    ______ ____
ROOT
ATOM      1  C   UNL     1       0.060  -4.255  -0.021  0.00  0.00    +0.076 A 
ATOM      2  C   UNL     1       0.070  -4.971   1.179  0.00  0.00    +0.060 A 
ATOM      3  C   UNL     1       0.088  -6.354   1.122  0.00  0.00    +0.148 A 
ATOM      4  N   UNL     1       0.096  -6.953  -0.058  0.00  0.00    -0.218 NA
ATOM      5  C   UNL     1       0.086  -6.249  -1.181  0.00  0.00    +0.190 A 
ATOM      6  N   UNL     1       0.063  -4.925  -1.172  0.00  0.00    -0.222 NA
ENDROOT
BRANCH   1  11
ATOM      7  C   UNL     1      -0.018   1.503   0.010  0.00  0.00    +0.044 C 
ATOM      8  C   UNL     1       0.002  -0.004   0.002  0.00  0.00    -0.050 A 
ATOM      9  C   UNL     1       0.006  -0.686  -1.201  0.00  0.00    +0.004 A 
ATOM     10  C   UNL     1       0.024  -2.066  -1.215  0.00  0.00    +0.010 A 
ATOM     11  C   UNL     1       0.040  -2.772  -0.013  0.00  0.00    +0.001 A 
ATOM     12  C   UNL     1       0.037  -2.079   1.196  0.00  0.00    +0.010 A 
ATOM     13  C   UNL     1       0.023  -0.699   1.198  0.00  0.00    +0.004 A 
ENDBRANCH   1  11
BRANCH   3  14
ATOM     14  C   UNL     1       0.100  -7.168   2.390  0.00  0.00    +0.434 C 
ATOM     15  F   UNL     1      -1.215  -7.437   2.783  0.00  0.00    -0.164 F 
ATOM     16  F   UNL     1       0.775  -8.372   2.164  0.00  0.00    -0.164 F 
ATOM     17  F   UNL     1       0.751  -6.450   3.399  0.00  0.00    -0.164 F 
ENDBRANCH   3  14
BRANCH   5  18
ATOM     18  S   UNL     1       0.097  -7.096  -2.726  0.00  0.00    -0.074 S 
BRANCH  18  19
ATOM     19  C   UNL     1       0.121  -8.850  -2.264  0.00  0.00    +0.137 C 
ATOM     20  C   UNL     1      -1.182  -9.206  -1.545  0.00  0.00    +0.029 C 
BRANCH  19  21
ATOM     21  C   UNL     1       0.256  -9.694  -3.505  0.00  0.00    +0.226 C 
ATOM     22  O   UNL     1      -0.030  -9.230  -4.589  0.00  0.00    -0.275 OA
ATOM     23  N   UNL     1       0.695 -10.965  -3.411  0.00  0.00    -0.314 N 
ATOM     24  H   UNL     1       0.923 -11.337  -2.545  0.00  0.00    +0.149 HD
BRANCH  23  25
ATOM     25  C   UNL     1       0.826 -11.786  -4.618  0.00  0.00    +0.106 C 
BRANCH  25  26
ATOM     26  C   UNL     1       1.339 -13.176  -4.236  0.00  0.00    +0.040 C 
BRANCH  26  27
ATOM     27  C   UNL     1       1.476 -14.033  -5.495  0.00  0.00    +0.124 C 
BRANCH  27  28
ATOM     28  N   UNL     1       1.967 -15.364  -5.130  0.00  0.00    -0.338 N 
ATOM     29  C   UNL     1       3.277 -15.751  -5.045  0.00  0.00    +0.104 A 
ATOM     30  C   UNL     1       3.278 -17.047  -4.679  0.00  0.00    +0.101 A 
ATOM     31  N   UNL     1       2.003 -17.440  -4.543  0.00  0.00    -0.352 N 
ATOM     32  C   UNL     1       1.212 -16.436  -4.807  0.00  0.00    +0.173 A 
ATOM     33  H   UNL     1       1.714 -18.330  -4.286  0.00  0.00    +0.166 HD
ENDBRANCH  27  28
ENDBRANCH  26  27
ENDBRANCH  25  26
ENDBRANCH  23  25
ENDBRANCH  19  21
ENDBRANCH  18  19
ENDBRANCH   5  18
TORSDOF 9
