REMARK  Name = ZINC23127115
REMARK  16 active torsions:
REMARK  status: ('A' for Active; 'I' for Inactive)
REMARK    1  A    between atoms: C_1  and  C_2
REMARK    2  A    between atoms: C_3  and  C_30
REMARK    3  A    between atoms: C_5  and  C_25
REMARK    4  A    between atoms: C_11  and  C_12
REMARK    5  A    between atoms: C_15  and  O_22
REMARK    6  A    between atoms: C_16  and  O_20
REMARK    7  A    between atoms: C_17  and  O_18
REMARK    8  A    between atoms: O_18  and  C_19
REMARK    9  A    between atoms: O_20  and  C_21
REMARK   10  A    between atoms: O_22  and  C_23
REMARK   11  A    between atoms: C_25  and  N_26
REMARK   12  A    between atoms: N_26  and  C_27
REMARK   13  A    between atoms: N_26  and  C_28
REMARK   14  A    between atoms: C_30  and  N_31
REMARK   15  A    between atoms: N_31  and  C_32
REMARK   16  A    between atoms: N_31  and  C_33
REMARK                            x       y       z     vdW  Elec       q    Type
REMARK                         _______ _______ _______ _____ _____    ______ ____
ROOT
ATOM      1  C   UNL     1       0.381  -0.070  -8.158  0.00  0.00    +0.045 C 
ATOM      2  C   UNL     1       0.335  -1.310  -7.303  0.00  0.00    -0.031 A 
ATOM      3  C   UNL     1       0.394  -2.545  -7.885  0.00  0.00    -0.013 A 
ATOM      4  C   UNL     1       0.351  -3.692  -7.098  0.00  0.00    +0.185 A 
ATOM      5  C   UNL     1       0.249  -3.597  -5.719  0.00  0.00    +0.026 A 
ATOM      6  C   UNL     1       0.189  -2.349  -5.111  0.00  0.00    +0.145 A 
ATOM      7  C   UNL     1       0.233  -1.199  -5.916  0.00  0.00    +0.071 A 
ATOM      8  C   UNL     1       0.146  -0.047  -5.000  0.00  0.00    +0.232 C 
ATOM      9  O   UNL     1       0.146   1.138  -5.289  0.00  0.00    -0.283 OA
ATOM     10  C   UNL     1       0.061  -0.645  -3.662  0.00  0.00    +0.176 C 
ATOM     11  C   UNL     1      -0.034   0.029  -2.486  0.00  0.00    +0.062 C 
ATOM     12  O   UNL     1       0.090  -1.991  -3.813  0.00  0.00    -0.451 OA
ATOM     13  O   UNL     1       0.410  -4.914  -7.685  0.00  0.00    -0.287 OA
ENDROOT
BRANCH  11  14
ATOM     14  C   UNL     1       0.067  -0.695  -1.216  0.00  0.00    +0.024 A 
ATOM     15  C   UNL     1      -0.085  -2.089  -1.186  0.00  0.00    +0.015 A 
ATOM     16  C   UNL     1       0.005  -2.765   0.009  0.00  0.00    +0.050 A 
ATOM     17  C   UNL     1       0.252  -2.073   1.190  0.00  0.00    +0.165 A 
ATOM     18  C   UNL     1       0.411  -0.691   1.174  0.00  0.00    +0.204 A 
ATOM     19  C   UNL     1       0.323   0.003  -0.023  0.00  0.00    +0.172 A 
BRANCH  19  20
ATOM     20  O   UNL     1       0.476   1.352  -0.042  0.00  0.00    -0.491 OA
ATOM     21  C   UNL     1       1.802   1.851  -0.228  0.00  0.00    +0.277 C 
ENDBRANCH  19  20
BRANCH  18  22
ATOM     22  O   UNL     1       0.652  -0.021   2.333  0.00  0.00    -0.488 OA
ATOM     23  C   UNL     1      -0.485   0.445   3.063  0.00  0.00    +0.277 C 
ENDBRANCH  18  22
BRANCH  17  24
ATOM     24  O   UNL     1       0.339  -2.750   2.364  0.00  0.00    -0.491 OA
ATOM     25  C   UNL     1       0.167  -4.167   2.310  0.00  0.00    +0.277 C 
ENDBRANCH  17  24
ENDBRANCH  11  14
BRANCH   5  26
ATOM     26  C   UNL     1       0.205  -4.847  -4.879  0.00  0.00    -0.036 C 
BRANCH  26  27
ATOM     27  N   UNL     1      -1.191  -5.271  -4.706  0.00  0.00    +0.379 N 
ATOM     28  C   UNL     1      -1.264  -6.607  -4.099  0.00  0.00    -0.096 C 
ATOM     29  C   UNL     1      -1.945  -4.291  -3.914  0.00  0.00    -0.096 C 
ATOM     30  H   UNL     1      -1.653  -5.328  -5.703  0.00  0.00    -0.082 HD
ENDBRANCH  26  27
ENDBRANCH   5  26
BRANCH   3  31
ATOM     31  C   UNL     1       0.504  -2.665  -9.383  0.00  0.00    -0.040 C 
BRANCH  31  32
ATOM     32  N   UNL     1      -0.841  -2.723  -9.970  0.00  0.00    +0.379 N 
ATOM     33  C   UNL     1      -1.556  -1.454  -9.774  0.00  0.00    -0.096 C 
ATOM     34  C   UNL     1      -0.779  -3.076 -11.395  0.00  0.00    -0.096 C 
ATOM     35  H   UNL     1      -1.404  -3.512  -9.450  0.00  0.00    -0.082 HD
ENDBRANCH  31  32
ENDBRANCH   3  31
TORSDOF 8
