REMARK  Name = ZINC13065192
REMARK  11 active torsions:
REMARK  status: ('A' for Active; 'I' for Inactive)
REMARK    1  A    between atoms: C_1  and  C_2
REMARK    2  A    between atoms: C_2  and  C_3
REMARK    3  A    between atoms: C_3  and  C_5
REMARK    4  A    between atoms: C_3  and  N_66
REMARK    5  A    between atoms: N_9  and  C_10
REMARK    6  A    between atoms: C_15  and  C_16
REMARK    7  A    between atoms: C_15  and  N_66
REMARK    8  A    between atoms: C_21  and  C_22
REMARK    9  A    between atoms: C_21  and  N_66
REMARK   10  A    between atoms: C_25  and  C_35
REMARK   11  A    between atoms: C_28  and  C_34
REMARK                            x       y       z     vdW  Elec       q    Type
REMARK                         _______ _______ _______ _____ _____    ______ ____
ROOT
ATOM      1  N   UNL     1       2.861  -1.124  -0.082  0.00  0.00    +0.394 N 
ATOM      2  H   UNL     1       3.516  -0.339  -0.182  0.00  0.00    -0.080 HD
ENDROOT
BRANCH   1   3
ATOM      3  C   UNL     1       1.479  -0.600  -0.090  0.00  0.00    +0.003 C 
BRANCH   3   4
ATOM      4  C   UNL     1       0.498  -1.694   0.243  0.00  0.00    +0.138 A 
ATOM      5  N   UNL     1       0.685  -2.685   1.080  0.00  0.00    -0.115 NA
ATOM      6  N   UNL     1      -0.383  -3.405   1.089  0.00  0.00    -0.023 NA
ATOM      7  N   UNL     1      -1.247  -2.899   0.280  0.00  0.00    -0.044 NA
ATOM      8  N   UNL     1      -0.741  -1.843  -0.261  0.00  0.00    -0.228 N 
BRANCH   8   9
ATOM      9  C   UNL     1      -1.393  -0.970  -1.240  0.00  0.00    +0.111 C 
ATOM     10  C   UNL     1      -2.632  -0.300  -0.610  0.00  0.00    +0.027 C 
ATOM     11  C   UNL     1      -3.667  -0.259  -1.762  0.00  0.00    +0.002 C 
ATOM     12  C   UNL     1      -3.429  -1.608  -2.486  0.00  0.00    +0.002 C 
ATOM     13  C   UNL     1      -1.899  -1.800  -2.433  0.00  0.00    +0.027 C 
ENDBRANCH   8   9
ENDBRANCH   3   4
BRANCH   3  15
ATOM     14  C   UNL     1       2.290   1.674   0.553  0.00  0.00    +0.002 C 
ATOM     15  C   UNL     1       1.369   0.518   0.949  0.00  0.00    -0.011 C 
ENDBRANCH   3  15
ENDBRANCH   1   3
BRANCH   1  16
ATOM     16  C   UNL     1       3.132  -1.814   1.197  0.00  0.00    -0.002 C 
BRANCH  16  17
ATOM     17  C   UNL     1       4.621  -1.989   1.347  0.00  0.00    +0.089 A 
ATOM     18  C   UNL     1       5.455  -1.135   1.968  0.00  0.00    +0.042 A 
ATOM     19  C   UNL     1       6.753  -1.687   1.873  0.00  0.00    +0.041 A 
ATOM     20  C   UNL     1       6.635  -2.845   1.198  0.00  0.00    +0.195 A 
ATOM     21  O   UNL     1       5.341  -3.026   0.887  0.00  0.00    -0.470 OA
ENDBRANCH  16  17
ENDBRANCH   1  16
BRANCH   1  22
ATOM     22  C   UNL     1       3.054  -2.058  -1.211  0.00  0.00    -0.036 C 
BRANCH  22  23
ATOM     23  C   UNL     1       3.209  -1.258  -2.478  0.00  0.00    +0.001 A 
ATOM     24  C   UNL     1       4.446  -0.907  -2.910  0.00  0.00    +0.017 A 
ATOM     25  C   UNL     1       4.561  -0.134  -4.147  0.00  0.00    +0.002 A 
ATOM     26  C   UNL     1       5.811   0.252  -4.646  0.00  0.00    -0.041 A 
ATOM     27  C   UNL     1       5.884   0.977  -5.801  0.00  0.00    +0.004 A 
ATOM     28  C   UNL     1       4.731   1.334  -6.486  0.00  0.00    +0.005 A 
ATOM     29  C   UNL     1       3.490   0.965  -6.014  0.00  0.00    -0.026 A 
ATOM     30  C   UNL     1       3.390   0.227  -4.839  0.00  0.00    +0.052 A 
ATOM     31  N   UNL     1       2.161  -0.157  -4.345  0.00  0.00    -0.322 N 
ATOM     32  H   UNL     1       1.355   0.092  -4.822  0.00  0.00    +0.169 HD
ATOM     33  C   UNL     1       2.065  -0.871  -3.209  0.00  0.00    +0.251 A 
ATOM     34  O   UNL     1       0.962  -1.192  -2.801  0.00  0.00    -0.268 OA
ATOM     35  C   UNL     1       2.246   1.360  -6.767  0.00  0.00    +0.046 C 
ATOM     36  C   UNL     1       7.069  -0.131  -3.910  0.00  0.00    +0.044 C 
ENDBRANCH  22  23
ENDBRANCH   1  22
TORSDOF 8
