REMARK  Name = ZINC08022246
REMARK  5 active torsions:
REMARK  status: ('A' for Active; 'I' for Inactive)
REMARK    1  A    between atoms: C_1  and  C_2
REMARK    2  A    between atoms: C_2  and  C_4
REMARK    3  A    between atoms: C_2  and  N_11
REMARK    4  A    between atoms: C_12  and  C_14
REMARK    5  A    between atoms: C_14  and  C_15
REMARK                            x       y       z     vdW  Elec       q    Type
REMARK                         _______ _______ _______ _____ _____    ______ ____
ROOT
ATOM      1  N   UNL     1      -0.749   3.044   1.275  0.00  0.00    -0.309 N 
ATOM      2  C   UNL     1       0.305   3.730   1.762  0.00  0.00    +0.217 C 
ATOM      3  O   UNL     1       1.269   3.134   2.193  0.00  0.00    -0.276 OA
ATOM      4  H   UNL     1      -1.520   3.521   0.930  0.00  0.00    +0.149 HD
ENDROOT
BRANCH   1   6
ATOM      5  C   UNL     1      -0.013   1.086   0.008  0.00  0.00    +0.033 C 
ATOM      6  C   UNL     1      -0.729   1.579   1.267  0.00  0.00    +0.101 C 
BRANCH   6   7
ATOM      7  C   UNL     1      -2.143   1.058   1.278  0.00  0.00    -0.014 A 
ATOM      8  C   UNL     1      -3.172   1.841   0.791  0.00  0.00    +0.006 A 
ATOM      9  C   UNL     1      -4.468   1.361   0.795  0.00  0.00    +0.000 A 
ATOM     10  C   UNL     1      -4.737   0.101   1.297  0.00  0.00    +0.001 A 
ATOM     11  C   UNL     1      -3.709  -0.681   1.789  0.00  0.00    +0.015 A 
ATOM     12  C   UNL     1      -2.411  -0.203   1.780  0.00  0.00    +0.023 A 
ATOM     13 BR   UNL     1      -1.004  -1.272   2.452  0.00  0.00    -0.050 Br
ENDBRANCH   6   7
ENDBRANCH   1   6
BRANCH   2  14
ATOM     14  C   UNL     1       0.284   5.237   1.770  0.00  0.00    +0.150 C 
BRANCH  14  15
ATOM     15  C   UNL     1       1.590   5.761   2.370  0.00  0.00    +0.268 C 
ATOM     16  C   UNL     1       1.622   7.265   2.266  0.00  0.00    +0.259 C 
ATOM     17  O   UNL     1       2.142   7.798   1.309  0.00  0.00    -0.271 OA
ATOM     18  N   UNL     1       1.070   8.015   3.243  0.00  0.00    -0.280 N 
ATOM     19  C   UNL     1       0.580   7.385   4.395  0.00  0.00    +0.076 A 
ATOM     20  C   UNL     1      -0.180   8.089   5.315  0.00  0.00    +0.027 A 
ATOM     21  C   UNL     1      -0.661   7.450   6.443  0.00  0.00    +0.002 A 
ATOM     22  C   UNL     1      -0.381   6.113   6.657  0.00  0.00    +0.004 A 
ATOM     23  C   UNL     1       0.391   5.409   5.751  0.00  0.00    +0.047 A 
ATOM     24  C   UNL     1       0.882   6.044   4.623  0.00  0.00    +0.143 A 
ATOM     25  O   UNL     1       1.673   5.373   3.743  0.00  0.00    -0.477 OA
ATOM     26  H   UNL     1       1.012   8.979   3.148  0.00  0.00    +0.155 HD
ENDBRANCH  14  15
ENDBRANCH   2  14
TORSDOF 4
