REMARK  Name = ZINC27414711
REMARK  8 active torsions:
REMARK  status: ('A' for Active; 'I' for Inactive)
REMARK    1  A    between atoms: C_1  and  C_2
REMARK    2  A    between atoms: C_2  and  N_3
REMARK    3  A    between atoms: C_4  and  C_6
REMARK    4  A    between atoms: N_9  and  C_12
REMARK    5  A    between atoms: C_12  and  C_14
REMARK    6  A    between atoms: C_12  and  C_15
REMARK    7  A    between atoms: N_21  and  C_22
REMARK    8  A    between atoms: N_21  and  C_23
REMARK                            x       y       z     vdW  Elec       q    Type
REMARK                         _______ _______ _______ _____ _____    ______ ____
ROOT
ATOM      1  C   UNL     1      -6.298  -0.437  -1.414  0.00  0.00    -0.002 C 
ATOM      2  C   UNL     1      -6.306  -1.425  -2.583  0.00  0.00    -0.005 C 
ENDROOT
BRANCH   1   3
ATOM      3  C   UNL     1      -7.369   0.602  -1.628  0.00  0.00    +0.123 A 
ATOM      4  N   UNL     1      -7.198   1.547  -2.536  0.00  0.00    -0.201 NA
ATOM      5  C   UNL     1      -8.144   2.463  -2.731  0.00  0.00    +0.217 A 
ATOM      6  N   UNL     1      -9.256   2.433  -2.005  0.00  0.00    -0.181 NA
ATOM      7  C   UNL     1      -9.421   1.485  -1.090  0.00  0.00    +0.222 A 
ATOM      8  N   UNL     1      -8.474   0.568  -0.904  0.00  0.00    -0.201 NA
ATOM      9  N   UNL     1     -10.575   1.449  -0.333  0.00  0.00    -0.306 N 
ATOM     10  C   UNL     1     -10.757   0.402   0.676  0.00  0.00    +0.132 C 
ATOM     11  C   UNL     1     -11.617   2.457  -0.538  0.00  0.00    +0.132 C 
ATOM     12  N   UNL     1      -7.967   3.446  -3.683  0.00  0.00    -0.327 N 
ATOM     13  H   UNL     1      -8.748   4.204  -3.844  0.00  0.00    +0.145 HD
ATOM     14  H   UNL     1      -7.044   3.473  -4.282  0.00  0.00    +0.145 HD
ENDBRANCH   1   3
BRANCH   1  18
ATOM     15  C   UNL     1      -2.444   0.930  -0.168  0.00  0.00    +0.071 C 
ATOM     16  C   UNL     1      -2.552  -0.058  -1.332  0.00  0.00    -0.006 C 
ATOM     17  C   UNL     1      -3.905  -0.770  -1.266  0.00  0.00    -0.077 C 
ATOM     18  N   UNL     1      -4.987   0.220  -1.337  0.00  0.00    +0.386 N 
ATOM     19  C   UNL     1      -4.931   1.150  -0.202  0.00  0.00    -0.077 C 
ATOM     20  C   UNL     1      -3.609   1.921  -0.238  0.00  0.00    -0.006 C 
ATOM     21  H   UNL     1      -4.845   0.805  -2.257  0.00  0.00    -0.081 HD
BRANCH  15  23
ATOM     22  N   UNL     1       0.028   1.007  -0.225  0.00  0.00    -0.315 N 
ATOM     23  C   UNL     1      -1.140   1.679  -0.263  0.00  0.00    +0.216 C 
ATOM     24  O   UNL     1      -1.140   2.887  -0.373  0.00  0.00    -0.276 OA
ATOM     25  H   UNL     1       0.029  -0.088  -0.121  0.00  0.00    +0.149 HD
BRANCH  22  27
ATOM     26  C   UNL     1       2.459   0.742  -0.263  0.00  0.00    +0.024 C 
ATOM     27  C   UNL     1       1.296   1.734  -0.324  0.00  0.00    +0.101 C 
ENDBRANCH  22  27
ENDBRANCH  15  23
ENDBRANCH   1  18
TORSDOF 4
