REMARK  Name = ZINC09477042
REMARK  8 active torsions:
REMARK  status: ('A' for Active; 'I' for Inactive)
REMARK    1  A    between atoms: C_1  and  C_2
REMARK    2  A    between atoms: C_3  and  S_8
REMARK    3  A    between atoms: C_4  and  C_7
REMARK    4  A    between atoms: S_8  and  N_11
REMARK    5  A    between atoms: C_16  and  N_17
REMARK    6  A    between atoms: C_16  and  N_53
REMARK    7  A    between atoms: C_20  and  C_24
REMARK    8  A    between atoms: C_20  and  C_25
REMARK                            x       y       z     vdW  Elec       q    Type
REMARK                         _______ _______ _______ _____ _____    ______ ____
ROOT
ATOM      1  N   UNL     1      -3.274   2.785   3.633  0.00  0.00    -0.180 NA
ATOM      2  C   UNL     1      -2.691   3.964   2.975  0.00  0.00    +0.091 C 
ATOM      3  C   UNL     1      -2.446   3.628   1.500  0.00  0.00    -0.059 C 
ATOM      4  C   UNL     1      -2.355   1.251   1.976  0.00  0.00    -0.059 C 
ATOM      5  C   UNL     1      -2.596   1.491   3.470  0.00  0.00    +0.091 C 
ATOM      6  N   UNL     1      -1.615   2.407   1.424  0.00  0.00    +0.392 N 
ATOM      7  H   UNL     1      -0.761   2.550   1.976  0.00  0.00    -0.079 HD
ENDROOT
BRANCH   1   8
ATOM      8  S   UNL     1      -4.659   2.912   4.533  0.00  0.00    +0.066 S 
ATOM      9  O   UNL     1      -4.650   1.825   5.447  0.00  0.00    -0.153 OA
ATOM     10  O   UNL     1      -4.743   4.265   4.959  0.00  0.00    -0.153 OA
BRANCH   8  13
ATOM     11  C   UNL     1      -6.286   0.053   3.651  0.00  0.00    +0.071 C 
ATOM     12  C   UNL     1      -6.645   1.417   3.122  0.00  0.00    +0.107 A 
ATOM     13  C   UNL     1      -6.016   2.642   3.442  0.00  0.00    +0.170 A 
ATOM     14  C   UNL     1      -6.702   3.561   2.721  0.00  0.00    +0.161 A 
ATOM     15  O   UNL     1      -7.641   2.887   2.043  0.00  0.00    -0.358 OA
ATOM     16  N   UNL     1      -7.595   1.702   2.279  0.00  0.00    -0.081 NA
ATOM     17  C   UNL     1      -6.457   5.048   2.688  0.00  0.00    +0.091 C 
ENDBRANCH   8  13
ENDBRANCH   1   8
BRANCH   6  18
ATOM     18  C   UNL     1      -1.239   2.140   0.020  0.00  0.00    +0.043 C 
BRANCH  18  19
ATOM     19  N   UNL     1      -0.016   1.334   0.009  0.00  0.00    -0.241 N 
ATOM     20  C   UNL     1       1.230   1.848   0.000  0.00  0.00    +0.245 C 
ATOM     21  O   UNL     1       1.538   3.020   0.003  0.00  0.00    -0.273 OA
ATOM     22  C   UNL     1       2.165   0.655  -0.015  0.00  0.00    +0.112 C 
ATOM     23  N   UNL     1       1.252  -0.501  -0.013  0.00  0.00    -0.285 N 
ATOM     24  C   UNL     1       0.002  -0.004   0.002  0.00  0.00    +0.308 C 
ATOM     25  O   UNL     1      -0.999  -0.693   0.008  0.00  0.00    -0.252 OA
ATOM     26  C   UNL     1       3.026   0.658  -1.280  0.00  0.00    +0.042 C 
ATOM     27  H   UNL     1       1.503  -1.438  -0.019  0.00  0.00    +0.151 HD
BRANCH  22  28
ATOM     28  C   UNL     1       3.047   0.647   1.235  0.00  0.00    +0.021 C 
ATOM     29  C   UNL     1       4.539   0.931   1.048  0.00  0.00    +0.006 C 
ATOM     30  C   UNL     1       4.066  -0.487   1.373  0.00  0.00    +0.006 C 
ENDBRANCH  22  28
ENDBRANCH  18  19
ENDBRANCH   6  18
TORSDOF 5
