REMARK  Name = ZINC36082907
REMARK  12 active torsions:
REMARK  status: ('A' for Active; 'I' for Inactive)
REMARK    1  A    between atoms: C_1  and  C_2
REMARK    2  A    between atoms: C_5  and  C_9
REMARK    3  A    between atoms: C_6  and  C_8
REMARK    4  A    between atoms: C_9  and  N_10
REMARK    5  A    between atoms: N_10  and  C_11
REMARK    6  A    between atoms: N_10  and  C_18
REMARK    7  A    between atoms: C_11  and  C_12
REMARK    8  A    between atoms: C_18  and  C_19
REMARK    9  A    between atoms: C_21  and  C_24
REMARK   10  A    between atoms: N_26  and  C_27
REMARK   11  A    between atoms: C_27  and  C_29
REMARK   12  A    between atoms: C_27  and  C_30
REMARK                            x       y       z     vdW  Elec       q    Type
REMARK                         _______ _______ _______ _____ _____    ______ ____
ROOT
ATOM      1  N   UNL     1      -1.284  -4.450   0.360  0.00  0.00    +0.391 N 
ATOM      2  H   UNL     1      -1.833  -4.072   1.118  0.00  0.00    -0.080 HD
ENDROOT
BRANCH   1   3
ATOM      3  C   UNL     1      -0.064  -3.649   0.192  0.00  0.00    -0.042 C 
BRANCH   3   8
ATOM      4  C   UNL     1      -1.495   1.902  -0.543  0.00  0.00    +0.044 C 
ATOM      5  C   UNL     1      -1.122   0.454  -0.351  0.00  0.00    -0.050 A 
ATOM      6  C   UNL     1      -0.799  -0.327  -1.445  0.00  0.00    +0.003 A 
ATOM      7  C   UNL     1      -0.457  -1.655  -1.269  0.00  0.00    +0.002 A 
ATOM      8  C   UNL     1      -0.437  -2.201   0.001  0.00  0.00    -0.061 A 
ATOM      9  C   UNL     1      -0.758  -1.419   1.094  0.00  0.00    -0.049 A 
ATOM     10  C   UNL     1      -1.096  -0.090   0.919  0.00  0.00    +0.007 A 
ATOM     11  C   UNL     1      -0.736  -2.015   2.478  0.00  0.00    +0.044 C 
ENDBRANCH   3   8
ENDBRANCH   1   3
BRANCH   1  12
ATOM     12  C   UNL     1      -2.070  -4.411  -0.880  0.00  0.00    -0.042 C 
BRANCH  12  13
ATOM     13  C   UNL     1      -3.384  -5.117  -0.664  0.00  0.00    -0.064 A 
ATOM     14  C   UNL     1      -3.523  -6.445  -1.024  0.00  0.00    +0.002 A 
ATOM     15  C   UNL     1      -4.728  -7.092  -0.826  0.00  0.00    +0.000 A 
ATOM     16  C   UNL     1      -5.794  -6.412  -0.268  0.00  0.00    +0.000 A 
ATOM     17  C   UNL     1      -5.655  -5.085   0.093  0.00  0.00    +0.000 A 
ATOM     18  C   UNL     1      -4.449  -4.439  -0.101  0.00  0.00    +0.002 A 
ENDBRANCH  12  13
ENDBRANCH   1  12
BRANCH   1  19
ATOM     19  C   UNL     1      -0.919  -5.839   0.666  0.00  0.00    +0.020 C 
BRANCH  19  20
ATOM     20  C   UNL     1      -0.219  -5.893   2.000  0.00  0.00    +0.179 A 
ATOM     21  N   UNL     1      -0.808  -5.949   3.156  0.00  0.00    -0.210 NA
ATOM     22  C   UNL     1       0.147  -5.986   4.125  0.00  0.00    +0.163 A 
ATOM     23  C   UNL     1       1.354  -5.949   3.498  0.00  0.00    +0.230 A 
ATOM     24  O   UNL     1       1.109  -5.897   2.179  0.00  0.00    -0.449 OA
BRANCH  22  25
ATOM     25  C   UNL     1      -0.083  -6.052   5.580  0.00  0.00    +0.266 C 
ATOM     26  O   UNL     1       0.857  -5.985   6.348  0.00  0.00    -0.268 OA
ATOM     27  N   UNL     1      -1.336  -6.188   6.058  0.00  0.00    -0.303 N 
ATOM     28  H   UNL     1      -2.077  -6.323   5.447  0.00  0.00    +0.150 HD
BRANCH  27  29
ATOM     29  C   UNL     1      -1.578  -6.132   7.502  0.00  0.00    +0.100 C 
ATOM     30  C   UNL     1      -1.727  -4.673   7.938  0.00  0.00    +0.033 C 
BRANCH  29  31
ATOM     31  C   UNL     1      -2.842  -6.885   7.829  0.00  0.00    -0.027 A 
ATOM     32  C   UNL     1      -3.939  -6.789   6.994  0.00  0.00    +0.005 A 
ATOM     33  C   UNL     1      -5.099  -7.480   7.293  0.00  0.00    +0.000 A 
ATOM     34  C   UNL     1      -5.160  -8.268   8.428  0.00  0.00    +0.000 A 
ATOM     35  C   UNL     1      -4.063  -8.364   9.263  0.00  0.00    +0.000 A 
ATOM     36  C   UNL     1      -2.902  -7.676   8.961  0.00  0.00    +0.005 A 
ENDBRANCH  29  31
ENDBRANCH  27  29
ENDBRANCH  22  25
ENDBRANCH  19  20
ENDBRANCH   1  19
TORSDOF 9
