REMARK  Name = ZINC28727693
REMARK  10 active torsions:
REMARK  status: ('A' for Active; 'I' for Inactive)
REMARK    1  A    between atoms: C_1  and  C_2
REMARK    2  A    between atoms: C_2  and  C_4
REMARK    3  A    between atoms: C_2  and  N_14
REMARK    4  A    between atoms: C_7  and  S_10
REMARK    5  A    between atoms: S_10  and  N_13
REMARK    6  A    between atoms: N_14  and  C_15
REMARK    7  A    between atoms: N_14  and  C_16
REMARK    8  A    between atoms: C_16  and  C_17
REMARK    9  A    between atoms: N_19  and  C_20
REMARK   10  A    between atoms: N_19  and  C_21
REMARK                            x       y       z     vdW  Elec       q    Type
REMARK                         _______ _______ _______ _____ _____    ______ ____
ROOT
ATOM      1  N   UNL     1      -3.310   4.444   5.097  0.00  0.00    +0.388 N 
ATOM      2  C   UNL     1      -4.525   3.919   4.461  0.00  0.00    -0.095 C 
ATOM      3  H   UNL     1      -2.878   5.201   4.427  0.00  0.00    -0.081 HD
ENDROOT
BRANCH   1   5
ATOM      4  C   UNL     1      -2.956   2.194   5.999  0.00  0.00    -0.008 C 
ATOM      5  C   UNL     1      -2.311   3.382   5.281  0.00  0.00    -0.041 C 
BRANCH   5   6
ATOM      6  C   UNL     1      -1.797   2.937   3.936  0.00  0.00    -0.061 A 
ATOM      7  C   UNL     1      -1.385   1.631   3.751  0.00  0.00    +0.004 A 
ATOM      8  C   UNL     1      -0.914   1.222   2.517  0.00  0.00    +0.029 A 
ATOM      9  C   UNL     1      -0.856   2.121   1.468  0.00  0.00    +0.105 A 
ATOM     10  C   UNL     1      -1.262   3.429   1.655  0.00  0.00    +0.029 A 
ATOM     11  C   UNL     1      -1.737   3.836   2.888  0.00  0.00    +0.004 A 
BRANCH   9  12
ATOM     12  S   UNL     1      -0.255   1.601  -0.105  0.00  0.00    +0.056 S 
ATOM     13  O   UNL     1       0.578   0.474   0.131  0.00  0.00    -0.153 OA
ATOM     14  O   UNL     1       0.211   2.768  -0.768  0.00  0.00    -0.153 OA
BRANCH  12  15
ATOM     15  N   UNL     1      -1.558   1.053  -0.969  0.00  0.00    -0.204 NA
ATOM     16  H   UNL     1      -1.224   0.718  -1.962  0.00  0.00    +0.144 HD
ATOM     17  H   UNL     1      -2.289   1.867  -1.084  0.00  0.00    +0.144 HD
ENDBRANCH  12  15
ENDBRANCH   9  12
ENDBRANCH   5   6
ENDBRANCH   1   5
BRANCH   1  18
ATOM     18  C   UNL     1      -3.624   5.098   6.374  0.00  0.00    +0.019 C 
BRANCH  18  19
ATOM     19  C   UNL     1      -4.455   6.329   6.117  0.00  0.00    +0.199 C 
ATOM     20  O   UNL     1      -4.755   6.632   4.982  0.00  0.00    -0.278 OA
ATOM     21  N   UNL     1      -4.864   7.093   7.149  0.00  0.00    -0.299 N 
ATOM     22  C   UNL     1      -4.501   6.727   8.520  0.00  0.00    +0.132 C 
BRANCH  21  23
ATOM     23  C   UNL     1      -5.671   8.290   6.899  0.00  0.00    +0.106 C 
ATOM     24  C   UNL     1      -4.930   9.517   7.428  0.00  0.00    +0.027 C 
ATOM     25  C   UNL     1      -5.877  10.721   7.356  0.00  0.00    +0.007 C 
ATOM     26  C   UNL     1      -6.975  10.534   8.400  0.00  0.00    +0.035 C 
ATOM     27  C   UNL     1      -7.606   9.173   8.269  0.00  0.00    -0.042 A 
ATOM     28  C   UNL     1      -7.005   8.141   7.582  0.00  0.00    -0.024 A 
ATOM     29  C   UNL     1      -7.638   6.907   7.503  0.00  0.00    +0.006 A 
ATOM     30  C   UNL     1      -8.864   6.708   8.104  0.00  0.00    +0.000 A 
ATOM     31  C   UNL     1      -9.468   7.745   8.790  0.00  0.00    +0.000 A 
ATOM     32  C   UNL     1      -8.840   8.971   8.871  0.00  0.00    +0.004 A 
ENDBRANCH  21  23
ENDBRANCH  18  19
ENDBRANCH   1  18
TORSDOF 7
