REMARK  Name = ZINC00628730
REMARK  8 active torsions:
REMARK  status: ('A' for Active; 'I' for Inactive)
REMARK    1  A    between atoms: C_4  and  C_7
REMARK    2  A    between atoms: C_7  and  N_8
REMARK    3  A    between atoms: C_9  and  C_11
REMARK    4  A    between atoms: C_11  and  O_12
REMARK    5  A    between atoms: O_12  and  C_13
REMARK    6  A    between atoms: C_16  and  C_19
REMARK    7  A    between atoms: N_31  and  C_32
REMARK    8  A    between atoms: C_32  and  C_33
REMARK                            x       y       z     vdW  Elec       q    Type
REMARK                         _______ _______ _______ _____ _____    ______ ____
ROOT
ATOM      1  C   UNL     1       7.554   3.289  -0.052  0.00  0.00    +0.194 C 
ATOM      2  N   UNL     1       8.480   2.388   0.629  0.00  0.00    -0.322 N 
ATOM      3  C   UNL     1       8.455   2.160   2.002  0.00  0.00    +0.055 A 
ATOM      4  C   UNL     1       9.028   0.990   2.500  0.00  0.00    +0.025 A 
ATOM      5  C   UNL     1       9.034   0.743   3.856  0.00  0.00    +0.002 A 
ATOM      6  C   UNL     1       8.473   1.654   4.734  0.00  0.00    +0.002 A 
ATOM      7  C   UNL     1       7.898   2.813   4.247  0.00  0.00    +0.030 A 
ATOM      8  C   UNL     1       7.882   3.060   2.890  0.00  0.00    +0.126 A 
ATOM      9  S   UNL     1       7.109   4.524   2.270  0.00  0.00    +0.065 S 
ATOM     10  O   UNL     1       5.706   4.303   2.315  0.00  0.00    -0.153 OA
ATOM     11  O   UNL     1       7.735   5.627   2.911  0.00  0.00    -0.153 OA
ATOM     12  N   UNL     1       7.542   4.585   0.657  0.00  0.00    -0.148 NA
ATOM     13  H   UNL     1       9.146   1.925   0.097  0.00  0.00    +0.148 HD
ENDROOT
BRANCH   1  17
ATOM     14  C   UNL     1       3.627   1.603  -0.024  0.00  0.00    +0.121 A 
ATOM     15  C   UNL     1       3.792   2.980  -0.024  0.00  0.00    +0.046 A 
ATOM     16  C   UNL     1       5.062   3.523  -0.027  0.00  0.00    +0.010 A 
ATOM     17  C   UNL     1       6.169   2.695  -0.042  0.00  0.00    -0.011 A 
ATOM     18  C   UNL     1       6.008   1.321  -0.048  0.00  0.00    +0.010 A 
ATOM     19  C   UNL     1       4.740   0.774  -0.039  0.00  0.00    +0.046 A 
BRANCH  14  20
ATOM     20  O   UNL     1       2.379   1.066  -0.015  0.00  0.00    -0.483 OA
BRANCH  20  21
ATOM     21  C   UNL     1       1.280   1.980   0.001  0.00  0.00    +0.324 C 
BRANCH  21  23
ATOM     22  N   UNL     1      -1.191   1.867   0.018  0.00  0.00    -0.308 N 
ATOM     23  C   UNL     1      -0.014   1.209   0.009  0.00  0.00    +0.251 C 
ATOM     24  O   UNL     1       0.002  -0.004   0.002  0.00  0.00    -0.272 OA
ATOM     25  H   UNL     1      -1.204   2.837   0.023  0.00  0.00    +0.149 HD
BRANCH  22  26
ATOM     26  C   UNL     1      -2.449   1.117   0.020  0.00  0.00    +0.139 C 
BRANCH  26  30
ATOM     27  C   UNL     1      -5.734   3.848   0.050  0.00  0.00    +0.000 A 
ATOM     28  C   UNL     1      -5.208   3.413  -1.152  0.00  0.00    +0.000 A 
ATOM     29  C   UNL     1      -4.145   2.529  -1.162  0.00  0.00    +0.005 A 
ATOM     30  C   UNL     1      -3.608   2.080   0.030  0.00  0.00    -0.030 A 
ATOM     31  C   UNL     1      -4.137   2.512   1.232  0.00  0.00    +0.005 A 
ATOM     32  C   UNL     1      -5.197   3.400   1.242  0.00  0.00    +0.000 A 
ENDBRANCH  26  30
ENDBRANCH  22  26
ENDBRANCH  21  23
ENDBRANCH  20  21
ENDBRANCH  14  20
ENDBRANCH   1  17
BRANCH  12  33
ATOM     33  C   UNL     1       7.890   5.841  -0.011  0.00  0.00    +0.147 C 
BRANCH  33  34
ATOM     34  C   UNL     1       6.673   6.395  -0.706  0.00  0.00    -0.032 A 
ATOM     35  C   UNL     1       6.407   6.046  -2.017  0.00  0.00    +0.005 A 
ATOM     36  C   UNL     1       5.288   6.550  -2.653  0.00  0.00    +0.000 A 
ATOM     37  C   UNL     1       4.440   7.411  -1.982  0.00  0.00    +0.000 A 
ATOM     38  C   UNL     1       4.709   7.764  -0.672  0.00  0.00    +0.000 A 
ATOM     39  C   UNL     1       5.825   7.256  -0.035  0.00  0.00    +0.005 A 
ENDBRANCH  33  34
ENDBRANCH  12  33
TORSDOF 8
