REMARK  Name = ZINC09075597
REMARK  13 active torsions:
REMARK  status: ('A' for Active; 'I' for Inactive)
REMARK    1  A    between atoms: C_1  and  C_2
REMARK    2  A    between atoms: C_2  and  C_3
REMARK    3  A    between atoms: C_8  and  C_30
REMARK    4  A    between atoms: C_9  and  C_27
REMARK    5  A    between atoms: C_12  and  C_15
REMARK    6  A    between atoms: C_13  and  O_14
REMARK    7  A    between atoms: C_15  and  N_80
REMARK    8  A    between atoms: C_17  and  C_26
REMARK    9  A    between atoms: C_22  and  C_24
REMARK   10  A    between atoms: C_22  and  C_25
REMARK   11  A    between atoms: C_27  and  C_28
REMARK   12  A    between atoms: C_27  and  C_29
REMARK   13  A    between atoms: N_38  and  C_39
REMARK                            x       y       z     vdW  Elec       q    Type
REMARK                         _______ _______ _______ _____ _____    ______ ____
ROOT
ATOM      1  C   UNL     1      -0.186   2.163   0.053  0.00  0.00    -0.005 A 
ATOM      2  C   UNL     1      -0.511   0.842  -0.080  0.00  0.00    +0.022 A 
ATOM      3  C   UNL     1       0.494  -0.124  -0.048  0.00  0.00    +0.065 A 
ATOM      4  C   UNL     1       0.181  -1.558  -0.189  0.00  0.00    +0.203 A 
ATOM      5  O   UNL     1      -0.963  -1.950  -0.338  0.00  0.00    -0.286 OA
ATOM      6  C   UNL     1       1.319  -2.494  -0.139  0.00  0.00    +0.103 A 
ATOM      7  C   UNL     1       2.573  -1.990   0.031  0.00  0.00    +0.123 A 
ATOM      8  O   UNL     1       2.809  -0.683   0.154  0.00  0.00    -0.458 OA
ATOM      9  C   UNL     1       1.838   0.252   0.122  0.00  0.00    +0.144 A 
ATOM     10  C   UNL     1       2.151   1.598   0.256  0.00  0.00    +0.021 A 
ATOM     11  C   UNL     1       1.142   2.546   0.222  0.00  0.00    +0.125 A 
ENDROOT
BRANCH   6  12
ATOM     12  C   UNL     1       1.104  -3.949  -0.271  0.00  0.00    +0.149 A 
ATOM     13  N   UNL     1       1.708  -4.725  -1.140  0.00  0.00    -0.227 NA
ATOM     14  C   UNL     1       1.277  -6.001  -0.987  0.00  0.00    +0.090 A 
ATOM     15  C   UNL     1       1.584  -7.202  -1.633  0.00  0.00    +0.030 A 
ATOM     16  C   UNL     1       0.970  -8.360  -1.247  0.00  0.00    +0.002 A 
ATOM     17  C   UNL     1       0.042  -8.359  -0.215  0.00  0.00    +0.002 A 
ATOM     18  C   UNL     1      -0.276  -7.186   0.437  0.00  0.00    +0.028 A 
ATOM     19  C   UNL     1       0.337  -6.000   0.058  0.00  0.00    +0.069 A 
ATOM     20  N   UNL     1       0.249  -4.692   0.498  0.00  0.00    -0.327 N 
ATOM     21  C   UNL     1      -0.602  -4.194   1.581  0.00  0.00    +0.151 C 
ENDBRANCH   6  12
BRANCH   7  22
ATOM     22  C   UNL     1       3.737  -2.944   0.082  0.00  0.00    +0.050 C 
ATOM     23  C   UNL     1       4.663  -2.684  -1.108  0.00  0.00    +0.015 C 
ATOM     24  C   UNL     1       4.512  -2.735   1.385  0.00  0.00    +0.015 C 
ENDBRANCH   7  22
BRANCH   1  26
ATOM     25  C   UNL     1      -1.394   3.759  -1.410  0.00  0.00    +0.009 C 
ATOM     26  C   UNL     1      -1.270   3.209   0.012  0.00  0.00    +0.035 C 
ENDBRANCH   1  26
BRANCH  11  27
ATOM     27  O   UNL     1       1.450   3.862   0.354  0.00  0.00    -0.506 OA
ATOM     28  H   UNL     1       1.448   4.177   1.268  0.00  0.00    +0.292 HD
ENDBRANCH  11  27
BRANCH  10  29
ATOM     29  C   UNL     1       3.584   2.026   0.440  0.00  0.00    -0.035 C 
BRANCH  29  40
ATOM     30  C   UNL     1       4.355   1.312  -1.776  0.00  0.00    -0.071 C 
ATOM     31  C   UNL     1       5.696   1.605  -2.493  0.00  0.00    -0.048 C 
ATOM     32  C   UNL     1       5.923   3.118  -2.236  0.00  0.00    -0.011 C 
ATOM     33  C   UNL     1       5.377   3.216  -0.784  0.00  0.00    -0.067 C 
ATOM     34  C   UNL     1       6.412   2.587   0.133  0.00  0.00    -0.009 C 
ATOM     35  C   UNL     1       7.017   1.277  -0.321  0.00  0.00    -0.036 C 
ATOM     36  C   UNL     1       6.800   0.851  -1.758  0.00  0.00    +0.011 C 
ATOM     37  C   UNL     1       6.529   0.149   0.610  0.00  0.00    +0.011 C 
ATOM     38  C   UNL     1       8.548   1.379  -0.101  0.00  0.00    +0.011 C 
ATOM     39  C   UNL     1       5.639   1.267  -3.991  0.00  0.00    +0.009 C 
ATOM     40  N   UNL     1       4.111   2.457  -0.899  0.00  0.00    +0.385 N 
ATOM     41  H   UNL     1       3.406   3.062  -1.336  0.00  0.00    -0.081 HD
ENDBRANCH  29  40
ENDBRANCH  10  29
TORSDOF 6
