REMARK  Name = ZINC48356216
REMARK  2 active torsions:
REMARK  status: ('A' for Active; 'I' for Inactive)
REMARK    1  A    between atoms: C_10  and  C_16
REMARK    2  A    between atoms: C_21  and  N_22
REMARK                            x       y       z     vdW  Elec       q    Type
REMARK                         _______ _______ _______ _____ _____    ______ ____
ROOT
ATOM      1  C   UNL     1      -0.134   1.113  -0.143  0.00  0.00    +0.002 A 
ATOM      2  C   UNL     1       1.010   1.897  -0.143  0.00  0.00    +0.002 A 
ATOM      3  C   UNL     1       2.259   1.313  -0.118  0.00  0.00    +0.028 A 
ATOM      4  C   UNL     1       2.376  -0.069  -0.091  0.00  0.00    +0.072 A 
ATOM      5  C   UNL     1       1.218  -0.869  -0.088  0.00  0.00    +0.091 A 
ATOM      6  C   UNL     1      -0.038  -0.260  -0.116  0.00  0.00    +0.030 A 
ATOM      7  N   UNL     1       1.625  -2.167  -0.054  0.00  0.00    -0.214 NA
ATOM      8  C   UNL     1       2.924  -2.217  -0.035  0.00  0.00    +0.205 A 
ATOM      9  N   UNL     1       3.439  -0.944  -0.066  0.00  0.00    -0.288 N 
ATOM     10  C   UNL     1       4.876  -0.648  -0.076  0.00  0.00    +0.211 C 
ATOM     11  N   UNL     1       5.591  -1.883   0.296  0.00  0.00    -0.294 N 
ATOM     12  C   UNL     1       5.105  -3.087  -0.194  0.00  0.00    +0.159 C 
ATOM     13  N   UNL     1       3.748  -3.340   0.011  0.00  0.00    -0.259 N 
ATOM     14  N   UNL     1       5.875  -3.937  -0.812  0.00  0.00    -0.375 N 
ATOM     15  H   UNL     1       6.376  -1.855   0.865  0.00  0.00    +0.151 HD
ATOM     16  H   UNL     1       6.815  -3.735  -0.940  0.00  0.00    +0.158 HD
ATOM     17  H   UNL     1       3.403  -4.232   0.173  0.00  0.00    +0.158 HD
ATOM     18  H   UNL     1       5.508  -4.771  -1.145  0.00  0.00    +0.158 HD
ENDROOT
BRANCH  10  19
ATOM     19  C   UNL     1       5.297  -0.209  -1.455  0.00  0.00    +0.027 A 
ATOM     20  C   UNL     1       4.471  -0.448  -2.538  0.00  0.00    +0.059 A 
ATOM     21  C   UNL     1       4.855  -0.045  -3.807  0.00  0.00    +0.163 A 
ATOM     22  C   UNL     1       6.072   0.602  -3.988  0.00  0.00    +0.164 A 
ATOM     23  C   UNL     1       6.896   0.837  -2.899  0.00  0.00    +0.082 A 
ATOM     24  C   UNL     1       6.505   0.437  -1.635  0.00  0.00    +0.137 A 
ATOM     25  O   UNL     1       6.465   1.013  -5.225  0.00  0.00    -0.485 OA
ATOM     26  C   UNL     1       5.786   0.431  -6.343  0.00  0.00    +0.270 C 
ATOM     27  C   UNL     1       4.278   0.460  -6.058  0.00  0.00    +0.270 C 
ATOM     28  O   UNL     1       4.033  -0.290  -4.864  0.00  0.00    -0.485 OA
BRANCH  24  29
ATOM     29  N   UNL     1       7.384   0.695  -0.473  0.00  0.00    +0.057 N 
ATOM     30  O   UNL     1       8.393   1.347  -0.611  0.00  0.00    -0.126 OA
ATOM     31  O   UNL     1       7.094   0.255   0.615  0.00  0.00    -0.126 OA
ENDBRANCH  24  29
ENDBRANCH  10  19
TORSDOF 2
