REMARK  Name = ZINC10273046
REMARK  5 active torsions:
REMARK  status: ('A' for Active; 'I' for Inactive)
REMARK    1  A    between atoms: C_1  and  C_2
REMARK    2  A    between atoms: C_5  and  N_8
REMARK    3  A    between atoms: C_9  and  N_25
REMARK    4  A    between atoms: C_10  and  C_13
REMARK    5  A    between atoms: C_15  and  C_18
REMARK                            x       y       z     vdW  Elec       q    Type
REMARK                         _______ _______ _______ _____ _____    ______ ____
ROOT
ATOM      1  N   UNL     1      -2.521   3.947   0.037  0.00  0.00    -0.198 N 
ATOM      2  C   UNL     1      -1.211   3.567   0.033  0.00  0.00    +0.153 A 
ATOM      3  C   UNL     1      -1.209   2.180   0.020  0.00  0.00    +0.191 A 
ATOM      4  N   UNL     1      -2.486   1.759   0.024  0.00  0.00    -0.122 NA
ATOM      5  N   UNL     1      -3.282   2.770   0.035  0.00  0.00    -0.058 NA
ENDROOT
BRANCH   1  10
ATOM      6  C   UNL     1      -4.506   9.264   0.079  0.00  0.00    +0.044 C 
ATOM      7  C   UNL     1      -3.979   7.853   0.068  0.00  0.00    -0.050 A 
ATOM      8  C   UNL     1      -4.661   6.867  -0.621  0.00  0.00    +0.005 A 
ATOM      9  C   UNL     1      -4.180   5.572  -0.633  0.00  0.00    +0.028 A 
ATOM     10  C   UNL     1      -3.011   5.261   0.048  0.00  0.00    +0.069 A 
ATOM     11  C   UNL     1      -2.332   6.251   0.744  0.00  0.00    +0.028 A 
ATOM     12  C   UNL     1      -2.814   7.545   0.747  0.00  0.00    +0.005 A 
ENDBRANCH   1  10
BRANCH   3  13
ATOM     13  C   UNL     1      -0.016   1.319   0.009  0.00  0.00    +0.282 A 
ATOM     14  N   UNL     1       0.002  -0.004   0.002  0.00  0.00    -0.186 NA
ATOM     15  C   UNL     1       1.307  -0.346  -0.012  0.00  0.00    +0.202 A 
ATOM     16  N   UNL     1       2.002   0.762  -0.013  0.00  0.00    -0.056 NA
ATOM     17  O   UNL     1       1.265   1.725  -0.001  0.00  0.00    -0.331 OA
BRANCH  15  18
ATOM     18  C   UNL     1       1.853  -1.726  -0.024  0.00  0.00    +0.023 A 
ATOM     19  C   UNL     1       0.989  -2.820  -0.015  0.00  0.00    +0.014 A 
ATOM     20  C   UNL     1       1.501  -4.101  -0.030  0.00  0.00    +0.039 A 
ATOM     21  C   UNL     1       2.872  -4.301  -0.045  0.00  0.00    +0.123 A 
ATOM     22  C   UNL     1       3.735  -3.216  -0.049  0.00  0.00    +0.039 A 
ATOM     23  C   UNL     1       3.231  -1.932  -0.038  0.00  0.00    +0.014 A 
ATOM     24  F   UNL     1       3.370  -5.557  -0.055  0.00  0.00    -0.205 F 
ENDBRANCH  15  18
ENDBRANCH   3  13
BRANCH   2  25
ATOM     25  N   UNL     1      -0.107   4.399   0.038  0.00  0.00    -0.341 N 
ATOM     26  H   UNL     1       0.786   4.019   0.032  0.00  0.00    +0.144 HD
ATOM     27  H   UNL     1      -0.225   5.362   0.048  0.00  0.00    +0.144 HD
ENDBRANCH   2  25
TORSDOF 4
