REMARK  Name = ZINC42438310
REMARK  8 active torsions:
REMARK  status: ('A' for Active; 'I' for Inactive)
REMARK    1  A    between atoms: C_1  and  C_2
REMARK    2  A    between atoms: C_3  and  C_18
REMARK    3  A    between atoms: C_4  and  N_8
REMARK    4  A    between atoms: N_5  and  C_7
REMARK    5  A    between atoms: C_11  and  C_14
REMARK    6  A    between atoms: C_14  and  C_15
REMARK    7  A    between atoms: C_18  and  N_19
REMARK    8  A    between atoms: N_19  and  C_20
REMARK                            x       y       z     vdW  Elec       q    Type
REMARK                         _______ _______ _______ _____ _____    ______ ____
ROOT
ATOM      1  C   UNL     1       1.548   0.614   1.242  0.00  0.00    +0.068 C 
ATOM      2  C   UNL     1       0.672  -0.384   0.528  0.00  0.00    +0.063 A 
ATOM      3  C   UNL     1       1.118  -1.458  -0.246  0.00  0.00    -0.002 A 
ATOM      4  C   UNL     1       0.023  -2.117  -0.716  0.00  0.00    +0.121 A 
ATOM      5  N   UNL     1      -1.071  -1.474  -0.249  0.00  0.00    -0.253 N 
ATOM      6  N   UNL     1      -0.636  -0.395   0.531  0.00  0.00    -0.175 NA
ATOM      7  C   UNL     1      -2.465  -1.842  -0.510  0.00  0.00    +0.174 C 
ENDROOT
BRANCH   4   8
ATOM      8  N   UNL     1       0.028  -3.247  -1.529  0.00  0.00    -0.315 N 
ATOM      9  C   UNL     1       0.135  -3.118  -2.989  0.00  0.00    +0.107 C 
ATOM     10  C   UNL     1      -1.025  -3.879  -3.637  0.00  0.00    +0.023 C 
ATOM     11  C   UNL     1      -1.028  -5.324  -3.132  0.00  0.00    +0.001 C 
ATOM     12  C   UNL     1      -1.230  -5.336  -1.616  0.00  0.00    +0.023 C 
ATOM     13  C   UNL     1      -0.066  -4.591  -0.944  0.00  0.00    +0.107 C 
BRANCH  11  14
ATOM     14  C   UNL     1      -2.165  -6.097  -3.804  0.00  0.00    +0.099 C 
BRANCH  14  15
ATOM     15  C   UNL     1      -2.093  -7.547  -3.402  0.00  0.00    +0.211 C 
ATOM     16  O   UNL     1      -1.218  -7.926  -2.652  0.00  0.00    -0.276 OA
ATOM     17  N   UNL     1      -3.000  -8.424  -3.876  0.00  0.00    -0.329 N 
ATOM     18  H   UNL     1      -3.700  -8.121  -4.476  0.00  0.00    +0.145 HD
ATOM     19  H   UNL     1      -2.954  -9.357  -3.617  0.00  0.00    +0.145 HD
ENDBRANCH  14  15
ENDBRANCH  11  14
ENDBRANCH   4   8
BRANCH   3  20
ATOM     20  C   UNL     1       2.556  -1.823  -0.514  0.00  0.00    -0.042 C 
BRANCH  20  21
ATOM     21  N   UNL     1       3.063  -2.653   0.587  0.00  0.00    +0.380 N 
ATOM     22  C   UNL     1       4.465  -3.009   0.326  0.00  0.00    -0.100 C 
ATOM     23  H   UNL     1       3.002  -2.138   1.452  0.00  0.00    -0.086 HD
ATOM     24  H   UNL     1       2.510  -3.494   0.656  0.00  0.00    -0.086 HD
ENDBRANCH  20  21
ENDBRANCH   3  20
TORSDOF 5
