REMARK  Name = ZINC15745106
REMARK  9 active torsions:
REMARK  status: ('A' for Active; 'I' for Inactive)
REMARK    1  A    between atoms: C_1  and  C_2
REMARK    2  A    between atoms: C_2  and  C_4
REMARK    3  A    between atoms: C_2  and  C_27
REMARK    4  A    between atoms: C_4  and  N_5
REMARK    5  A    between atoms: C_6  and  C_8
REMARK    6  A    between atoms: C_11  and  O_14
REMARK    7  A    between atoms: O_14  and  S_15
REMARK    8  A    between atoms: S_15  and  C_18
REMARK    9  A    between atoms: C_22  and  N_24
REMARK                            x       y       z     vdW  Elec       q    Type
REMARK                         _______ _______ _______ _____ _____    ______ ____
ROOT
ATOM      1  C   UNL     1      -3.748   5.583  -3.281  0.00  0.00    +0.037 A 
ATOM      2  C   UNL     1      -3.453   6.773  -2.612  0.00  0.00    +0.017 A 
ATOM      3  C   UNL     1      -2.232   6.928  -1.992  0.00  0.00    +0.049 A 
ATOM      4  C   UNL     1      -1.295   5.902  -2.032  0.00  0.00    +0.157 A 
ATOM      5  C   UNL     1      -1.583   4.719  -2.702  0.00  0.00    +0.049 A 
ATOM      6  C   UNL     1      -2.803   4.554  -3.319  0.00  0.00    +0.017 A 
ENDROOT
BRANCH   1   8
ATOM      7  N   UNL     1      -5.337   4.263  -4.592  0.00  0.00    -0.311 N 
ATOM      8  C   UNL     1      -5.054   5.412  -3.946  0.00  0.00    +0.244 C 
ATOM      9  O   UNL     1      -5.875   6.308  -3.912  0.00  0.00    -0.270 OA
ATOM     10  H   UNL     1      -4.682   3.549  -4.619  0.00  0.00    +0.149 HD
BRANCH   7  11
ATOM     11  C   UNL     1      -6.634   4.094  -5.252  0.00  0.00    +0.112 C 
BRANCH  11  13
ATOM     12  C   UNL     1      -6.652   1.634  -4.820  0.00  0.00    +0.014 C 
ATOM     13  C   UNL     1      -6.698   2.712  -5.904  0.00  0.00    +0.033 C 
BRANCH  13  14
ATOM     14  C   UNL     1      -7.980   2.584  -6.686  0.00  0.00    -0.043 A 
ATOM     15  C   UNL     1      -9.197   2.700  -6.041  0.00  0.00    +0.004 A 
ATOM     16  C   UNL     1     -10.373   2.587  -6.759  0.00  0.00    +0.000 A 
ATOM     17  C   UNL     1     -10.332   2.349  -8.120  0.00  0.00    +0.000 A 
ATOM     18  C   UNL     1      -9.115   2.227  -8.764  0.00  0.00    +0.000 A 
ATOM     19  C   UNL     1      -7.939   2.345  -8.047  0.00  0.00    +0.004 A 
ENDBRANCH  13  14
ENDBRANCH  11  13
ENDBRANCH   7  11
ENDBRANCH   1   8
BRANCH   4  20
ATOM     20  O   UNL     1      -0.094   6.059  -1.421  0.00  0.00    -0.342 OA
BRANCH  20  21
ATOM     21  S   UNL     1      -0.074   5.602   0.031  0.00  0.00    +0.151 S 
ATOM     22  O   UNL     1      -1.319   5.989   0.596  0.00  0.00    -0.131 OA
ATOM     23  O   UNL     1       1.171   6.022   0.572  0.00  0.00    -0.131 OA
BRANCH  21  24
ATOM     24  C   UNL     1      -0.050   3.840   0.022  0.00  0.00    +0.130 A 
ATOM     25  C   UNL     1       1.157   3.165   0.008  0.00  0.00    +0.031 A 
ATOM     26  C   UNL     1       1.175   1.783   0.000  0.00  0.00    +0.004 A 
ATOM     27  C   UNL     1      -0.013   1.076   0.008  0.00  0.00    +0.033 A 
ATOM     28  C   UNL     1      -1.219   1.750   0.017  0.00  0.00    +0.128 A 
ATOM     29  C   UNL     1      -1.238   3.133   0.030  0.00  0.00    +0.063 A 
BRANCH  28  30
ATOM     30  N   UNL     1      -2.490   0.993   0.019  0.00  0.00    +0.056 N 
ATOM     31  O   UNL     1      -2.474  -0.225   0.013  0.00  0.00    -0.126 OA
ATOM     32  O   UNL     1      -3.554   1.588   0.028  0.00  0.00    -0.126 OA
ENDBRANCH  28  30
ENDBRANCH  21  24
ENDBRANCH  20  21
ENDBRANCH   4  20
TORSDOF 8
