REMARK  Name = ZINC15743724
REMARK  3 active torsions:
REMARK  status: ('A' for Active; 'I' for Inactive)
REMARK    1  A    between atoms: C_10  and  C_12
REMARK    2  A    between atoms: N_14  and  N_15
REMARK    3  A    between atoms: C_16  and  C_18
REMARK                            x       y       z     vdW  Elec       q    Type
REMARK                         _______ _______ _______ _____ _____    ______ ____
ROOT
ATOM      1  C   UNL     1       5.033  -2.487   0.527  0.00  0.00    +0.296 C 
ATOM      2  O   UNL     1       5.143  -3.668   0.792  0.00  0.00    -0.265 OA
ATOM      3  N   UNL     1       6.125  -1.699   0.500  0.00  0.00    -0.228 N 
ATOM      4  H   UNL     1       6.038  -0.756   0.288  0.00  0.00    +0.173 HD
ENDROOT
BRANCH   1  14
ATOM      5  C   UNL     1      -0.017   1.363   0.009  0.00  0.00    +0.001 A 
ATOM      6  C   UNL     1       1.171   2.081   0.002  0.00  0.00    +0.004 A 
ATOM      7  C   UNL     1       2.388   1.433  -0.017  0.00  0.00    +0.047 A 
ATOM      8  C   UNL     1       2.431   0.043  -0.027  0.00  0.00    +0.139 A 
ATOM      9  C   UNL     1       1.223  -0.676  -0.013  0.00  0.00    +0.064 A 
ATOM     10  C   UNL     1       0.002  -0.004   0.002  0.00  0.00    +0.015 A 
ATOM     11  C   UNL     1       1.293  -2.151  -0.006  0.00  0.00    +0.193 A 
ATOM     12  O   UNL     1       0.314  -2.845  -0.216  0.00  0.00    -0.287 OA
ATOM     13  C   UNL     1       2.618  -2.733   0.270  0.00  0.00    +0.103 A 
ATOM     14  C   UNL     1       3.698  -1.914   0.234  0.00  0.00    +0.195 A 
ATOM     15  O   UNL     1       3.609  -0.609  -0.054  0.00  0.00    -0.450 OA
ENDBRANCH   1  14
BRANCH   3  16
ATOM     16  N   UNL     1       7.388  -2.240   0.777  0.00  0.00    -0.230 N 
ATOM     17  C   UNL     1       8.480  -1.452   0.749  0.00  0.00    +0.267 C 
ATOM     18  O   UNL     1       8.370  -0.269   0.484  0.00  0.00    -0.268 OA
ATOM     19  H   UNL     1       7.475  -3.183   0.988  0.00  0.00    +0.173 HD
BRANCH  17  20
ATOM     20  C   UNL     1       9.800  -2.018   1.039  0.00  0.00    +0.076 A 
ATOM     21  C   UNL     1      11.030  -1.391   1.070  0.00  0.00    +0.024 A 
ATOM     22  C   UNL     1      12.135  -2.181   1.377  0.00  0.00    -0.036 A 
ATOM     23  C   UNL     1      11.892  -3.496   1.615  0.00  0.00    -0.006 A 
ATOM     24  S   UNL     1      10.239  -3.696   1.452  0.00  0.00    -0.088 S 
ATOM     25  C   UNL     1      12.886  -4.567   1.957  0.00  0.00    +0.043 C 
ATOM     26  C   UNL     1      14.078  -3.942   2.689  0.00  0.00    +0.005 C 
ATOM     27  C   UNL     1      15.114  -3.514   1.655  0.00  0.00    +0.001 C 
ATOM     28  C   UNL     1      14.526  -2.475   0.703  0.00  0.00    +0.005 C 
ATOM     29  C   UNL     1      13.535  -1.580   1.439  0.00  0.00    +0.036 C 
ENDBRANCH  17  20
ENDBRANCH   3  16
TORSDOF 3
