REMARK  Name = ZINC33034329
REMARK  12 active torsions:
REMARK  status: ('A' for Active; 'I' for Inactive)
REMARK    1  A    between atoms: C_1  and  C_2
REMARK    2  A    between atoms: C_2  and  C_3
REMARK    3  A    between atoms: C_2  and  C_4
REMARK    4  A    between atoms: C_4  and  N_5
REMARK    5  A    between atoms: C_6  and  C_8
REMARK    6  A    between atoms: C_11  and  N_27
REMARK    7  A    between atoms: C_12  and  N_14
REMARK    8  A    between atoms: N_14  and  S_15
REMARK    9  A    between atoms: S_15  and  C_18
REMARK   10  A    between atoms: C_21  and  C_24
REMARK   11  A    between atoms: C_24  and  C_25
REMARK   12  A    between atoms: C_24  and  C_26
REMARK                            x       y       z     vdW  Elec       q    Type
REMARK                         _______ _______ _______ _____ _____    ______ ____
ROOT
ATOM      1  C   UNL     1      -2.447   0.388   0.074  0.00  0.00    +0.039 A 
ATOM      2  C   UNL     1      -2.745  -0.964   0.261  0.00  0.00    +0.015 A 
ATOM      3  C   UNL     1      -4.052  -1.396   0.205  0.00  0.00    +0.026 A 
ATOM      4  C   UNL     1      -5.077  -0.492  -0.047  0.00  0.00    +0.052 A 
ATOM      5  C   UNL     1      -4.785   0.862  -0.241  0.00  0.00    +0.070 A 
ATOM      6  C   UNL     1      -3.476   1.300  -0.180  0.00  0.00    +0.039 A 
ENDROOT
BRANCH   4   7
ATOM      7  N   UNL     1      -6.396  -0.934  -0.108  0.00  0.00    -0.332 N 
ATOM      8  C   UNL     1      -6.459  -2.402  -0.128  0.00  0.00    +0.086 C 
ATOM      9  C   UNL     1      -7.917  -2.846  -0.275  0.00  0.00    -0.063 C 
ATOM     10  N   UNL     1      -8.706  -2.303   0.839  0.00  0.00    +0.381 N 
ATOM     11  C   UNL     1      -8.643  -0.835   0.859  0.00  0.00    -0.063 C 
ATOM     12  C   UNL     1      -7.186  -0.391   1.006  0.00  0.00    +0.086 C 
ATOM     13  H   UNL     1      -9.756  -2.611   0.729  0.00  0.00    -0.086 HD
ATOM     14  H   UNL     1      -8.310  -2.687   1.791  0.00  0.00    -0.086 HD
ENDBRANCH   4   7
BRANCH   1  16
ATOM     15  N   UNL     1      -0.057  -0.028   0.385  0.00  0.00    -0.311 N 
ATOM     16  C   UNL     1      -1.048   0.852   0.140  0.00  0.00    +0.244 C 
ATOM     17  O   UNL     1      -0.789   2.028  -0.028  0.00  0.00    -0.270 OA
ATOM     18  H   UNL     1      -0.292  -1.091   0.541  0.00  0.00    +0.149 HD
BRANCH  15  19
ATOM     19  C   UNL     1       1.333   0.432   0.444  0.00  0.00    +0.107 C 
BRANCH  19  21
ATOM     20  C   UNL     1       3.711  -0.302   0.666  0.00  0.00    +0.009 C 
ATOM     21  C   UNL     1       2.252  -0.758   0.728  0.00  0.00    -0.000 C 
ATOM     22  C   UNL     1       1.950  -1.315   2.121  0.00  0.00    +0.009 C 
ENDBRANCH  19  21
ENDBRANCH  15  19
ENDBRANCH   1  16
BRANCH   5  23
ATOM     23  N   UNL     1      -5.818   1.772  -0.495  0.00  0.00    -0.214 N 
ATOM     24  H   UNL     1      -6.394   2.197   0.340  0.00  0.00    +0.174 HD
BRANCH  23  25
ATOM     25  S   UNL     1      -6.172   2.208  -2.053  0.00  0.00    +0.072 S 
ATOM     26  O   UNL     1      -7.269   3.109  -1.983  0.00  0.00    -0.150 OA
ATOM     27  O   UNL     1      -4.939   2.556  -2.668  0.00  0.00    -0.150 OA
BRANCH  25  28
ATOM     28  C   UNL     1      -6.757   0.765  -2.878  0.00  0.00    +0.109 A 
ATOM     29  C   UNL     1      -5.867  -0.063  -3.536  0.00  0.00    +0.029 A 
ATOM     30  C   UNL     1      -6.326  -1.198  -4.179  0.00  0.00    +0.006 A 
ATOM     31  C   UNL     1      -7.675  -1.498  -4.173  0.00  0.00    -0.045 A 
ATOM     32  C   UNL     1      -8.566  -0.666  -3.520  0.00  0.00    +0.006 A 
ATOM     33  C   UNL     1      -8.107   0.466  -2.873  0.00  0.00    +0.029 A 
BRANCH  31  34
ATOM     34  C   UNL     1      -8.175  -2.733  -4.878  0.00  0.00    +0.013 C 
ATOM     35  C   UNL     1      -7.822  -2.650  -6.364  0.00  0.00    +0.012 C 
ATOM     36  C   UNL     1      -7.518  -3.971  -4.266  0.00  0.00    +0.012 C 
ENDBRANCH  31  34
ENDBRANCH  25  28
ENDBRANCH  23  25
ENDBRANCH   5  23
TORSDOF 8
