REMARK  Name = ZINC49425937
REMARK  4 active torsions:
REMARK  status: ('A' for Active; 'I' for Inactive)
REMARK    1  A    between atoms: C_1  and  C_2
REMARK    2  A    between atoms: C_12  and  C_14
REMARK    3  A    between atoms: N_23  and  C_24
REMARK    4  A    between atoms: C_24  and  C_25
REMARK                            x       y       z     vdW  Elec       q    Type
REMARK                         _______ _______ _______ _____ _____    ______ ____
ROOT
ATOM      1  C   UNL     1       0.118  -8.480   0.893  0.00  0.00    +0.093 C 
ATOM      2  C   UNL     1       0.127  -9.286  -0.408  0.00  0.00    +0.016 C 
ATOM      3  C   UNL     1       0.186 -10.781  -0.084  0.00  0.00    +0.020 C 
ATOM      4  C   UNL     1      -1.056 -11.175   0.720  0.00  0.00    +0.109 C 
ATOM      5  N   UNL     1      -1.151 -10.305   1.900  0.00  0.00    -0.285 N 
ATOM      6  C   UNL     1      -1.125  -8.848   1.709  0.00  0.00    +0.122 C 
ATOM      7  C   UNL     1      -1.260 -10.833   3.136  0.00  0.00    +0.302 C 
ATOM      8  O   UNL     1      -1.242 -10.107   4.111  0.00  0.00    -0.253 OA
ATOM      9  N   UNL     1      -1.389 -12.166   3.290  0.00  0.00    -0.295 N 
ATOM     10  H   UNL     1      -1.330 -12.751   2.519  0.00  0.00    +0.151 HD
ENDROOT
BRANCH   1  22
ATOM     11  C   UNL     1      -0.058   1.506   0.008  0.00  0.00    +0.044 C 
ATOM     12  C   UNL     1      -0.032  -0.001   0.001  0.00  0.00    -0.049 A 
ATOM     13  C   UNL     1      -0.024  -0.695  -1.200  0.00  0.00    +0.005 A 
ATOM     14  C   UNL     1       0.000  -2.065  -1.236  0.00  0.00    +0.029 A 
ATOM     15  C   UNL     1       0.016  -2.818  -0.039  0.00  0.00    +0.080 A 
ATOM     16  C   UNL     1       0.007  -2.077   1.165  0.00  0.00    +0.041 A 
ATOM     17  C   UNL     1      -0.011  -0.705   1.190  0.00  0.00    +0.020 A 
ATOM     18  S   UNL     1       0.033  -3.357   2.397  0.00  0.00    -0.052 S 
ATOM     19  C   UNL     1       0.054  -4.748   1.275  0.00  0.00    +0.165 A 
ATOM     20  N   UNL     1       0.040  -4.161   0.101  0.00  0.00    -0.225 NA
ATOM     21  N   UNL     1       0.078  -6.102   1.570  0.00  0.00    -0.264 N 
ATOM     22  C   UNL     1       0.091  -7.008   0.573  0.00  0.00    +0.223 C 
ATOM     23  O   UNL     1       0.082  -6.639  -0.583  0.00  0.00    -0.275 OA
ATOM     24  H   UNL     1       0.086  -6.397   2.494  0.00  0.00    +0.157 HD
ENDBRANCH   1  22
BRANCH   9  25
ATOM     25  C   UNL     1      -1.616 -12.730   4.623  0.00  0.00    +0.148 C 
BRANCH  25  26
ATOM     26  C   UNL     1      -1.723 -14.230   4.521  0.00  0.00    +0.007 A 
ATOM     27  C   UNL     1      -0.745 -15.164   4.611  0.00  0.00    +0.013 A 
ATOM     28  C   UNL     1      -1.079 -16.499   4.487  0.00  0.00    +0.008 A 
ATOM     29  C   UNL     1      -2.376 -16.835   4.278  0.00  0.00    +0.045 A 
ATOM     30  S   UNL     1      -3.173 -15.238   4.259  0.00  0.00    -0.100 S 
ENDBRANCH  25  26
ENDBRANCH   9  25
TORSDOF 3
