REMARK  Name = ZINC61875057
REMARK  4 active torsions:
REMARK  status: ('A' for Active; 'I' for Inactive)
REMARK    1  A    between atoms: C_1  and  C_2
REMARK    2  A    between atoms: C_9  and  N_12
REMARK    3  A    between atoms: N_12  and  C_13
REMARK    4  A    between atoms: C_16  and  N_20
REMARK                            x       y       z     vdW  Elec       q    Type
REMARK                         _______ _______ _______ _____ _____    ______ ____
ROOT
ATOM      1  N   UNL     1       0.045  -1.963   3.621  0.00  0.00    -0.312 N 
ATOM      2  H   UNL     1       0.732  -1.288   3.742  0.00  0.00    +0.152 HD
ENDROOT
BRANCH   1  11
ATOM      3  C   UNL     1      -0.095   2.110   0.715  0.00  0.00    +0.065 C 
ATOM      4  C   UNL     1      -0.307   0.641   0.454  0.00  0.00    +0.039 A 
ATOM      5  C   UNL     1      -0.613   0.219  -0.838  0.00  0.00    +0.023 A 
ATOM      6  C   UNL     1      -0.809  -1.109  -1.093  0.00  0.00    +0.012 A 
ATOM      7  C   UNL     1      -0.692  -2.015  -0.022  0.00  0.00    +0.002 A 
ATOM      8  C   UNL     1      -0.878  -3.394  -0.210  0.00  0.00    +0.010 A 
ATOM      9  C   UNL     1      -0.758  -4.246   0.846  0.00  0.00    +0.003 A 
ATOM     10  C   UNL     1      -0.451  -3.772   2.118  0.00  0.00    +0.025 A 
ATOM     11  C   UNL     1      -0.261  -2.425   2.342  0.00  0.00    +0.058 A 
ATOM     12  C   UNL     1      -0.378  -1.517   1.266  0.00  0.00    +0.092 A 
ATOM     13  N   UNL     1      -0.195  -0.207   1.447  0.00  0.00    -0.250 NA
ENDBRANCH   1  11
BRANCH   1  14
ATOM     14  C   UNL     1      -0.638  -2.472   4.732  0.00  0.00    +0.046 A 
ATOM     15  C   UNL     1      -1.700  -3.349   4.552  0.00  0.00    +0.026 A 
ATOM     16  C   UNL     1      -2.374  -3.851   5.647  0.00  0.00    +0.024 A 
ATOM     17  C   UNL     1      -1.991  -3.480   6.930  0.00  0.00    +0.026 A 
ATOM     18  C   UNL     1      -0.929  -2.603   7.111  0.00  0.00    +0.039 A 
ATOM     19  C   UNL     1      -0.251  -2.104   6.015  0.00  0.00    +0.041 A 
ATOM     20 BR   UNL     1       1.200  -0.916   6.261  0.00  0.00    -0.048 Br
BRANCH  17  21
ATOM     21  N   UNL     1      -2.675  -3.989   8.040  0.00  0.00    -0.358 N 
ATOM     22  H   UNL     1      -3.417  -4.600   7.913  0.00  0.00    +0.142 HD
ATOM     23  H   UNL     1      -2.406  -3.729   8.935  0.00  0.00    +0.142 HD
ENDBRANCH  17  21
ENDBRANCH   1  14
TORSDOF 3
