REMARK  Name = ZINC39228811
REMARK  9 active torsions:
REMARK  status: ('A' for Active; 'I' for Inactive)
REMARK    1  A    between atoms: C_1  and  O_2
REMARK    2  A    between atoms: O_2  and  C_3
REMARK    3  A    between atoms: C_6  and  O_35
REMARK    4  A    between atoms: C_7  and  C_9
REMARK    5  A    between atoms: N_23  and  C_24
REMARK    6  A    between atoms: C_24  and  C_25
REMARK    7  A    between atoms: C_28  and  S_31
REMARK    8  A    between atoms: S_31  and  C_34
REMARK    9  A    between atoms: O_35  and  C_36
REMARK                            x       y       z     vdW  Elec       q    Type
REMARK                         _______ _______ _______ _____ _____    ______ ____
ROOT
ATOM      1  C   UNL     1      -2.599  -4.286   0.086  0.00  0.00    +0.014 C 
ATOM      2  C   UNL     1      -2.884  -4.772  -1.315  0.00  0.00    +0.011 A 
ATOM      3  H   UNL     1      -4.954  -4.661  -1.515  0.00  0.00    +0.166 HD
ATOM      4  C   UNL     1      -1.910  -5.168  -2.167  0.00  0.00    -0.022 A 
ATOM      5  C   UNL     1      -2.554  -5.564  -3.399  0.00  0.00    +0.003 A 
ATOM      6  C   UNL     1      -2.064  -6.052  -4.614  0.00  0.00    +0.010 A 
ATOM      7  C   UNL     1      -2.989  -6.329  -5.591  0.00  0.00    +0.001 A 
ATOM      8  C   UNL     1      -4.347  -6.137  -5.394  0.00  0.00    +0.002 A 
ATOM      9  C   UNL     1      -4.859  -5.656  -4.202  0.00  0.00    +0.026 A 
ATOM     10  C   UNL     1      -3.945  -5.366  -3.192  0.00  0.00    +0.047 A 
ATOM     11  N   UNL     1      -4.104  -4.886  -1.923  0.00  0.00    -0.359 N 
ATOM     12  C   UNL     1      -0.445  -5.160  -1.810  0.00  0.00    +0.019 C 
ATOM     13  C   UNL     1      -0.274  -4.297  -0.551  0.00  0.00    -0.072 C 
ATOM     14  N   UNL     1      -1.247  -4.718   0.471  0.00  0.00    +0.391 N 
ATOM     15  H   UNL     1      -1.228  -5.723   0.557  0.00  0.00    -0.080 HD
ENDROOT
BRANCH   1  20
ATOM     16  C   UNL     1      -2.532  -0.663  -0.985  0.00  0.00    +0.121 A 
ATOM     17  C   UNL     1      -2.832  -0.016   0.205  0.00  0.00    +0.049 A 
ATOM     18  C   UNL     1      -3.056  -0.751   1.353  0.00  0.00    +0.049 A 
ATOM     19  C   UNL     1      -2.981  -2.135   1.316  0.00  0.00    +0.122 A 
ATOM     20  C   UNL     1      -2.681  -2.782   0.126  0.00  0.00    -0.010 A 
ATOM     21  C   UNL     1      -2.462  -2.047  -1.023  0.00  0.00    +0.051 A 
BRANCH  16  23
ATOM     22  C   UNL     1      -2.398   1.483  -2.003  0.00  0.00    +0.277 C 
ATOM     23  O   UNL     1      -2.311   0.061  -2.115  0.00  0.00    -0.495 OA
ENDBRANCH  16  23
BRANCH  19  24
ATOM     24  O   UNL     1      -3.201  -2.859   2.446  0.00  0.00    -0.495 OA
ATOM     25  C   UNL     1      -3.504  -2.127   3.635  0.00  0.00    +0.277 C 
ENDBRANCH  19  24
ENDBRANCH   1  20
BRANCH  14  26
ATOM     26  C   UNL     1      -0.894  -4.116   1.764  0.00  0.00    -0.042 C 
BRANCH  26  27
ATOM     27  C   UNL     1       0.426  -4.672   2.233  0.00  0.00    -0.064 A 
ATOM     28  C   UNL     1       0.457  -5.813   3.012  0.00  0.00    +0.003 A 
ATOM     29  C   UNL     1       1.668  -6.323   3.443  0.00  0.00    +0.027 A 
ATOM     30  C   UNL     1       2.847  -5.692   3.094  0.00  0.00    +0.088 A 
ATOM     31  C   UNL     1       2.816  -4.551   2.314  0.00  0.00    +0.027 A 
ATOM     32  C   UNL     1       1.605  -4.043   1.880  0.00  0.00    +0.003 A 
BRANCH  30  33
ATOM     33  S   UNL     1       4.390  -6.341   3.643  0.00  0.00    -0.006 S 
ATOM     34  O   UNL     1       5.265  -5.222   3.672  0.00  0.00    -0.170 OA
ATOM     35  O   UNL     1       4.081  -7.050   4.836  0.00  0.00    -0.170 OA
ATOM     36  C   UNL     1       4.898  -7.499   2.343  0.00  0.00    +0.200 C 
ENDBRANCH  30  33
ENDBRANCH  26  27
ENDBRANCH  14  26
TORSDOF 6
