REMARK  Name = ZINC67638500
REMARK  6 active torsions:
REMARK  status: ('A' for Active; 'I' for Inactive)
REMARK    1  A    between atoms: C_7  and  C_11
REMARK    2  A    between atoms: C_11  and  C_12
REMARK    3  A    between atoms: C_12  and  O_14
REMARK    4  A    between atoms: O_14  and  C_15
REMARK    5  A    between atoms: C_18  and  O_21
REMARK    6  A    between atoms: O_21  and  C_22
REMARK                            x       y       z     vdW  Elec       q    Type
REMARK                         _______ _______ _______ _____ _____    ______ ____
ROOT
ATOM      1  C   UNL     1      -0.939  -5.004  -2.940  0.00  0.00    +0.132 A 
ATOM      2  C   UNL     1      -0.436  -4.309  -4.030  0.00  0.00    +0.050 A 
ATOM      3  C   UNL     1      -0.912  -4.575  -5.298  0.00  0.00    +0.049 A 
ATOM      4  C   UNL     1      -1.894  -5.538  -5.482  0.00  0.00    +0.122 A 
ATOM      5  C   UNL     1      -2.396  -6.234  -4.392  0.00  0.00    +0.049 A 
ATOM      6  C   UNL     1      -1.916  -5.971  -3.124  0.00  0.00    +0.050 A 
ENDROOT
BRANCH   1   7
ATOM      7  O   UNL     1      -0.470  -4.741  -1.690  0.00  0.00    -0.426 OA
BRANCH   7   8
ATOM      8  C   UNL     1      -0.885  -3.618  -1.085  0.00  0.00    +0.317 C 
ATOM      9  O   UNL     1      -1.581  -2.831  -1.682  0.00  0.00    -0.250 OA
BRANCH   8  10
ATOM     10  C   UNL     1      -0.484  -3.338   0.341  0.00  0.00    +0.158 C 
BRANCH  10  17
ATOM     11  C   UNL     1      -4.654  -2.133   2.111  0.00  0.00    +0.001 A 
ATOM     12  C   UNL     1      -4.758  -0.774   2.374  0.00  0.00    +0.002 A 
ATOM     13  C   UNL     1      -3.703   0.074   2.117  0.00  0.00    +0.026 A 
ATOM     14  C   UNL     1      -2.521  -0.434   1.587  0.00  0.00    +0.047 A 
ATOM     15  C   UNL     1      -2.421  -1.812   1.322  0.00  0.00    +0.003 A 
ATOM     16  C   UNL     1      -3.503  -2.653   1.591  0.00  0.00    +0.010 A 
ATOM     17  C   UNL     1      -1.077  -2.024   0.781  0.00  0.00    -0.012 A 
ATOM     18  C   UNL     1      -0.473  -0.825   0.751  0.00  0.00    +0.087 A 
ATOM     19  N   UNL     1      -1.320   0.136   1.229  0.00  0.00    -0.360 N 
ATOM     20  H   UNL     1      -1.107   1.079   1.305  0.00  0.00    +0.165 HD
ENDBRANCH  10  17
ENDBRANCH   8  10
ENDBRANCH   7   8
ENDBRANCH   1   7
BRANCH   4  21
ATOM     21  O   UNL     1      -2.364  -5.800  -6.731  0.00  0.00    -0.480 OA
BRANCH  21  22
ATOM     22  C   UNL     1      -1.746  -5.104  -7.816  0.00  0.00    +0.259 C 
ATOM     23  C   UNL     1      -2.700  -5.067  -9.012  0.00  0.00    +0.054 C 
ATOM     24  C   UNL     1      -3.517  -6.343  -9.088  0.00  0.00    +0.006 C 
ATOM     25  C   UNL     1      -2.696  -7.579  -9.405  0.00  0.00    +0.019 C 
ATOM     26  C   UNL     1      -1.745  -7.912  -8.255  0.00  0.00    +0.104 C 
ATOM     27  N   UNL     1      -0.500  -7.146  -8.436  0.00  0.00    -0.312 N 
ATOM     28  C   UNL     1      -0.480  -5.826  -8.228  0.00  0.00    +0.254 C 
ATOM     29  O   UNL     1       0.550  -5.203  -8.374  0.00  0.00    -0.272 OA
ATOM     30  H   UNL     1       0.311  -7.603  -8.706  0.00  0.00    +0.149 HD
ENDBRANCH  21  22
ENDBRANCH   4  21
TORSDOF 6
