REMARK  Name = ZINC14670101
REMARK  11 active torsions:
REMARK  status: ('A' for Active; 'I' for Inactive)
REMARK    1  A    between atoms: C_1  and  C_2
REMARK    2  A    between atoms: C_2  and  C_3
REMARK    3  A    between atoms: C_3  and  C_4
REMARK    4  A    between atoms: C_4  and  N_5
REMARK    5  A    between atoms: C_6  and  N_29
REMARK    6  A    between atoms: C_7  and  N_14
REMARK    7  A    between atoms: N_14  and  C_15
REMARK    8  A    between atoms: C_15  and  C_16
REMARK    9  A    between atoms: C_16  and  C_17
REMARK   10  A    between atoms: C_16  and  C_18
REMARK   11  A    between atoms: C_19  and  C_21
REMARK                            x       y       z     vdW  Elec       q    Type
REMARK                         _______ _______ _______ _____ _____    ______ ____
ROOT
ATOM      1  N   UNL     1      -1.522   3.651  -1.798  0.00  0.00    -0.280 N 
ATOM      2  C   UNL     1      -0.303   4.143  -1.392  0.00  0.00    +0.127 A 
ATOM      3  C   UNL     1       0.372   3.509  -0.369  0.00  0.00    +0.140 A 
ATOM      4  C   UNL     1      -0.209   2.375   0.228  0.00  0.00    +0.277 A 
ATOM      5  O   UNL     1       0.366   1.795   1.134  0.00  0.00    -0.266 OA
ATOM      6  N   UNL     1      -1.406   1.934  -0.207  0.00  0.00    -0.273 N 
ATOM      7  H   UNL     1      -1.822   1.131   0.220  0.00  0.00    +0.173 HD
ATOM      8  C   UNL     1      -2.047   2.562  -1.208  0.00  0.00    +0.331 A 
ATOM      9  O   UNL     1      -3.124   2.140  -1.585  0.00  0.00    -0.246 OA
ENDROOT
BRANCH   3  10
ATOM     10  N   UNL     1       1.623   3.989   0.070  0.00  0.00    -0.260 N 
ATOM     11  C   UNL     1       1.741   5.256   0.514  0.00  0.00    +0.251 C 
ATOM     12  O   UNL     1       2.834   5.696   0.814  0.00  0.00    -0.270 OA
BRANCH  11  13
ATOM     13  C   UNL     1       0.541   6.111   0.636  0.00  0.00    +0.040 A 
ATOM     14  C   UNL     1      -0.727   5.532   0.703  0.00  0.00    +0.033 A 
ATOM     15  C   UNL     1      -1.844   6.336   0.822  0.00  0.00    +0.043 A 
ATOM     16  C   UNL     1      -1.708   7.713   0.865  0.00  0.00    +0.040 A 
ATOM     17  C   UNL     1      -0.453   8.293   0.794  0.00  0.00    +0.043 A 
ATOM     18  C   UNL     1       0.672   7.499   0.680  0.00  0.00    +0.033 A 
ATOM     19 CL   UNL     1      -0.292  10.020   0.848  0.00  0.00    -0.083 Cl
ATOM     20 CL   UNL     1      -3.422   5.618   0.912  0.00  0.00    -0.083 Cl
ENDBRANCH  11  13
BRANCH  10  21
ATOM     21  C   UNL     1       2.795   3.110   0.043  0.00  0.00    +0.117 C 
BRANCH  21  22
ATOM     22  C   UNL     1       3.425   3.140  -1.351  0.00  0.00    +0.001 C 
ATOM     23  C   UNL     1       3.956   4.546  -1.640  0.00  0.00    +0.009 C 
ATOM     24  C   UNL     1       4.578   2.137  -1.412  0.00  0.00    +0.009 C 
ENDBRANCH  21  22
ENDBRANCH  10  21
ENDBRANCH   3  10
BRANCH   2  25
ATOM     25  N   UNL     1       0.235   5.253  -1.997  0.00  0.00    -0.343 N 
ATOM     26  H   UNL     1       1.132   5.543  -1.768  0.00  0.00    +0.144 HD
ATOM     27  H   UNL     1      -0.281   5.746  -2.654  0.00  0.00    +0.144 HD
ENDBRANCH   2  25
BRANCH   1  28
ATOM     28  C   UNL     1      -2.250   4.315  -2.882  0.00  0.00    +0.128 C 
BRANCH  28  29
ATOM     29  C   UNL     1      -1.842   3.699  -4.222  0.00  0.00    +0.021 C 
BRANCH  29  31
ATOM     30  C   UNL     1      -2.194   3.776  -6.694  0.00  0.00    +0.004 C 
ATOM     31  C   UNL     1      -2.602   4.392  -5.354  0.00  0.00    -0.002 C 
ENDBRANCH  29  31
ENDBRANCH  28  29
ENDBRANCH   1  28
TORSDOF 8
