REMARK  Name = ZINC18401770
REMARK  19 active torsions:
REMARK  status: ('A' for Active; 'I' for Inactive)
REMARK    1  A    between atoms: C_1  and  C_2
REMARK    2  A    between atoms: C_2  and  C_3
REMARK    3  A    between atoms: C_3  and  C_4
REMARK    4  A    between atoms: C_4  and  N_5
REMARK    5  A    between atoms: C_6  and  N_36
REMARK    6  A    between atoms: C_7  and  N_14
REMARK    7  A    between atoms: N_14  and  C_15
REMARK    8  A    between atoms: C_15  and  C_16
REMARK    9  A    between atoms: C_16  and  O_17
REMARK   10  A    between atoms: O_17  and  C_18
REMARK   11  A    between atoms: C_19  and  C_21
REMARK   12  A    between atoms: C_21  and  O_22
REMARK   13  A    between atoms: O_22  and  C_23
REMARK   14  A    between atoms: C_23  and  C_25
REMARK   15  A    between atoms: C_25  and  O_26
REMARK   16  A    between atoms: O_26  and  C_27
REMARK   17  A    between atoms: C_28  and  C_35
REMARK   18  A    between atoms: C_30  and  C_34
REMARK   19  A    between atoms: C_32  and  C_33
REMARK                            x       y       z     vdW  Elec       q    Type
REMARK                         _______ _______ _______ _____ _____    ______ ____
ROOT
ATOM      1  N   UNL     1       0.538  -3.558  -5.862  0.00  0.00    -0.259 N 
ATOM      2  C   UNL     1      -0.736  -3.117  -5.888  0.00  0.00    +0.258 C 
ATOM      3  O   UNL     1      -1.248  -2.680  -4.878  0.00  0.00    -0.272 OA
ENDROOT
BRANCH   1   6
ATOM      4  N   UNL     1       3.123  -2.485  -3.481  0.00  0.00    -0.280 N 
ATOM      5  C   UNL     1       2.396  -2.587  -4.644  0.00  0.00    +0.127 A 
ATOM      6  C   UNL     1       1.305  -3.432  -4.684  0.00  0.00    +0.140 A 
ATOM      7  C   UNL     1       0.970  -4.165  -3.530  0.00  0.00    +0.277 A 
ATOM      8  O   UNL     1       0.011  -4.918  -3.538  0.00  0.00    -0.266 OA
ATOM      9  N   UNL     1       1.716  -4.028  -2.416  0.00  0.00    -0.273 N 
ATOM     10  H   UNL     1       1.486  -4.533  -1.621  0.00  0.00    +0.173 HD
ATOM     11  C   UNL     1       2.778  -3.204  -2.397  0.00  0.00    +0.331 A 
ATOM     12  O   UNL     1       3.437  -3.103  -1.380  0.00  0.00    -0.246 OA
BRANCH   5  13
ATOM     13  N   UNL     1       2.751  -1.857  -5.752  0.00  0.00    -0.343 N 
ATOM     14  H   UNL     1       3.479  -1.219  -5.700  0.00  0.00    +0.144 HD
ATOM     15  H   UNL     1       2.272  -1.979  -6.588  0.00  0.00    +0.144 HD
ENDBRANCH   5  13
BRANCH   4  16
ATOM     16  C   UNL     1       4.283  -1.593  -3.424  0.00  0.00    +0.128 C 
BRANCH  16  17
ATOM     17  C   UNL     1       5.537  -2.359  -3.848  0.00  0.00    +0.021 C 
BRANCH  17  19
ATOM     18  C   UNL     1       8.004  -2.193  -4.213  0.00  0.00    +0.004 C 
ATOM     19  C   UNL     1       6.749  -1.427  -3.788  0.00  0.00    -0.002 C 
ENDBRANCH  17  19
ENDBRANCH  16  17
ENDBRANCH   4  16
ENDBRANCH   1   6
BRANCH   1  20
ATOM     20  C   UNL     1       1.127  -4.169  -7.057  0.00  0.00    +0.142 C 
BRANCH  20  21
ATOM     21  C   UNL     1       0.946  -5.687  -6.996  0.00  0.00    +0.178 C 
BRANCH  21  22
ATOM     22  O   UNL     1      -0.446  -6.003  -7.056  0.00  0.00    -0.381 OA
ATOM     23  C   UNL     1      -0.726  -7.404  -7.006  0.00  0.00    +0.194 C 
ENDBRANCH  21  22
ENDBRANCH  20  21
ENDBRANCH   1  20
BRANCH   2  24
ATOM     24  C   UNL     1      -1.525  -3.167  -7.172  0.00  0.00    +0.328 C 
BRANCH  24  25
ATOM     25  O   UNL     1      -2.837  -2.648  -6.945  0.00  0.00    -0.453 OA
BRANCH  25  26
ATOM     26  C   UNL     1      -3.672  -2.622  -7.995  0.00  0.00    +0.346 C 
ATOM     27  O   UNL     1      -3.301  -3.026  -9.072  0.00  0.00    -0.247 OA
BRANCH  26  28
ATOM     28  C   UNL     1      -5.072  -2.088  -7.832  0.00  0.00    +0.349 C 
BRANCH  28  29
ATOM     29  O   UNL     1      -5.760  -2.165  -9.083  0.00  0.00    -0.480 OA
BRANCH  29  30
ATOM     30  C   UNL     1      -7.044  -1.721  -9.109  0.00  0.00    +0.127 A 
ATOM     31  C   UNL     1      -8.087  -2.594  -8.836  0.00  0.00    -0.008 A 
ATOM     32  C   UNL     1      -9.391  -2.139  -8.863  0.00  0.00    +0.010 A 
ATOM     33  C   UNL     1      -9.657  -0.816  -9.162  0.00  0.00    -0.050 A 
ATOM     34  C   UNL     1      -8.620   0.056  -9.434  0.00  0.00    +0.010 A 
ATOM     35  C   UNL     1      -7.313  -0.392  -9.403  0.00  0.00    -0.008 A 
ATOM     36  C   UNL     1      -6.182   0.560  -9.694  0.00  0.00    +0.047 C 
ATOM     37  C   UNL     1     -11.081  -0.323  -9.191  0.00  0.00    +0.044 C 
ATOM     38  C   UNL     1      -7.797  -4.037  -8.512  0.00  0.00    +0.047 C 
ENDBRANCH  29  30
ENDBRANCH  28  29
ENDBRANCH  26  28
ENDBRANCH  25  26
ENDBRANCH  24  25
ENDBRANCH   2  24
TORSDOF 14
