REMARK  Name = ZINC14677429
REMARK  6 active torsions:
REMARK  status: ('A' for Active; 'I' for Inactive)
REMARK    1  A    between atoms: C_6  and  C_7
REMARK    2  A    between atoms: C_9  and  C_12
REMARK    3  A    between atoms: C_12  and  O_13
REMARK    4  A    between atoms: O_13  and  C_14
REMARK    5  A    between atoms: C_14  and  C_16
REMARK    6  A    between atoms: C_18  and  N_24
REMARK                            x       y       z     vdW  Elec       q    Type
REMARK                         _______ _______ _______ _____ _____    ______ ____
ROOT
ATOM      1  O   UNL     1      -0.170   4.119   0.026  0.00  0.00    -0.454 OA
ENDROOT
BRANCH   1   2
ATOM      2  C   UNL     1       1.029   3.506   0.011  0.00  0.00    +0.360 C 
ATOM      3  O   UNL     1       2.049   4.166   0.005  0.00  0.00    -0.243 OA
BRANCH   2   4
ATOM      4  C   UNL     1       1.104   2.029   0.002  0.00  0.00    +0.169 A 
ATOM      5  C   UNL     1       2.347   1.401  -0.013  0.00  0.00    +0.095 A 
ATOM      6  C   UNL     1       2.400   0.007  -0.020  0.00  0.00    +0.067 A 
ATOM      7  C   UNL     1       1.200  -0.701  -0.013  0.00  0.00    +0.100 A 
ATOM      8  C   UNL     1       0.002  -0.004   0.002  0.00  0.00    +0.150 A 
ATOM      9  N   UNL     1      -0.016   1.312   0.009  0.00  0.00    -0.226 NA
ATOM     10 CL   UNL     1      -1.497  -0.880   0.012  0.00  0.00    -0.060 Cl
ATOM     11 CL   UNL     1       1.205  -2.437  -0.022  0.00  0.00    -0.078 Cl
ATOM     12 CL   UNL     1       3.808   2.339  -0.022  0.00  0.00    -0.079 Cl
BRANCH   6  13
ATOM     13  N   UNL     1       3.623  -0.661  -0.036  0.00  0.00    -0.356 N 
ATOM     14  H   UNL     1       3.649  -1.761  -0.041  0.00  0.00    +0.142 HD
ATOM     15  H   UNL     1       4.563  -0.089  -0.042  0.00  0.00    +0.142 HD
ENDBRANCH   6  13
ENDBRANCH   2   4
ENDBRANCH   1   2
BRANCH   1  16
ATOM     16  C   UNL     1      -0.167   5.571   0.034  0.00  0.00    +0.288 C 
BRANCH  16  19
ATOM     17  C   UNL     1      -3.065   7.837   0.073  0.00  0.00    +0.109 A 
ATOM     18  N   UNL     1      -1.826   7.366   0.065  0.00  0.00    -0.241 NA
ATOM     19  C   UNL     1      -1.587   6.076   0.050  0.00  0.00    +0.086 A 
ATOM     20  C   UNL     1      -2.623   5.195   0.055  0.00  0.00    +0.074 A 
ATOM     21  S   UNL     1      -4.013   6.321   0.074  0.00  0.00    -0.075 S 
BRANCH  17  27
ATOM     22  C   UNL     1      -2.616  10.287   0.087  0.00  0.00    +0.012 A 
ATOM     23  C   UNL     1      -3.062  11.592   0.094  0.00  0.00    +0.020 A 
ATOM     24  C   UNL     1      -4.420  11.863   0.109  0.00  0.00    +0.041 A 
ATOM     25  C   UNL     1      -5.338  10.826   0.112  0.00  0.00    +0.020 A 
ATOM     26  C   UNL     1      -4.904   9.517   0.100  0.00  0.00    +0.012 A 
ATOM     27  C   UNL     1      -3.537   9.238   0.085  0.00  0.00    +0.007 A 
ATOM     28 CL   UNL     1      -4.974  13.508   0.125  0.00  0.00    -0.084 Cl
ENDBRANCH  17  27
ENDBRANCH  16  19
ENDBRANCH   1  16
TORSDOF 6
