REMARK  Name = ZINC30870901
REMARK  7 active torsions:
REMARK  status: ('A' for Active; 'I' for Inactive)
REMARK    1  A    between atoms: C_1  and  C_2
REMARK    2  A    between atoms: C_5  and  S_7
REMARK    3  A    between atoms: S_7  and  N_10
REMARK    4  A    between atoms: C_14  and  C_17
REMARK    5  A    between atoms: N_19  and  C_20
REMARK    6  A    between atoms: C_20  and  C_21
REMARK    7  A    between atoms: C_21  and  C_22
REMARK                            x       y       z     vdW  Elec       q    Type
REMARK                         _______ _______ _______ _____ _____    ______ ____
ROOT
ATOM      1  N   UNL     1      -4.861  -6.300  -3.369  0.00  0.00    -0.175 NA
ATOM      2  C   UNL     1      -6.141  -5.579  -3.388  0.00  0.00    +0.109 C 
ATOM      3  C   UNL     1      -6.181  -4.616  -2.197  0.00  0.00    +0.018 C 
ATOM      4  C   UNL     1      -4.949  -3.709  -2.236  0.00  0.00    +0.015 C 
ATOM      5  C   UNL     1      -3.683  -4.562  -2.125  0.00  0.00    +0.091 C 
ATOM      6  C   UNL     1      -3.614  -5.525  -3.315  0.00  0.00    +0.122 C 
ENDROOT
BRANCH   5   7
ATOM      7  C   UNL     1      -2.471  -3.666  -2.132  0.00  0.00    +0.217 C 
ATOM      8  O   UNL     1      -1.633  -3.786  -3.001  0.00  0.00    -0.275 OA
ATOM      9  N   UNL     1      -2.318  -2.733  -1.172  0.00  0.00    -0.315 N 
ATOM     10  H   UNL     1      -3.077  -2.624  -0.384  0.00  0.00    +0.149 HD
BRANCH   9  11
ATOM     11  C   UNL     1      -1.139  -1.862  -1.179  0.00  0.00    +0.110 C 
BRANCH  11  12
ATOM     12  C   UNL     1      -1.210  -0.900   0.009  0.00  0.00    +0.075 C 
BRANCH  12  13
ATOM     13  C   UNL     1       0.002  -0.004   0.002  0.00  0.00    +0.062 A 
ATOM     14  C   UNL     1      -0.016   1.347   0.009  0.00  0.00    +0.116 A 
ATOM     15  N   UNL     1       1.285   1.769  -0.001  0.00  0.00    -0.306 N 
ATOM     16  C   UNL     1       1.854   3.010   0.000  0.00  0.00    +0.092 A 
ATOM     17  C   UNL     1       3.196   3.151  -0.012  0.00  0.00    +0.018 A 
ATOM     18  C   UNL     1       4.027   2.019  -0.026  0.00  0.00    +0.005 A 
ATOM     19  C   UNL     1       3.474   0.776  -0.027  0.00  0.00    +0.047 A 
ATOM     20  C   UNL     1       2.071   0.645  -0.014  0.00  0.00    +0.138 A 
ATOM     21  N   UNL     1       1.273  -0.413  -0.012  0.00  0.00    -0.233 NA
ENDBRANCH  12  13
ENDBRANCH  11  12
ENDBRANCH   9  11
ENDBRANCH   5   7
BRANCH   1  22
ATOM     22  S   UNL     1      -4.824  -7.955  -3.407  0.00  0.00    +0.067 S 
ATOM     23  O   UNL     1      -6.044  -8.374  -4.003  0.00  0.00    -0.152 OA
ATOM     24  O   UNL     1      -3.555  -8.321  -3.931  0.00  0.00    -0.152 OA
BRANCH  22  29
ATOM     25  C   UNL     1      -3.959  -9.790   2.150  0.00  0.00    +0.051 C 
ATOM     26  C   UNL     1      -4.446  -9.351   0.793  0.00  0.00    -0.011 A 
ATOM     27  C   UNL     1      -5.718  -9.238   0.338  0.00  0.00    +0.013 A 
ATOM     28  C   UNL     1      -5.930  -8.805  -0.957  0.00  0.00    +0.036 A 
ATOM     29  C   UNL     1      -4.860  -8.516  -1.738  0.00  0.00    +0.143 A 
ATOM     30  S   UNL     1      -3.498  -8.844  -0.632  0.00  0.00    -0.074 S 
ENDBRANCH  22  29
ENDBRANCH   1  22
TORSDOF 6
