REMARK  Name = ZINC12247555
REMARK  12 active torsions:
REMARK  status: ('A' for Active; 'I' for Inactive)
REMARK    1  A    between atoms: C_1  and  C_2
REMARK    2  A    between atoms: C_2  and  N_3
REMARK    3  A    between atoms: N_3  and  C_4
REMARK    4  A    between atoms: C_4  and  C_5
REMARK    5  A    between atoms: C_11  and  C_13
REMARK    6  A    between atoms: C_13  and  C_14
REMARK    7  A    between atoms: C_14  and  C_31
REMARK    8  A    between atoms: N_18  and  C_21
REMARK    9  A    between atoms: C_21  and  C_22
REMARK   10  A    between atoms: C_22  and  C_23
REMARK   11  A    between atoms: C_23  and  O_24
REMARK   12  A    between atoms: O_24  and  C_25
REMARK                            x       y       z     vdW  Elec       q    Type
REMARK                         _______ _______ _______ _____ _____    ______ ____
ROOT
ATOM      1  C   UNL     1      -0.018   1.509   0.010  0.00  0.00    +0.089 C 
ATOM      2  C   UNL     1       1.476   1.891  -0.002  0.00  0.00    +0.117 C 
ATOM      3  C   UNL     1       2.183   0.553  -0.016  0.00  0.00    +0.223 C 
ATOM      4  O   UNL     1       3.385   0.395  -0.029  0.00  0.00    -0.275 OA
ATOM      5  N   UNL     1       1.272  -0.427  -0.012  0.00  0.00    -0.241 N 
ATOM      6  C   UNL     1       0.002  -0.004   0.002  0.00  0.00    +0.233 C 
ATOM      7  O   UNL     1      -0.977  -0.720   0.008  0.00  0.00    -0.274 OA
ENDROOT
BRANCH   1   8
ATOM      8  C   UNL     1      -0.711   2.037  -1.220  0.00  0.00    -0.032 A 
ATOM      9  C   UNL     1      -1.835   2.832  -1.093  0.00  0.00    +0.005 A 
ATOM     10  C   UNL     1      -2.467   3.319  -2.221  0.00  0.00    +0.000 A 
ATOM     11  C   UNL     1      -1.982   3.004  -3.476  0.00  0.00    +0.000 A 
ATOM     12  C   UNL     1      -0.861   2.205  -3.603  0.00  0.00    +0.000 A 
ATOM     13  C   UNL     1      -0.226   1.721  -2.475  0.00  0.00    +0.005 A 
ENDBRANCH   1   8
BRANCH   1  14
ATOM     14  C   UNL     1      -0.697   2.031   1.278  0.00  0.00    +0.117 C 
BRANCH  14  16
ATOM     15  N   UNL     1      -2.923   1.893   2.349  0.00  0.00    -0.299 N 
ATOM     16  C   UNL     1      -2.126   1.553   1.316  0.00  0.00    +0.217 C 
ATOM     17  O   UNL     1      -2.558   0.862   0.418  0.00  0.00    -0.276 OA
BRANCH  15  19
ATOM     18  C   UNL     1      -2.634   4.202   3.101  0.00  0.00    +0.024 C 
ATOM     19  C   UNL     1      -2.400   2.727   3.434  0.00  0.00    +0.104 C 
ENDBRANCH  15  19
BRANCH  15  20
ATOM     20  C   UNL     1      -4.312   1.428   2.386  0.00  0.00    +0.139 C 
BRANCH  20  21
ATOM     21  C   UNL     1      -4.379   0.081   3.110  0.00  0.00    +0.136 C 
ATOM     22  C   UNL     1      -5.820  -0.472   3.053  0.00  0.00    +0.035 C 
ATOM     23  C   UNL     1      -5.992  -1.088   4.468  0.00  0.00    +0.031 C 
ATOM     24  C   UNL     1      -5.150  -0.106   5.321  0.00  0.00    +0.160 C 
ATOM     25  O   UNL     1      -4.035   0.253   4.489  0.00  0.00    -0.375 OA
ENDBRANCH  20  21
ENDBRANCH  15  20
ENDBRANCH  14  16
ENDBRANCH   1  14
BRANCH   5  26
ATOM     26  C   UNL     1       1.635  -1.847  -0.024  0.00  0.00    +0.120 C 
BRANCH  26  27
ATOM     27  C   UNL     1       1.747  -2.333  -1.470  0.00  0.00    +0.060 C 
BRANCH  27  28
ATOM     28  C   UNL     1       2.126  -3.815  -1.481  0.00  0.00    +0.230 C 
BRANCH  28  29
ATOM     29  O   UNL     1       2.231  -4.270  -2.832  0.00  0.00    -0.490 OA
BRANCH  29  30
ATOM     30  C   UNL     1       2.563  -5.574  -3.020  0.00  0.00    +0.139 A 
ATOM     31  C   UNL     1       2.679  -6.094  -4.306  0.00  0.00    +0.048 A 
ATOM     32  C   UNL     1       3.026  -7.428  -4.447  0.00  0.00    +0.023 A 
ATOM     33  C   UNL     1       3.231  -8.196  -3.316  0.00  0.00    +0.111 A 
ATOM     34  N   UNL     1       3.107  -7.673  -2.112  0.00  0.00    -0.260 NA
ATOM     35  C   UNL     1       2.785  -6.407  -1.934  0.00  0.00    +0.156 A 
ENDBRANCH  29  30
ENDBRANCH  28  29
ENDBRANCH  27  28
ENDBRANCH  26  27
ENDBRANCH   5  26
TORSDOF 11
