REMARK  Name = ZINC12197268
REMARK  7 active torsions:
REMARK  status: ('A' for Active; 'I' for Inactive)
REMARK    1  A    between atoms: C_1  and  C_2
REMARK    2  A    between atoms: C_11  and  C_12
REMARK    3  A    between atoms: C_12  and  N_57
REMARK    4  A    between atoms: C_13  and  N_57
REMARK    5  A    between atoms: C_14  and  C_15
REMARK    6  A    between atoms: C_14  and  N_57
REMARK    7  A    between atoms: C_16  and  C_23
REMARK                            x       y       z     vdW  Elec       q    Type
REMARK                         _______ _______ _______ _____ _____    ______ ____
ROOT
ATOM      1  C   UNL     1       0.248   3.903  -0.018  0.00  0.00    -0.022 C 
ENDROOT
BRANCH   1   2
ATOM      2  C   UNL     1       1.070   2.663   0.222  0.00  0.00    +0.040 A 
ATOM      3  C   UNL     1       2.401   2.523  -0.019  0.00  0.00    +0.146 A 
ATOM      4  N   UNL     1       2.757   1.260   0.331  0.00  0.00    -0.216 NA
ATOM      5  C   UNL     1       1.703   0.638   0.767  0.00  0.00    +0.178 A 
ATOM      6  N   UNL     1       0.606   1.462   0.727  0.00  0.00    -0.299 N 
ATOM      7  C   UNL     1      -0.589   0.930   1.165  0.00  0.00    +0.100 A 
ATOM      8  C   UNL     1      -0.657  -0.326   1.603  0.00  0.00    +0.067 A 
ATOM      9  S   UNL     1       1.033  -0.874   1.421  0.00  0.00    -0.058 S 
BRANCH   3  10
ATOM     10  C   UNL     1       3.298   3.558  -0.563  0.00  0.00    +0.267 C 
ATOM     11  O   UNL     1       2.885   4.688  -0.742  0.00  0.00    -0.268 OA
ATOM     12  N   UNL     1       4.577   3.252  -0.861  0.00  0.00    -0.296 N 
ATOM     13  C   UNL     1       5.053   1.865  -0.780  0.00  0.00    +0.108 C 
ATOM     14  C   UNL     1       5.696   1.489  -2.124  0.00  0.00    +0.019 C 
ATOM     15  C   UNL     1       6.785   2.509  -2.465  0.00  0.00    +0.003 C 
ATOM     16  C   UNL     1       6.159   3.899  -2.602  0.00  0.00    +0.019 C 
ATOM     17  C   UNL     1       5.521   4.301  -1.269  0.00  0.00    +0.108 C 
ENDBRANCH   3  10
ENDBRANCH   1   2
BRANCH   1  19
ATOM     18  C   UNL     1       1.609   5.259   1.457  0.00  0.00    -0.095 C 
ATOM     19  N   UNL     1       0.253   4.723   1.212  0.00  0.00    +0.385 N 
ATOM     20  H   UNL     1      -0.021   4.134   2.007  0.00  0.00    -0.081 HD
BRANCH  19  21
ATOM     21  C   UNL     1      -0.714   5.834   1.083  0.00  0.00    -0.024 C 
BRANCH  21  32
ATOM     22  C   UNL     1      -2.399   4.530   3.340  0.00  0.00    +0.046 C 
ATOM     23  C   UNL     1      -1.686   5.855   3.417  0.00  0.00    -0.024 A 
ATOM     24  C   UNL     1      -1.659   6.765   4.565  0.00  0.00    +0.003 A 
ATOM     25  C   UNL     1      -2.218   6.729   5.844  0.00  0.00    +0.010 A 
ATOM     26  C   UNL     1      -1.999   7.765   6.709  0.00  0.00    +0.001 A 
ATOM     27  C   UNL     1      -1.227   8.852   6.325  0.00  0.00    +0.002 A 
ATOM     28  C   UNL     1      -0.666   8.908   5.068  0.00  0.00    +0.026 A 
ATOM     29  C   UNL     1      -0.875   7.864   4.172  0.00  0.00    +0.047 A 
ATOM     30  N   UNL     1      -0.458   7.625   2.881  0.00  0.00    -0.359 N 
ATOM     31  H   UNL     1       0.102   8.219   2.358  0.00  0.00    +0.166 HD
ATOM     32  C   UNL     1      -0.956   6.427   2.447  0.00  0.00    +0.003 A 
ENDBRANCH  21  32
ENDBRANCH  19  21
ENDBRANCH   1  19
TORSDOF 5
