REMARK  Name = ZINC38597970
REMARK  9 active torsions:
REMARK  status: ('A' for Active; 'I' for Inactive)
REMARK    1  A    between atoms: C_1  and  C_2
REMARK    2  A    between atoms: C_4  and  N_35
REMARK    3  A    between atoms: C_7  and  N_8
REMARK    4  A    between atoms: C_9  and  C_11
REMARK    5  A    between atoms: N_13  and  C_14
REMARK    6  A    between atoms: C_14  and  C_15
REMARK    7  A    between atoms: C_15  and  C_17
REMARK    8  A    between atoms: C_15  and  N_22
REMARK    9  A    between atoms: N_25  and  C_28
REMARK                            x       y       z     vdW  Elec       q    Type
REMARK                         _______ _______ _______ _____ _____    ______ ____
ROOT
ATOM      1  C   UNL     1       0.224  -1.197   8.222  0.00  0.00    +0.017 C 
ENDROOT
BRANCH   1   2
ATOM      2  N   UNL     1       1.362  -2.113   8.069  0.00  0.00    +0.389 N 
ATOM      3  C   UNL     1       1.319  -3.126   9.131  0.00  0.00    -0.059 C 
ATOM      4  C   UNL     1       2.566  -4.012   9.041  0.00  0.00    +0.086 C 
ATOM      5  N   UNL     1       2.650  -4.562   7.679  0.00  0.00    -0.333 N 
ATOM      6  C   UNL     1       2.536  -3.631   6.546  0.00  0.00    +0.086 C 
ATOM      7  C   UNL     1       1.291  -2.763   6.754  0.00  0.00    -0.059 C 
ATOM      8  H   UNL     1       2.223  -1.592   8.139  0.00  0.00    -0.081 HD
BRANCH   5   9
ATOM      9  C   UNL     1       2.832  -5.933   7.468  0.00  0.00    +0.030 A 
ATOM     10  C   UNL     1       3.033  -6.417   6.182  0.00  0.00    +0.026 A 
ATOM     11  C   UNL     1       3.213  -7.771   5.975  0.00  0.00    +0.040 A 
ATOM     12  C   UNL     1       3.193  -8.645   7.049  0.00  0.00    +0.124 A 
ATOM     13  C   UNL     1       2.993  -8.164   8.332  0.00  0.00    +0.040 A 
ATOM     14  C   UNL     1       2.818  -6.810   8.544  0.00  0.00    +0.026 A 
ATOM     15  F   UNL     1       3.369  -9.969   6.845  0.00  0.00    -0.205 F 
ENDBRANCH   5   9
ENDBRANCH   1   2
BRANCH   1  16
ATOM     16  C   UNL     1       0.348  -0.456   9.528  0.00  0.00    +0.093 A 
ATOM     17  C   UNL     1      -0.661  -0.172  10.371  0.00  0.00    +0.043 A 
ATOM     18  C   UNL     1      -0.099   0.530  11.462  0.00  0.00    +0.041 A 
ATOM     19  C   UNL     1       1.221   0.633  11.221  0.00  0.00    +0.195 A 
ATOM     20  O   UNL     1       1.486   0.029  10.051  0.00  0.00    -0.469 OA
ENDBRANCH   1  16
BRANCH   1  21
ATOM     21  C   UNL     1       0.215  -0.196   7.066  0.00  0.00    +0.097 C 
BRANCH  21  24
ATOM     22  C   UNL     1       1.709   1.475   6.108  0.00  0.00    +0.299 C 
ATOM     23  O   UNL     1       0.805   1.819   5.375  0.00  0.00    -0.265 OA
ATOM     24  N   UNL     1       1.516   0.475   6.991  0.00  0.00    -0.309 N 
ATOM     25  H   UNL     1       2.238   0.200   7.577  0.00  0.00    +0.149 HD
BRANCH  22  27
ATOM     26  N   UNL     1       3.228   3.158   5.149  0.00  0.00    -0.278 N 
ATOM     27  C   UNL     1       3.034   2.159   6.032  0.00  0.00    +0.303 C 
ATOM     28  O   UNL     1       3.938   1.814   6.766  0.00  0.00    -0.265 OA
ATOM     29  H   UNL     1       2.487   3.481   4.612  0.00  0.00    +0.155 HD
BRANCH  26  36
ATOM     30  C   UNL     1       4.022   4.038   2.563  0.00  0.00    +0.046 C 
ATOM     31  C   UNL     1       4.923   4.174   3.763  0.00  0.00    -0.027 A 
ATOM     32  C   UNL     1       6.174   4.744   3.628  0.00  0.00    +0.038 A 
ATOM     33  C   UNL     1       7.001   4.869   4.729  0.00  0.00    +0.127 A 
ATOM     34  C   UNL     1       6.580   4.423   5.969  0.00  0.00    +0.034 A 
ATOM     35  C   UNL     1       5.331   3.852   6.111  0.00  0.00    +0.026 A 
ATOM     36  C   UNL     1       4.494   3.731   5.008  0.00  0.00    +0.037 A 
BRANCH  33  37
ATOM     37  N   UNL     1       8.340   5.481   4.580  0.00  0.00    +0.056 N 
ATOM     38  O   UNL     1       8.710   5.871   3.497  0.00  0.00    -0.126 OA
ATOM     39  O   UNL     1       9.065   5.591   5.542  0.00  0.00    -0.126 OA
ENDBRANCH  33  37
ENDBRANCH  26  36
ENDBRANCH  22  27
ENDBRANCH  21  24
ENDBRANCH   1  21
TORSDOF 8
