REMARK  Name = ZINC63270824
REMARK  12 active torsions:
REMARK  status: ('A' for Active; 'I' for Inactive)
REMARK    1  A    between atoms: C_1  and  C_2
REMARK    2  A    between atoms: C_2  and  C_4
REMARK    3  A    between atoms: C_2  and  N_10
REMARK    4  A    between atoms: C_4  and  C_5
REMARK    5  A    between atoms: C_5  and  C_6
REMARK    6  A    between atoms: C_6  and  C_7
REMARK    7  A    between atoms: C_7  and  C_8
REMARK    8  A    between atoms: C_7  and  C_9
REMARK    9  A    between atoms: C_11  and  C_13
REMARK   10  A    between atoms: C_13  and  C_14
REMARK   11  A    between atoms: C_14  and  C_15
REMARK   12  A    between atoms: C_15  and  N_16
REMARK                            x       y       z     vdW  Elec       q    Type
REMARK                         _______ _______ _______ _____ _____    ______ ____
ROOT
ATOM      1  N   UNL     1      -0.379  -1.774   7.127  0.00  0.00    -0.299 N 
ATOM      2  C   UNL     1       0.052  -2.201   8.331  0.00  0.00    +0.302 C 
ATOM      3  O   UNL     1       1.188  -2.616   8.457  0.00  0.00    -0.253 OA
ATOM      4  N   UNL     1      -0.776  -2.168   9.394  0.00  0.00    -0.283 N 
ATOM      5  C   UNL     1      -2.179  -1.783   9.209  0.00  0.00    +0.114 C 
ATOM      6  C   UNL     1      -3.092  -2.917   9.710  0.00  0.00    +0.052 C 
ATOM      7  C   UNL     1      -2.542  -3.359  11.043  0.00  0.00    -0.036 C 
ATOM      8  C   UNL     1      -3.123  -3.508  12.227  0.00  0.00    -0.001 A 
ATOM      9  C   UNL     1      -4.530  -3.404  12.647  0.00  0.00    +0.010 A 
ATOM     10  C   UNL     1      -4.776  -3.602  13.969  0.00  0.00    +0.001 A 
ATOM     11  C   UNL     1      -3.777  -3.890  14.904  0.00  0.00    +0.002 A 
ATOM     12  C   UNL     1      -2.459  -4.012  14.604  0.00  0.00    +0.026 A 
ATOM     13  C   UNL     1      -2.076  -3.834  13.243  0.00  0.00    +0.043 A 
ATOM     14  N   UNL     1      -0.907  -3.916  12.680  0.00  0.00    -0.376 N 
ATOM     15  C   UNL     1      -1.073  -3.716  11.240  0.00  0.00    +0.124 C 
ATOM     16  C   UNL     1      -0.264  -2.526  10.726  0.00  0.00    +0.138 C 
ATOM     17  H   UNL     1      -1.306  -1.511   7.009  0.00  0.00    +0.150 HD
ATOM     18  H   UNL     1      -0.068  -4.081  13.137  0.00  0.00    +0.160 HD
ENDROOT
BRANCH   1  19
ATOM     19  C   UNL     1       0.551  -1.706   5.997  0.00  0.00    +0.106 C 
BRANCH  19  20
ATOM     20  C   UNL     1      -0.187  -1.193   4.759  0.00  0.00    +0.028 C 
BRANCH  20  21
ATOM     21  C   UNL     1       0.784  -1.122   3.579  0.00  0.00    +0.097 C 
BRANCH  21  23
ATOM     22  N   UNL     1       0.718  -0.472   1.194  0.00  0.00    -0.313 N 
ATOM     23  C   UNL     1       0.058  -0.617   2.360  0.00  0.00    +0.213 C 
ATOM     24  O   UNL     1      -1.121  -0.341   2.428  0.00  0.00    -0.276 OA
ATOM     25  H   UNL     1       1.661  -0.693   1.139  0.00  0.00    +0.149 HD
BRANCH  22  27
ATOM     26  C   UNL     1      -0.004   1.549   0.021  0.00  0.00    +0.028 C 
ATOM     27  C   UNL     1       0.011   0.019   0.008  0.00  0.00    +0.070 C 
BRANCH  27  28
ATOM     28  C   UNL     1       0.725  -0.473  -1.252  0.00  0.00    +0.022 C 
BRANCH  28  29
ATOM     29  C   UNL     1       0.632  -1.998  -1.328  0.00  0.00    +0.002 C 
BRANCH  29  30
ATOM     30  C   UNL     1       1.346  -2.491  -2.588  0.00  0.00    +0.003 C 
BRANCH  30  31
ATOM     31  C   UNL     1       1.253  -4.016  -2.664  0.00  0.00    -0.017 C 
ATOM     32  C   UNL     1       1.857  -4.499  -3.984  0.00  0.00    +0.007 C 
ATOM     33  C   UNL     1       2.023  -4.633  -1.495  0.00  0.00    +0.007 C 
ENDBRANCH  30  31
ENDBRANCH  29  30
ENDBRANCH  28  29
ENDBRANCH  27  28
ENDBRANCH  22  27
ENDBRANCH  21  23
ENDBRANCH  20  21
ENDBRANCH  19  20
ENDBRANCH   1  19
TORSDOF 9
