REMARK  Name = ZINC20681473
REMARK  6 active torsions:
REMARK  status: ('A' for Active; 'I' for Inactive)
REMARK    1  A    between atoms: C_1  and  C_2
REMARK    2  A    between atoms: N_4  and  C_5
REMARK    3  A    between atoms: N_4  and  C_6
REMARK    4  A    between atoms: C_19  and  C_22
REMARK    5  A    between atoms: C_25  and  O_29
REMARK    6  A    between atoms: C_27  and  O_28
REMARK                            x       y       z     vdW  Elec       q    Type
REMARK                         _______ _______ _______ _____ _____    ______ ____
ROOT
ATOM      1  C   UNL     1      -5.236   3.235   1.955  0.00  0.00    +0.036 A 
ATOM      2  C   UNL     1      -4.925   3.226   3.308  0.00  0.00    +0.025 A 
ATOM      3  C   UNL     1      -3.766   2.621   3.747  0.00  0.00    +0.025 A 
ATOM      4  C   UNL     1      -2.901   2.016   2.842  0.00  0.00    +0.031 A 
ATOM      5  C   UNL     1      -3.210   2.032   1.483  0.00  0.00    -0.018 A 
ATOM      6  C   UNL     1      -4.380   2.628   1.045  0.00  0.00    +0.029 A 
ATOM      7  C   UNL     1      -2.288   1.344   0.553  0.00  0.00    +0.049 C 
ATOM      8  C   UNL     1      -2.175   1.740  -0.874  0.00  0.00    -0.023 C 
ATOM      9  C   UNL     1      -0.927   1.529  -1.275  0.00  0.00    -0.030 C 
ATOM     10  C   UNL     1      -0.087   0.997  -0.113  0.00  0.00    +0.033 C 
ATOM     11  C   UNL     1      -0.843   1.559   1.099  0.00  0.00    +0.029 C 
ATOM     12  C   UNL     1      -0.774   0.762   2.389  0.00  0.00    +0.108 C 
ATOM     13  N   UNL     1      -1.722   1.422   3.314  0.00  0.00    -0.336 N 
ATOM     14  H   UNL     1      -1.507   1.452   4.393  0.00  0.00    +0.147 HD
ENDROOT
BRANCH  12  15
ATOM     15  C   UNL     1       0.623   0.805   2.953  0.00  0.00    +0.015 A 
ATOM     16  C   UNL     1       0.927   1.678   3.980  0.00  0.00    +0.012 A 
ATOM     17  C   UNL     1       2.205   1.716   4.503  0.00  0.00    +0.046 A 
ATOM     18  C   UNL     1       3.190   0.883   3.990  0.00  0.00    +0.120 A 
ATOM     19  C   UNL     1       2.889   0.010   2.956  0.00  0.00    +0.091 A 
ATOM     20  C   UNL     1       1.604  -0.030   2.437  0.00  0.00    +0.125 A 
BRANCH  20  21
ATOM     21  O   UNL     1       1.306  -0.884   1.424  0.00  0.00    -0.506 OA
ATOM     22  H   UNL     1       2.084  -1.546   1.015  0.00  0.00    +0.292 HD
ENDBRANCH  20  21
BRANCH  18  23
ATOM     23  O   UNL     1       4.449   0.924   4.501  0.00  0.00    -0.507 OA
ATOM     24  H   UNL     1       5.229   0.264   4.094  0.00  0.00    +0.292 HD
ENDBRANCH  18  23
ENDBRANCH  12  15
BRANCH   1  28
ATOM     25  C   UNL     1      -8.627   4.874   1.923  0.00  0.00    +0.109 C 
ATOM     26  C   UNL     1      -7.311   4.316   2.400  0.00  0.00    +0.216 C 
ATOM     27  O   UNL     1      -7.061   4.280   3.587  0.00  0.00    -0.276 OA
ATOM     28  N   UNL     1      -6.411   3.856   1.508  0.00  0.00    -0.275 N 
ATOM     29  C   UNL     1      -6.661   4.004   0.072  0.00  0.00    +0.138 C 
ENDBRANCH   1  28
TORSDOF 4
