REMARK  Name = ZINC41585293
REMARK  6 active torsions:
REMARK  status: ('A' for Active; 'I' for Inactive)
REMARK    1  A    between atoms: C_3  and  C_10
REMARK    2  A    between atoms: C_5  and  N_7
REMARK    3  A    between atoms: C_17  and  O_35
REMARK    4  A    between atoms: C_18  and  C_21
REMARK    5  A    between atoms: C_21  and  N_22
REMARK    6  A    between atoms: N_25  and  C_28
REMARK                            x       y       z     vdW  Elec       q    Type
REMARK                         _______ _______ _______ _____ _____    ______ ____
ROOT
ATOM      1  C   UNL     1       3.669   2.160  -0.038  0.00  0.00    +0.058 C 
ATOM      2  C   UNL     1       3.646   3.513  -0.120  0.00  0.00    +0.176 C 
ATOM      3  C   UNL     1       4.816   4.398  -0.234  0.00  0.00    +0.231 C 
ATOM      4  O   UNL     1       5.992   4.079  -0.275  0.00  0.00    -0.283 OA
ATOM      5  C   UNL     1       4.248   5.757  -0.289  0.00  0.00    +0.068 A 
ATOM      6  C   UNL     1       4.818   7.027  -0.396  0.00  0.00    +0.019 A 
ATOM      7  C   UNL     1       4.016   8.133  -0.424  0.00  0.00    +0.046 A 
ATOM      8  C   UNL     1       2.633   7.996  -0.344  0.00  0.00    +0.125 A 
ATOM      9  C   UNL     1       2.054   6.742  -0.237  0.00  0.00    +0.051 A 
ATOM     10  C   UNL     1       2.854   5.607  -0.209  0.00  0.00    +0.147 A 
ATOM     11  O   UNL     1       2.541   4.296  -0.118  0.00  0.00    -0.451 OA
ENDROOT
BRANCH   1  14
ATOM     12  C   UNL     1       0.007   1.354  -0.029  0.00  0.00    +0.003 A 
ATOM     13  C   UNL     1       1.183   2.073  -0.018  0.00  0.00    +0.008 A 
ATOM     14  C   UNL     1       2.410   1.401  -0.049  0.00  0.00    -0.019 A 
ATOM     15  C   UNL     1       2.432   0.002  -0.092  0.00  0.00    +0.040 A 
ATOM     16  C   UNL     1       1.247  -0.702  -0.103  0.00  0.00    +0.127 A 
ATOM     17  C   UNL     1       0.037  -0.029  -0.071  0.00  0.00    +0.033 A 
BRANCH  16  18
ATOM     18  N   UNL     1       1.268  -2.181  -0.148  0.00  0.00    +0.056 N 
ATOM     19  O   UNL     1       2.323  -2.770  -0.176  0.00  0.00    -0.126 OA
ATOM     20  O   UNL     1       0.229  -2.800  -0.157  0.00  0.00    -0.126 OA
ENDBRANCH  16  18
ENDBRANCH   1  14
BRANCH   8  21
ATOM     21  O   UNL     1       1.845   9.101  -0.372  0.00  0.00    -0.506 OA
ATOM     22  H   UNL     1       1.572   9.367  -1.261  0.00  0.00    +0.292 HD
ENDBRANCH   8  21
BRANCH   9  23
ATOM     23  C   UNL     1       0.555   6.610  -0.152  0.00  0.00    +0.127 C 
BRANCH  23  24
ATOM     24  N   UNL     1      -0.003   6.481  -1.505  0.00  0.00    -0.295 NA
ATOM     25  C   UNL     1       0.202   7.713  -2.278  0.00  0.00    +0.103 C 
ATOM     26  C   UNL     1      -0.228   7.479  -3.730  0.00  0.00    +0.120 C 
ATOM     27  N   UNL     1      -1.606   6.966  -3.732  0.00  0.00    -0.327 N 
ATOM     28  C   UNL     1      -1.921   5.814  -2.873  0.00  0.00    +0.120 C 
ATOM     29  C   UNL     1      -1.425   6.114  -1.455  0.00  0.00    +0.103 C 
BRANCH  27  30
ATOM     30  C   UNL     1      -2.590   7.556  -4.529  0.00  0.00    +0.031 A 
ATOM     31  C   UNL     1      -3.912   7.142  -4.425  0.00  0.00    +0.023 A 
ATOM     32  C   UNL     1      -4.882   7.728  -5.213  0.00  0.00    +0.003 A 
ATOM     33  C   UNL     1      -4.540   8.726  -6.107  0.00  0.00    +0.020 A 
ATOM     34  C   UNL     1      -3.224   9.142  -6.214  0.00  0.00    +0.043 A 
ATOM     35  C   UNL     1      -2.249   8.563  -5.423  0.00  0.00    +0.043 A 
ATOM     36 CL   UNL     1      -2.799  10.395  -7.338  0.00  0.00    -0.083 Cl
ENDBRANCH  27  30
ENDBRANCH  23  24
ENDBRANCH   9  23
TORSDOF 6
