REMARK  Name = ZINC63864637
REMARK  9 active torsions:
REMARK  status: ('A' for Active; 'I' for Inactive)
REMARK    1  A    between atoms: C_7  and  C_10
REMARK    2  A    between atoms: C_10  and  C_11
REMARK    3  A    between atoms: C_11  and  C_13
REMARK    4  A    between atoms: C_11  and  N_26
REMARK    5  A    between atoms: C_13  and  O_15
REMARK    6  A    between atoms: O_15  and  C_16
REMARK    7  A    between atoms: C_16  and  C_17
REMARK    8  A    between atoms: C_17  and  C_19
REMARK    9  A    between atoms: C_27  and  C_29
REMARK                            x       y       z     vdW  Elec       q    Type
REMARK                         _______ _______ _______ _____ _____    ______ ____
ROOT
ATOM      1  C   UNL     1       0.457  -3.653  -1.462  0.00  0.00    +0.186 C 
ENDROOT
BRANCH   1   2
ATOM      2  N   UNL     1      -0.238  -2.603  -2.210  0.00  0.00    -0.298 N 
ATOM      3  C   UNL     1       0.465  -1.608  -2.785  0.00  0.00    +0.246 C 
ATOM      4  O   UNL     1       1.677  -1.582  -2.683  0.00  0.00    -0.270 OA
ATOM      5  H   UNL     1      -1.204  -2.624  -2.292  0.00  0.00    +0.150 HD
BRANCH   3   6
ATOM      6  C   UNL     1      -0.235  -0.548  -3.540  0.00  0.00    +0.055 A 
ATOM      7  C   UNL     1      -1.627  -0.572  -3.655  0.00  0.00    +0.014 A 
ATOM      8  C   UNL     1      -2.275   0.421  -4.360  0.00  0.00    +0.001 A 
ATOM      9  C   UNL     1      -1.549   1.438  -4.955  0.00  0.00    +0.001 A 
ATOM     10  C   UNL     1      -0.171   1.469  -4.847  0.00  0.00    +0.021 A 
ATOM     11  C   UNL     1       0.491   0.485  -4.138  0.00  0.00    +0.053 A 
ATOM     12 CL   UNL     1       2.220   0.528  -3.996  0.00  0.00    -0.083 Cl
ENDBRANCH   3   6
ENDBRANCH   1   2
BRANCH   1  13
ATOM     13  C   UNL     1      -0.385  -4.904  -1.452  0.00  0.00    +0.328 C 
ATOM     14  O   UNL     1      -1.455  -4.916  -2.014  0.00  0.00    -0.249 OA
BRANCH  13  15
ATOM     15  O   UNL     1       0.055  -6.004  -0.821  0.00  0.00    -0.455 OA
BRANCH  15  16
ATOM     16  C   UNL     1      -0.794  -7.153  -0.853  0.00  0.00    +0.311 C 
BRANCH  16  17
ATOM     17  C   UNL     1      -0.141  -8.281  -0.098  0.00  0.00    +0.203 C 
ATOM     18  O   UNL     1       0.945  -8.118   0.417  0.00  0.00    -0.288 OA
BRANCH  17  19
ATOM     19  C   UNL     1      -0.819  -9.580   0.015  0.00  0.00    +0.056 A 
ATOM     20  C   UNL     1      -2.070  -9.775  -0.582  0.00  0.00    +0.014 A 
ATOM     21  C   UNL     1      -2.700 -10.995  -0.472  0.00  0.00    +0.001 A 
ATOM     22  C   UNL     1      -2.100 -12.030   0.228  0.00  0.00    +0.003 A 
ATOM     23  C   UNL     1      -0.865 -11.848   0.822  0.00  0.00    +0.039 A 
ATOM     24  C   UNL     1      -0.215 -10.632   0.716  0.00  0.00    +0.134 A 
ATOM     25  F   UNL     1       0.995 -10.457   1.292  0.00  0.00    -0.205 F 
ENDBRANCH  17  19
ENDBRANCH  16  17
ENDBRANCH  15  16
ENDBRANCH  13  15
ENDBRANCH   1  13
BRANCH   1  26
ATOM     26  C   UNL     1       0.691  -3.186  -0.024  0.00  0.00    +0.067 C 
BRANCH  26  33
ATOM     27  C   UNL     1      -0.016   1.348   0.009  0.00  0.00    +0.001 A 
ATOM     28  C   UNL     1       1.166   2.101   0.002  0.00  0.00    +0.002 A 
ATOM     29  C   UNL     1       2.391   1.535  -0.013  0.00  0.00    +0.026 A 
ATOM     30  C   UNL     1       2.529   0.120  -0.022  0.00  0.00    +0.043 A 
ATOM     31  N   UNL     1       3.587  -0.654  -0.037  0.00  0.00    -0.380 N 
ATOM     32  C   UNL     1       3.143  -2.053  -0.041  0.00  0.00    +0.144 C 
ATOM     33  C   UNL     1       1.631  -2.008  -0.025  0.00  0.00    -0.039 C 
ATOM     34  C   UNL     1       1.295  -0.698  -0.014  0.00  0.00    -0.001 A 
ATOM     35  C   UNL     1       0.002  -0.004   0.002  0.00  0.00    +0.010 A 
ATOM     36  H   UNL     1       4.509  -0.353  -0.045  0.00  0.00    +0.160 HD
ENDBRANCH  26  33
ENDBRANCH   1  26
TORSDOF 9
