REMARK  Name = ZINC16345900
REMARK  5 active torsions:
REMARK  status: ('A' for Active; 'I' for Inactive)
REMARK    1  A    between atoms: C_3  and  S_9
REMARK    2  A    between atoms: S_9  and  N_12
REMARK    3  A    between atoms: N_15  and  C_18
REMARK    4  A    between atoms: C_18  and  C_19
REMARK    5  A    between atoms: C_24  and  O_25
REMARK                            x       y       z     vdW  Elec       q    Type
REMARK                         _______ _______ _______ _____ _____    ______ ____
ROOT
ATOM      1  N   UNL     1       0.064   1.702   1.054  0.00  0.00    -0.174 NA
ATOM      2  C   UNL     1       0.696   1.379  -0.234  0.00  0.00    +0.125 C 
ATOM      3  C   UNL     1      -0.270   1.754  -1.363  0.00  0.00    +0.102 C 
ATOM      4  N   UNL     1      -0.680   3.156  -1.208  0.00  0.00    -0.296 NA
ATOM      5  C   UNL     1      -1.418   3.359   0.046  0.00  0.00    +0.102 C 
ATOM      6  C   UNL     1      -0.499   3.050   1.232  0.00  0.00    +0.125 C 
ENDROOT
BRANCH   1   7
ATOM      7  S   UNL     1      -0.016   0.579   2.267  0.00  0.00    +0.062 S 
ATOM      8  O   UNL     1      -1.108   0.953   3.095  0.00  0.00    -0.153 OA
ATOM      9  O   UNL     1       0.066  -0.697   1.645  0.00  0.00    -0.153 OA
BRANCH   7  12
ATOM     10  C   UNL     1       2.487   1.314   5.323  0.00  0.00    +0.003 A 
ATOM     11  C   UNL     1       1.345   1.173   4.557  0.00  0.00    +0.030 A 
ATOM     12  C   UNL     1       1.440   0.759   3.242  0.00  0.00    +0.125 A 
ATOM     13  C   UNL     1       2.679   0.481   2.692  0.00  0.00    +0.086 A 
ATOM     14  C   UNL     1       3.824   0.628   3.458  0.00  0.00    +0.061 A 
ATOM     15  C   UNL     1       3.726   1.042   4.774  0.00  0.00    +0.021 A 
ATOM     16 CL   UNL     1       5.380   0.286   2.768  0.00  0.00    -0.082 Cl
ATOM     17 CL   UNL     1       2.799  -0.046   1.043  0.00  0.00    -0.080 Cl
ENDBRANCH   7  12
ENDBRANCH   1   7
BRANCH   4  18
ATOM     18  C   UNL     1      -1.469   3.605  -2.363  0.00  0.00    +0.123 C 
BRANCH  18  19
ATOM     19  C   UNL     1      -1.952   5.012  -2.124  0.00  0.00    +0.012 A 
ATOM     20  C   UNL     1      -3.280   5.242  -1.813  0.00  0.00    +0.058 A 
ATOM     21  C   UNL     1      -3.726   6.534  -1.587  0.00  0.00    +0.167 A 
ATOM     22  C   UNL     1      -2.838   7.603  -1.685  0.00  0.00    +0.170 A 
ATOM     23  C   UNL     1      -1.510   7.370  -2.002  0.00  0.00    +0.095 A 
ATOM     24  C   UNL     1      -1.067   6.074  -2.222  0.00  0.00    +0.125 A 
ATOM     25  O   UNL     1      -3.517   8.759  -1.427  0.00  0.00    -0.452 OA
ATOM     26  C   UNL     1      -4.732   8.353  -0.770  0.00  0.00    +0.466 C 
ATOM     27  O   UNL     1      -4.961   7.021  -1.267  0.00  0.00    -0.453 OA
BRANCH  24  28
ATOM     28  O   UNL     1       0.237   5.846  -2.534  0.00  0.00    -0.506 OA
ATOM     29  H   UNL     1       0.940   6.689  -2.611  0.00  0.00    +0.292 HD
ENDBRANCH  24  28
ENDBRANCH  18  19
ENDBRANCH   4  18
TORSDOF 5
