REMARK  Name = ZINC13776494
REMARK  11 active torsions:
REMARK  status: ('A' for Active; 'I' for Inactive)
REMARK    1  A    between atoms: C_1  and  C_2
REMARK    2  A    between atoms: C_2  and  C_4
REMARK    3  A    between atoms: C_2  and  O_35
REMARK    4  A    between atoms: C_4  and  N_5
REMARK    5  A    between atoms: N_5  and  C_6
REMARK    6  A    between atoms: C_6  and  C_7
REMARK    7  A    between atoms: C_7  and  C_9
REMARK    8  A    between atoms: C_7  and  O_10
REMARK    9  A    between atoms: C_17  and  C_21
REMARK   10  A    between atoms: C_31  and  S_33
REMARK   11  A    between atoms: S_33  and  C_34
REMARK                            x       y       z     vdW  Elec       q    Type
REMARK                         _______ _______ _______ _____ _____    ______ ____
ROOT
ATOM      1  N   UNL     1       2.496   1.679  -6.536  0.00  0.00    -0.309 N 
ATOM      2  C   UNL     1       2.460   1.798  -5.155  0.00  0.00    +0.140 A 
ATOM      3  C   UNL     1       1.427   2.482  -4.527  0.00  0.00    +0.080 A 
ATOM      4  C   UNL     1       1.385   2.606  -3.135  0.00  0.00    +0.094 A 
ATOM      5  C   UNL     1       0.238   3.353  -2.587  0.00  0.00    +0.037 A 
ATOM      6  C   UNL     1      -0.044   3.625  -1.228  0.00  0.00    -0.030 A 
ATOM      7  C   UNL     1      -1.159   4.338  -0.902  0.00  0.00    -0.018 A 
ATOM      8  C   UNL     1      -2.015   4.794  -1.912  0.00  0.00    +0.076 A 
ATOM      9  N   UNL     1      -1.745   4.537  -3.185  0.00  0.00    -0.239 NA
ATOM     10  C   UNL     1      -0.677   3.852  -3.531  0.00  0.00    +0.112 A 
ATOM     11  S   UNL     1      -0.018   3.334  -5.097  0.00  0.00    -0.064 S 
ATOM     12  C   UNL     1      -1.246   4.499   0.602  0.00  0.00    +0.038 C 
ATOM     13  C   UNL     1       0.173   4.173   1.125  0.00  0.00    +0.009 C 
ATOM     14  C   UNL     1       0.718   3.242   0.020  0.00  0.00    +0.036 C 
ATOM     15  N   UNL     1       2.401   2.025  -2.454  0.00  0.00    -0.221 NA
ATOM     16  C   UNL     1       3.366   1.385  -3.079  0.00  0.00    +0.190 A 
ATOM     17  N   UNL     1       3.416   1.261  -4.400  0.00  0.00    -0.206 NA
ENDROOT
BRANCH   8  18
ATOM     18  C   UNL     1      -3.228   5.569  -1.556  0.00  0.00    +0.001 A 
ATOM     19  C   UNL     1      -3.934   5.269  -0.393  0.00  0.00    +0.010 A 
ATOM     20  C   UNL     1      -5.060   5.996  -0.065  0.00  0.00    +0.001 A 
ATOM     21  C   UNL     1      -5.494   7.015  -0.894  0.00  0.00    +0.000 A 
ATOM     22  C   UNL     1      -4.800   7.315  -2.052  0.00  0.00    +0.001 A 
ATOM     23  C   UNL     1      -3.670   6.597  -2.388  0.00  0.00    +0.010 A 
ENDBRANCH   8  18
BRANCH  16  24
ATOM     24  S   UNL     1       4.651   0.658  -2.118  0.00  0.00    -0.089 S 
ATOM     25  C   UNL     1       4.099   1.116  -0.456  0.00  0.00    +0.093 C 
ENDBRANCH  16  24
BRANCH   1  26
ATOM     26  C   UNL     1       3.676   0.918  -6.968  0.00  0.00    +0.137 C 
BRANCH  26  28
ATOM     27  C   UNL     1       5.045   0.222  -8.939  0.00  0.00    +0.039 C 
ATOM     28  C   UNL     1       3.803   0.995  -8.491  0.00  0.00    +0.129 C 
BRANCH  28  29
ATOM     29  O   UNL     1       3.922   2.361  -8.891  0.00  0.00    -0.391 OA
ATOM     30  H   UNL     1       4.690   2.815  -8.518  0.00  0.00    +0.210 HD
ENDBRANCH  28  29
ENDBRANCH  26  28
ENDBRANCH   1  26
BRANCH   1  31
ATOM     31  C   UNL     1       1.261   1.067  -7.043  0.00  0.00    +0.137 C 
BRANCH  31  32
ATOM     32  C   UNL     1       1.166  -0.377  -6.546  0.00  0.00    +0.129 C 
ATOM     33  C   UNL     1      -0.045  -1.058  -7.188  0.00  0.00    +0.039 C 
BRANCH  32  34
ATOM     34  O   UNL     1       1.018  -0.383  -5.125  0.00  0.00    -0.391 OA
ATOM     35  H   UNL     1       1.031  -1.267  -4.732  0.00  0.00    +0.210 HD
ENDBRANCH  32  34
ENDBRANCH  31  32
ENDBRANCH   1  31
TORSDOF 8
