REMARK  Name = ZINC04029527
REMARK  7 active torsions:
REMARK  status: ('A' for Active; 'I' for Inactive)
REMARK    1  A    between atoms: C_1  and  C_2
REMARK    2  A    between atoms: C_5  and  C_8
REMARK    3  A    between atoms: C_9  and  C_10
REMARK    4  A    between atoms: C_10  and  C_12
REMARK    5  A    between atoms: C_15  and  O_21
REMARK    6  A    between atoms: O_21  and  C_22
REMARK    7  A    between atoms: C_26  and  N_50
REMARK                            x       y       z     vdW  Elec       q    Type
REMARK                         _______ _______ _______ _____ _____    ______ ____
ROOT
ATOM      1  C   UNL     1      -4.610   0.386   1.676  0.00  0.00    +0.071 A 
ATOM      2  C   UNL     1      -4.308   1.573   0.992  0.00  0.00    -0.030 A 
ATOM      3  C   UNL     1      -3.001   1.961   0.839  0.00  0.00    -0.015 A 
ATOM      4  C   UNL     1      -1.974   1.163   1.348  0.00  0.00    +0.167 A 
ATOM      5  C   UNL     1      -2.260  -0.014   2.026  0.00  0.00    +0.208 A 
ATOM      6  C   UNL     1      -3.580  -0.409   2.195  0.00  0.00    +0.181 A 
ATOM      7  O   UNL     1      -3.603  -1.584   2.885  0.00  0.00    -0.452 OA
ATOM      8  C   UNL     1      -2.302  -1.698   3.493  0.00  0.00    +0.467 C 
ATOM      9  O   UNL     1      -1.448  -0.944   2.612  0.00  0.00    -0.449 OA
ATOM     10  C   UNL     1      -2.627   3.236   0.129  0.00  0.00    -0.039 C 
ATOM     11  C   UNL     1      -4.967   3.816   0.138  0.00  0.00    -0.074 C 
ATOM     12  C   UNL     1      -5.448   2.393   0.444  0.00  0.00    +0.018 C 
ATOM     13  C   UNL     1      -3.429   5.014  -1.302  0.00  0.00    -0.096 C 
ATOM     14  N   UNL     1      -3.754   3.703  -0.697  0.00  0.00    +0.381 N 
ATOM     15  H   UNL     1      -3.925   3.022  -1.446  0.00  0.00    -0.082 HD
ENDROOT
BRANCH   1  16
ATOM     16  C   UNL     1      -6.015  -0.025   1.850  0.00  0.00    +0.190 C 
ATOM     17  O   UNL     1      -6.912   0.665   1.400  0.00  0.00    -0.287 OA
BRANCH  16  19
ATOM     18  C   UNL     1      -7.619  -1.640   2.723  0.00  0.00    +0.012 C 
ATOM     19  C   UNL     1      -6.332  -1.263   2.563  0.00  0.00    +0.052 C 
BRANCH  18  24
ATOM     20  C   UNL     1      -8.864  -6.502   5.525  0.00  0.00    +0.044 C 
ATOM     21  C   UNL     1      -8.537  -5.228   4.791  0.00  0.00    -0.050 A 
ATOM     22  C   UNL     1      -9.559  -4.446   4.280  0.00  0.00    +0.004 A 
ATOM     23  C   UNL     1      -9.269  -3.278   3.607  0.00  0.00    +0.008 A 
ATOM     24  C   UNL     1      -7.937  -2.885   3.440  0.00  0.00    -0.025 A 
ATOM     25  C   UNL     1      -6.910  -3.683   3.954  0.00  0.00    +0.008 A 
ATOM     26  C   UNL     1      -7.217  -4.845   4.630  0.00  0.00    +0.004 A 
ENDBRANCH  18  24
ENDBRANCH  16  19
ENDBRANCH   1  16
BRANCH   4  27
ATOM     27  O   UNL     1      -0.682   1.547   1.184  0.00  0.00    -0.491 OA
ATOM     28  C   UNL     1      -0.013   1.086   0.008  0.00  0.00    +0.277 C 
ENDBRANCH   4  27
TORSDOF 4
