REMARK  Name = ZINC36390217
REMARK  15 active torsions:
REMARK  status: ('A' for Active; 'I' for Inactive)
REMARK    1  A    between atoms: C_1  and  C_2
REMARK    2  A    between atoms: C_7  and  N_12
REMARK    3  A    between atoms: C_9  and  C_11
REMARK    4  A    between atoms: C_14  and  C_19
REMARK    5  A    between atoms: N_21  and  C_22
REMARK    6  A    between atoms: N_21  and  C_27
REMARK    7  A    between atoms: C_22  and  C_23
REMARK    8  A    between atoms: C_23  and  C_24
REMARK    9  A    between atoms: C_24  and  O_25
REMARK   10  A    between atoms: O_25  and  C_26
REMARK   11  A    between atoms: C_28  and  N_40
REMARK   12  A    between atoms: N_29  and  C_36
REMARK   13  A    between atoms: C_36  and  C_37
REMARK   14  A    between atoms: C_37  and  C_38
REMARK   15  A    between atoms: C_37  and  C_39
REMARK                            x       y       z     vdW  Elec       q    Type
REMARK                         _______ _______ _______ _____ _____    ______ ____
ROOT
ATOM      1  C   UNL     1       1.594  -4.309   5.702  0.00  0.00    +0.225 C 
ATOM      2  O   UNL     1       0.480  -4.111   6.141  0.00  0.00    -0.275 OA
ATOM      3  N   UNL     1       2.603  -4.627   6.539  0.00  0.00    -0.264 N 
ENDROOT
BRANCH   3   4
ATOM      4  C   UNL     1       2.388  -4.632   7.933  0.00  0.00    +0.140 A 
ATOM      5  C   UNL     1       1.983  -3.485   8.585  0.00  0.00    +0.127 A 
ATOM      6  N   UNL     1       1.780  -3.522   9.945  0.00  0.00    -0.280 N 
ATOM      7  C   UNL     1       1.975  -4.662  10.632  0.00  0.00    +0.331 A 
ATOM      8  O   UNL     1       1.790  -4.674  11.834  0.00  0.00    -0.246 OA
ATOM      9  N   UNL     1       2.369  -5.790  10.014  0.00  0.00    -0.273 N 
ATOM     10  H   UNL     1       2.502  -6.599  10.531  0.00  0.00    +0.173 HD
ATOM     11  C   UNL     1       2.576  -5.809   8.682  0.00  0.00    +0.277 A 
ATOM     12  O   UNL     1       2.929  -6.837   8.131  0.00  0.00    -0.266 OA
BRANCH   5  13
ATOM     13  N   UNL     1       1.784  -2.320   7.884  0.00  0.00    -0.343 N 
ATOM     14  H   UNL     1       2.015  -2.275   6.943  0.00  0.00    +0.144 HD
ATOM     15  H   UNL     1       1.414  -1.543   8.330  0.00  0.00    +0.144 HD
ENDBRANCH   5  13
BRANCH   6  16
ATOM     16  C   UNL     1       1.351  -2.312  10.650  0.00  0.00    +0.131 C 
BRANCH  16  17
ATOM     17  C   UNL     1      -0.178  -2.255  10.681  0.00  0.00    +0.003 C 
ATOM     18  C   UNL     1      -0.715  -3.420  11.513  0.00  0.00    +0.009 C 
ATOM     19  C   UNL     1      -0.627  -0.932  11.306  0.00  0.00    +0.009 C 
ENDBRANCH  16  17
ENDBRANCH   6  16
ENDBRANCH   3   4
BRANCH   1  22
ATOM     20  N   UNL     1       0.982  -2.933   2.378  0.00  0.00    -0.297 N 
ATOM     21  C   UNL     1       0.557  -3.827   3.462  0.00  0.00    +0.121 C 
ATOM     22  C   UNL     1       1.850  -4.199   4.221  0.00  0.00    +0.101 C 
ATOM     23  C   UNL     1       2.760  -2.990   3.904  0.00  0.00    +0.110 C 
ATOM     24  C   UNL     1       2.216  -2.449   2.600  0.00  0.00    +0.217 C 
ATOM     25  O   UNL     1       2.806  -1.687   1.864  0.00  0.00    -0.276 OA
BRANCH  20  31
ATOM     26  C   UNL     1      -1.176   0.734  -0.139  0.00  0.00    +0.008 C 
ATOM     27  C   UNL     1      -0.928  -0.775  -0.083  0.00  0.00    -0.009 C 
ATOM     28  C   UNL     1      -0.191  -1.218  -1.348  0.00  0.00    +0.003 C 
ATOM     29  C   UNL     1       0.057  -2.727  -1.292  0.00  0.00    +0.002 C 
ATOM     30  C   UNL     1       0.906  -3.059  -0.063  0.00  0.00    +0.023 C 
ATOM     31  C   UNL     1       0.169  -2.615   1.202  0.00  0.00    +0.079 C 
ATOM     32  C   UNL     1      -0.079  -1.107   1.146  0.00  0.00    +0.009 C 
ATOM     33  C   UNL     1      -0.816  -0.663   2.411  0.00  0.00    +0.009 C 
ENDBRANCH  20  31
ENDBRANCH   1  22
BRANCH   3  34
ATOM     34  C   UNL     1       3.923  -4.966   6.000  0.00  0.00    +0.116 C 
BRANCH  34  35
ATOM     35  C   UNL     1       4.814  -3.723   6.012  0.00  0.00    +0.047 C 
BRANCH  35  36
ATOM     36  C   UNL     1       6.192  -4.077   5.449  0.00  0.00    +0.161 C 
BRANCH  36  37
ATOM     37  O   UNL     1       7.024  -2.916   5.460  0.00  0.00    -0.383 OA
ATOM     38  C   UNL     1       8.341  -3.140   4.952  0.00  0.00    +0.193 C 
ENDBRANCH  36  37
ENDBRANCH  35  36
ENDBRANCH  34  35
ENDBRANCH   3  34
TORSDOF 10
