REMARK  Name = ZINC41586252
REMARK  9 active torsions:
REMARK  status: ('A' for Active; 'I' for Inactive)
REMARK    1  A    between atoms: C_1  and  C_2
REMARK    2  A    between atoms: C_2  and  O_3
REMARK    3  A    between atoms: O_3  and  C_4
REMARK    4  A    between atoms: C_4  and  C_6
REMARK    5  A    between atoms: N_9  and  C_12
REMARK    6  A    between atoms: C_12  and  C_13
REMARK    7  A    between atoms: C_14  and  O_30
REMARK    8  A    between atoms: C_21  and  C_22
REMARK    9  A    between atoms: C_25  and  C_27
REMARK                            x       y       z     vdW  Elec       q    Type
REMARK                         _______ _______ _______ _____ _____    ______ ____
ROOT
ATOM      1  C   UNL     1       4.319  -6.080  -4.334  0.00  0.00    +0.020 A 
ATOM      2  C   UNL     1       5.471  -6.626  -3.791  0.00  0.00    +0.122 A 
ATOM      3  C   UNL     1       5.740  -7.985  -3.923  0.00  0.00    +0.046 A 
ATOM      4  C   UNL     1       4.867  -8.798  -4.590  0.00  0.00    +0.019 A 
ATOM      5  C   UNL     1       3.703  -8.263  -5.140  0.00  0.00    +0.068 A 
ATOM      6  C   UNL     1       3.419  -6.893  -5.008  0.00  0.00    +0.144 A 
ATOM      7  O   UNL     1       2.242  -6.632  -5.616  0.00  0.00    -0.451 OA
ATOM      8  C   UNL     1       1.702  -7.752  -6.152  0.00  0.00    +0.179 C 
ATOM      9  C   UNL     1       0.520  -7.822  -6.830  0.00  0.00    +0.096 C 
ATOM     10  C   UNL     1       2.581  -8.841  -5.900  0.00  0.00    +0.232 C 
ATOM     11  O   UNL     1       2.431 -10.005  -6.230  0.00  0.00    -0.283 OA
ENDROOT
BRANCH   9  12
ATOM     12  C   UNL     1      -0.025  -9.080  -7.171  0.00  0.00    +0.132 A 
ATOM     13  C   UNL     1      -1.130  -9.298  -7.972  0.00  0.00    +0.049 A 
ATOM     14  C   UNL     1      -1.306 -10.688  -8.037  0.00  0.00    +0.045 A 
ATOM     15  C   UNL     1      -0.328 -11.251  -7.293  0.00  0.00    +0.103 A 
ATOM     16  O   UNL     1       0.444 -10.283  -6.779  0.00  0.00    -0.460 OA
ATOM     17  C   UNL     1      -0.132 -12.730  -7.081  0.00  0.00    +0.086 C 
ENDBRANCH   9  12
BRANCH   2  18
ATOM     18  O   UNL     1       6.346  -5.828  -3.127  0.00  0.00    -0.506 OA
ATOM     19  H   UNL     1       6.170  -5.754  -2.179  0.00  0.00    +0.292 HD
ENDBRANCH   2  18
BRANCH   1  20
ATOM     20  C   UNL     1       4.040  -4.606  -4.185  0.00  0.00    -0.036 C 
BRANCH  20  24
ATOM     21  C   UNL     1       1.019  -3.355  -1.452  0.00  0.00    +0.094 C 
ATOM     22  C   UNL     1       2.393  -2.680  -1.417  0.00  0.00    -0.004 C 
ATOM     23  C   UNL     1       3.113  -2.930  -2.744  0.00  0.00    -0.078 C 
ATOM     24  N   UNL     1       3.280  -4.374  -2.949  0.00  0.00    +0.383 N 
ATOM     25  C   UNL     1       1.966  -5.018  -3.056  0.00  0.00    -0.078 C 
ATOM     26  C   UNL     1       1.202  -4.848  -1.741  0.00  0.00    -0.004 C 
ATOM     27  H   UNL     1       3.784  -4.767  -2.168  0.00  0.00    -0.081 HD
BRANCH  21  28
ATOM     28  C   UNL     1       0.337  -3.179  -0.120  0.00  0.00    +0.310 C 
ATOM     29  O   UNL     1       0.028  -4.148   0.533  0.00  0.00    -0.251 OA
BRANCH  28  30
ATOM     30  O   UNL     1       0.072  -1.947   0.341  0.00  0.00    -0.465 OA
BRANCH  30  32
ATOM     31  C   UNL     1      -0.793  -0.383   1.967  0.00  0.00    +0.048 C 
ATOM     32  C   UNL     1      -0.576  -1.855   1.611  0.00  0.00    +0.229 C 
ENDBRANCH  30  32
ENDBRANCH  28  30
ENDBRANCH  21  28
ENDBRANCH  20  24
ENDBRANCH   1  20
TORSDOF 7
