REMARK  Name = ZINC33028431
REMARK  2 active torsions:
REMARK  status: ('A' for Active; 'I' for Inactive)
REMARK    1  A    between atoms: C_7  and  C_9
REMARK    2  A    between atoms: C_15  and  C_17
REMARK                            x       y       z     vdW  Elec       q    Type
REMARK                         _______ _______ _______ _____ _____    ______ ____
ROOT
ATOM      1  C   UNL     1       1.222  -1.912   3.098  0.00  0.00    +0.078 C 
ATOM      2  C   UNL     1       2.465  -2.539   2.462  0.00  0.00    +0.032 C 
ATOM      3  C   UNL     1       3.383  -3.073   3.566  0.00  0.00    +0.108 C 
ATOM      4  N   UNL     1       2.614  -3.989   4.419  0.00  0.00    -0.301 N 
ATOM      5  C   UNL     1       1.354  -3.516   5.008  0.00  0.00    +0.108 C 
ATOM      6  C   UNL     1       0.458  -2.977   3.888  0.00  0.00    +0.032 C 
ATOM      7  C   UNL     1       3.057  -5.240   4.657  0.00  0.00    +0.219 C 
ATOM      8  O   UNL     1       2.413  -5.987   5.363  0.00  0.00    -0.275 OA
ENDROOT
BRANCH   1  15
ATOM      9  C   UNL     1       0.397   2.663   1.167  0.00  0.00    +0.003 C 
ATOM     10  C   UNL     1      -0.761   1.753   0.751  0.00  0.00    +0.019 C 
ATOM     11  C   UNL     1      -0.212   0.374   0.372  0.00  0.00    +0.108 C 
ATOM     12  N   UNL     1       0.587  -0.141   1.492  0.00  0.00    -0.301 N 
ATOM     13  C   UNL     1       1.670   0.694   2.030  0.00  0.00    +0.108 C 
ATOM     14  C   UNL     1       1.100   2.069   2.390  0.00  0.00    +0.019 C 
ATOM     15  C   UNL     1       0.331  -1.356   2.016  0.00  0.00    +0.219 C 
ATOM     16  O   UNL     1      -0.615  -2.001   1.618  0.00  0.00    -0.275 OA
ENDBRANCH   1  15
BRANCH   7  17
ATOM     17  C   UNL     1       4.351  -5.710   4.046  0.00  0.00    +0.075 C 
ATOM     18  C   UNL     1       4.206  -6.198   2.595  0.00  0.00    +0.013 C 
ATOM     19  C   UNL     1       5.186  -7.326   2.958  0.00  0.00    +0.001 C 
ATOM     20  C   UNL     1       4.715  -7.159   4.413  0.00  0.00    +0.013 C 
ENDBRANCH   7  17
TORSDOF 2
