REMARK  Name = ZINC39637233
REMARK  6 active torsions:
REMARK  status: ('A' for Active; 'I' for Inactive)
REMARK    1  A    between atoms: C_1  and  C_2
REMARK    2  A    between atoms: C_7  and  N_12
REMARK    3  A    between atoms: C_9  and  C_11
REMARK    4  A    between atoms: C_13  and  C_15
REMARK    5  A    between atoms: C_26  and  C_28
REMARK    6  A    between atoms: C_30  and  C_35
REMARK                            x       y       z     vdW  Elec       q    Type
REMARK                         _______ _______ _______ _____ _____    ______ ____
ROOT
ATOM      1  C   UNL     1       3.141  -4.003   3.089  0.00  0.00    +0.100 C 
ATOM      2  C   UNL     1       4.328  -3.207   3.676  0.00  0.00    +0.121 C 
ATOM      3  N   UNL     1       5.258  -4.243   4.185  0.00  0.00    -0.296 N 
ATOM      4  C   UNL     1       5.205  -5.319   3.167  0.00  0.00    +0.115 C 
ATOM      5  C   UNL     1       3.720  -5.388   2.755  0.00  0.00    -0.004 C 
ATOM      6  C   UNL     1       3.001  -6.469   3.556  0.00  0.00    -0.010 C 
ATOM      7  C   UNL     1       3.555  -7.842   3.165  0.00  0.00    -0.082 C 
ATOM      8  N   UNL     1       3.360  -8.059   1.726  0.00  0.00    +0.379 N 
ATOM      9  C   UNL     1       4.131  -7.071   0.962  0.00  0.00    -0.082 C 
ATOM     10  C   UNL     1       3.601  -5.665   1.260  0.00  0.00    -0.010 C 
ATOM     11  C   UNL     1       5.987  -4.214   5.318  0.00  0.00    +0.247 C 
ATOM     12  O   UNL     1       5.828  -3.315   6.121  0.00  0.00    -0.270 OA
ATOM     13  H   UNL     1       3.671  -8.987   1.483  0.00  0.00    -0.086 HD
ATOM     14  H   UNL     1       2.381  -7.965   1.504  0.00  0.00    -0.086 HD
ENDROOT
BRANCH  11  15
ATOM     15  C   UNL     1       6.982  -5.275   5.585  0.00  0.00    +0.040 A 
ATOM     16  C   UNL     1       7.417  -5.516   6.889  0.00  0.00    +0.025 A 
ATOM     17  C   UNL     1       8.344  -6.508   7.133  0.00  0.00    +0.058 A 
ATOM     18  C   UNL     1       8.845  -7.263   6.088  0.00  0.00    +0.050 A 
ATOM     19  C   UNL     1       8.419  -7.029   4.790  0.00  0.00    +0.125 A 
ATOM     20  C   UNL     1       7.486  -6.043   4.535  0.00  0.00    +0.051 A 
ATOM     21  F   UNL     1       8.913  -7.770   3.774  0.00  0.00    -0.205 F 
BRANCH  17  22
ATOM     22  C   UNL     1       8.814  -6.768   8.541  0.00  0.00    +0.418 C 
ATOM     23  F   UNL     1       7.984  -7.721   9.141  0.00  0.00    -0.166 F 
ATOM     24  F   UNL     1      10.128  -7.246   8.513  0.00  0.00    -0.166 F 
ATOM     25  F   UNL     1       8.765  -5.579   9.276  0.00  0.00    -0.166 F 
ENDBRANCH  17  22
ENDBRANCH  11  15
BRANCH   1  27
ATOM     26  N   UNL     1       1.327  -3.439   1.506  0.00  0.00    -0.312 N 
ATOM     27  C   UNL     1       2.628  -3.334   1.840  0.00  0.00    +0.218 C 
ATOM     28  O   UNL     1       3.386  -2.701   1.136  0.00  0.00    -0.275 OA
ATOM     29  H   UNL     1       0.720  -3.945   2.069  0.00  0.00    +0.149 HD
BRANCH  26  35
ATOM     30  C   UNL     1      -2.688  -1.554  -0.679  0.00  0.00    +0.008 C 
ATOM     31  C   UNL     1      -1.191  -1.831  -0.828  0.00  0.00    -0.009 C 
ATOM     32  C   UNL     1      -0.959  -2.749  -2.030  0.00  0.00    +0.003 C 
ATOM     33  C   UNL     1       0.538  -3.027  -2.179  0.00  0.00    +0.002 C 
ATOM     34  C   UNL     1       1.059  -3.706  -0.911  0.00  0.00    +0.022 C 
ATOM     35  C   UNL     1       0.828  -2.788   0.291  0.00  0.00    +0.076 C 
ATOM     36  C   UNL     1      -0.670  -2.511   0.440  0.00  0.00    +0.009 C 
ATOM     37  C   UNL     1      -1.414  -3.830   0.655  0.00  0.00    +0.009 C 
ENDBRANCH  26  35
ENDBRANCH   1  27
TORSDOF 4
