REMARK  Name = ZINC39510712
REMARK  2 active torsions:
REMARK  status: ('A' for Active; 'I' for Inactive)
REMARK    1  A    between atoms: C_4  and  O_21
REMARK    2  A    between atoms: C_5  and  C_7
REMARK                            x       y       z     vdW  Elec       q    Type
REMARK                         _______ _______ _______ _____ _____    ______ ____
ROOT
ATOM      1  C   UNL     1       1.227  -2.187  -0.022  0.00  0.00    +0.024 C 
ATOM      2  C   UNL     1       0.451  -2.746   1.197  0.00  0.00    +0.010 C 
ATOM      3  C   UNL     1       0.050  -4.167   0.725  0.00  0.00    +0.025 C 
ATOM      4  C   UNL     1      -0.288  -3.986  -0.767  0.00  0.00    +0.044 C 
ATOM      5  C   UNL     1       0.459  -2.730  -1.245  0.00  0.00    +0.032 C 
ATOM      6  C   UNL     1       0.188  -5.205  -1.554  0.00  0.00    +0.078 C 
ATOM      7  C   UNL     1      -0.169  -5.025  -3.032  0.00  0.00    +0.018 C 
ATOM      8  C   UNL     1      -1.680  -4.811  -3.161  0.00  0.00    +0.017 C 
ATOM      9  C   UNL     1      -2.090  -3.588  -2.337  0.00  0.00    +0.096 C 
ATOM     10  N   UNL     1      -1.733  -3.805  -0.928  0.00  0.00    -0.240 NA
ATOM     11  I   UNL     1      -2.765  -5.395  -0.146  0.00  0.00    +0.021 I 
ATOM     12 BR   UNL     1       2.136  -5.386  -1.367  0.00  0.00    -0.086 Br
ENDROOT
BRANCH   1  17
ATOM     13  C   UNL     1      -0.017   1.378   0.010  0.00  0.00    +0.001 A 
ATOM     14  C   UNL     1       1.170   2.088   0.002  0.00  0.00    +0.004 A 
ATOM     15  C   UNL     1       2.377   1.417  -0.013  0.00  0.00    +0.046 A 
ATOM     16  C   UNL     1       2.399   0.030  -0.021  0.00  0.00    +0.120 A 
ATOM     17  C   UNL     1       1.207  -0.680  -0.013  0.00  0.00    -0.003 A 
ATOM     18  C   UNL     1       0.002  -0.004   0.002  0.00  0.00    +0.007 A 
BRANCH  16  19
ATOM     19  O   UNL     1       3.586  -0.632  -0.037  0.00  0.00    -0.506 OA
ATOM     20  H   UNL     1       3.938  -0.829   0.842  0.00  0.00    +0.292 HD
ENDBRANCH  16  19
ENDBRANCH   1  17
TORSDOF 2
