REMARK  Name = ZINC15970031
REMARK  6 active torsions:
REMARK  status: ('A' for Active; 'I' for Inactive)
REMARK    1  A    between atoms: C_1  and  C_2
REMARK    2  A    between atoms: C_2  and  C_3
REMARK    3  A    between atoms: C_3  and  C_4
REMARK    4  A    between atoms: C_4  and  N_5
REMARK    5  A    between atoms: C_10  and  C_28
REMARK    6  A    between atoms: C_28  and  C_29
REMARK                            x       y       z     vdW  Elec       q    Type
REMARK                         _______ _______ _______ _____ _____    ______ ____
ROOT
ATOM      1  N   UNL     1       1.471  -2.526   2.420  0.00  0.00    -0.242 N 
ATOM      2  C   UNL     1       2.791  -2.744   2.436  0.00  0.00    +0.227 C 
ATOM      3  O   UNL     1       3.541  -2.570   1.499  0.00  0.00    -0.275 OA
ATOM      4  C   UNL     1       3.203  -3.240   3.804  0.00  0.00    +0.107 C 
ATOM      5  C   UNL     1       3.643  -4.716   3.695  0.00  0.00    +0.072 C 
ATOM      6  N   UNL     1       2.968  -5.399   4.830  0.00  0.00    -0.295 NA
ATOM      7  C   UNL     1       1.637  -4.768   4.894  0.00  0.00    +0.136 C 
ATOM      8  C   UNL     1       1.863  -3.265   4.593  0.00  0.00    +0.122 C 
ATOM      9  C   UNL     1       0.852  -2.782   3.578  0.00  0.00    +0.228 C 
ATOM     10  O   UNL     1      -0.336  -2.650   3.781  0.00  0.00    -0.275 OA
ATOM     11  C   UNL     1       0.998  -4.965   6.239  0.00  0.00    +0.005 A 
ATOM     12  C   UNL     1       1.365  -4.622   7.521  0.00  0.00    +0.027 A 
ATOM     13  C   UNL     1       0.544  -4.950   8.587  0.00  0.00    +0.041 A 
ATOM     14  C   UNL     1      -0.645  -5.621   8.359  0.00  0.00    +0.022 A 
ATOM     15  C   UNL     1      -1.015  -5.965   7.076  0.00  0.00    +0.025 A 
ATOM     16  C   UNL     1      -0.195  -5.639   5.999  0.00  0.00    +0.039 A 
ATOM     17  N   UNL     1      -0.349  -5.875   4.630  0.00  0.00    -0.283 N 
ATOM     18  C   UNL     1       0.685  -5.395   3.913  0.00  0.00    +0.243 C 
ATOM     19  O   UNL     1       0.822  -5.457   2.709  0.00  0.00    -0.273 OA
ATOM     20 CL   UNL     1       1.004  -4.520  10.205  0.00  0.00    -0.084 Cl
ATOM     21  H   UNL     1       2.890  -6.391   4.661  0.00  0.00    +0.124 HD
ATOM     22  H   UNL     1      -1.112  -6.331   4.242  0.00  0.00    +0.155 HD
ENDROOT
BRANCH   1  23
ATOM     23  C   UNL     1       0.763  -2.041   1.233  0.00  0.00    +0.116 C 
BRANCH  23  24
ATOM     24  C   UNL     1       0.742  -0.511   1.242  0.00  0.00    +0.019 C 
BRANCH  24  26
ATOM     25  C   UNL     1      -0.019   1.526   0.010  0.00  0.00    +0.004 C 
ATOM     26  C   UNL     1       0.002  -0.004   0.002  0.00  0.00    -0.002 C 
ENDBRANCH  24  26
ENDBRANCH  23  24
ENDBRANCH   1  23
BRANCH   5  27
ATOM     27  C   UNL     1       5.162  -4.830   3.829  0.00  0.00    +0.056 C 
BRANCH  27  28
ATOM     28  C   UNL     1       5.582  -6.259   3.598  0.00  0.00    -0.021 A 
ATOM     29  C   UNL     1       5.780  -7.195   4.540  0.00  0.00    +0.087 A 
ATOM     30  N   UNL     1       6.154  -8.374   3.954  0.00  0.00    -0.360 N 
ATOM     31  H   UNL     1       6.352  -9.195   4.432  0.00  0.00    +0.165 HD
ATOM     32  C   UNL     1       6.206  -8.221   2.587  0.00  0.00    +0.047 A 
ATOM     33  C   UNL     1       5.844  -6.892   2.303  0.00  0.00    +0.003 A 
ATOM     34  C   UNL     1       5.803  -6.448   0.981  0.00  0.00    +0.010 A 
ATOM     35  C   UNL     1       6.112  -7.309  -0.034  0.00  0.00    +0.001 A 
ATOM     36  C   UNL     1       6.466  -8.623   0.240  0.00  0.00    +0.002 A 
ATOM     37  C   UNL     1       6.521  -9.080   1.539  0.00  0.00    +0.026 A 
ENDBRANCH  27  28
ENDBRANCH   5  27
TORSDOF 5
