REMARK  Name = ZINC12887915
REMARK  7 active torsions:
REMARK  status: ('A' for Active; 'I' for Inactive)
REMARK    1  A    between atoms: C_1  and  C_2
REMARK    2  A    between atoms: C_2  and  C_3
REMARK    3  A    between atoms: C_3  and  C_5
REMARK    4  A    between atoms: C_3  and  N_6
REMARK    5  A    between atoms: C_11  and  C_28
REMARK    6  A    between atoms: C_22  and  C_27
REMARK    7  A    between atoms: C_28  and  C_29
REMARK                            x       y       z     vdW  Elec       q    Type
REMARK                         _______ _______ _______ _____ _____    ______ ____
ROOT
ATOM      1  N   UNL     1       6.708  -0.525  -3.083  0.00  0.00    -0.239 N 
ATOM      2  C   UNL     1       6.159  -0.545  -1.863  0.00  0.00    +0.224 C 
ATOM      3  O   UNL     1       6.057  -1.525  -1.157  0.00  0.00    -0.275 OA
ATOM      4  C   UNL     1       5.687   0.845  -1.501  0.00  0.00    +0.073 C 
ATOM      5  C   UNL     1       4.143   0.863  -1.471  0.00  0.00    -0.053 C 
ATOM      6  C   UNL     1       4.728   2.147  -3.333  0.00  0.00    +0.050 C 
ATOM      7  C   UNL     1       6.070   1.689  -2.749  0.00  0.00    +0.088 C 
ATOM      8  C   UNL     1       6.710   0.676  -3.671  0.00  0.00    +0.225 C 
ATOM      9  O   UNL     1       7.157   0.916  -4.773  0.00  0.00    -0.275 OA
ATOM     10  C   UNL     1       4.821   3.530  -3.912  0.00  0.00    -0.027 A 
ATOM     11  C   UNL     1       5.157   4.758  -3.385  0.00  0.00    +0.004 A 
ATOM     12  C   UNL     1       5.151   5.882  -4.191  0.00  0.00    +0.001 A 
ATOM     13  C   UNL     1       4.806   5.770  -5.526  0.00  0.00    +0.005 A 
ATOM     14  C   UNL     1       4.468   4.543  -6.057  0.00  0.00    -0.029 A 
ATOM     15  C   UNL     1       4.472   3.406  -5.253  0.00  0.00    +0.039 A 
ATOM     16  N   UNL     1       4.174   2.075  -5.553  0.00  0.00    -0.286 N 
ATOM     17  C   UNL     1       4.301   1.271  -4.480  0.00  0.00    +0.211 C 
ATOM     18  O   UNL     1       4.107   0.075  -4.444  0.00  0.00    -0.277 OA
ATOM     19  C   UNL     1       4.094   4.433  -7.513  0.00  0.00    +0.045 C 
ATOM     20  H   UNL     1       3.907   1.765  -6.433  0.00  0.00    +0.155 HD
ATOM     21  N   UNL     1       3.788   2.065  -2.229  0.00  0.00    +0.394 N 
ATOM     22  H   UNL     1       3.868   2.897  -1.633  0.00  0.00    -0.083 HD
ATOM     23  H   UNL     1       2.828   1.989  -2.585  0.00  0.00    -0.083 HD
ENDROOT
BRANCH   1  24
ATOM     24  C   UNL     1       7.261  -1.722  -3.722  0.00  0.00    +0.081 C 
ATOM     25  C   UNL     1       6.161  -2.775  -3.870  0.00  0.00    +0.028 C 
BRANCH  24  27
ATOM     26  C   UNL     1       9.546  -1.280  -2.814  0.00  0.00    +0.006 C 
ATOM     27  C   UNL     1       8.393  -2.284  -2.860  0.00  0.00    +0.019 C 
ENDBRANCH  24  27
ENDBRANCH   1  24
BRANCH   5  28
ATOM     28  C   UNL     1       3.640   0.944  -0.028  0.00  0.00    +0.022 C 
BRANCH  28  29
ATOM     29  C   UNL     1       2.137   0.836  -0.014  0.00  0.00    -0.024 A 
ATOM     30  C   UNL     1       1.264   1.855   0.000  0.00  0.00    +0.087 A 
ATOM     31  N   UNL     1      -0.017   1.373   0.010  0.00  0.00    -0.360 N 
ATOM     32  H   UNL     1      -0.818   1.919   0.017  0.00  0.00    +0.165 HD
ATOM     33  C   UNL     1       0.002  -0.004   0.002  0.00  0.00    +0.047 A 
ATOM     34  C   UNL     1       1.352  -0.401  -0.013  0.00  0.00    +0.003 A 
ATOM     35  C   UNL     1       1.679  -1.758  -0.024  0.00  0.00    +0.010 A 
ATOM     36  C   UNL     1       0.685  -2.695  -0.020  0.00  0.00    +0.001 A 
ATOM     37  C   UNL     1      -0.648  -2.309  -0.005  0.00  0.00    +0.002 A 
ATOM     38  C   UNL     1      -0.993  -0.975   0.006  0.00  0.00    +0.026 A 
ENDBRANCH  28  29
ENDBRANCH   5  28
TORSDOF 4
