REMARK  Name = ZINC59305435
REMARK  6 active torsions:
REMARK  status: ('A' for Active; 'I' for Inactive)
REMARK    1  A    between atoms: C_1  and  O_2
REMARK    2  A    between atoms: O_2  and  C_3
REMARK    3  A    between atoms: C_5  and  C_11
REMARK    4  A    between atoms: C_8  and  O_9
REMARK    5  A    between atoms: N_12  and  N_13
REMARK    6  A    between atoms: C_14  and  C_16
REMARK                            x       y       z     vdW  Elec       q    Type
REMARK                         _______ _______ _______ _____ _____    ______ ____
ROOT
ATOM      1  N   UNL     1       3.544   0.540  -6.244  0.00  0.00    -0.200 N 
ATOM      2  C   UNL     1       4.142  -0.062  -7.291  0.00  0.00    +0.299 C 
ATOM      3  O   UNL     1       4.184  -1.277  -7.351  0.00  0.00    -0.265 OA
ATOM      4  H   UNL     1       3.511   1.508  -6.196  0.00  0.00    +0.178 HD
ENDROOT
BRANCH   2   5
ATOM      5  C   UNL     1       4.744   0.747  -8.359  0.00  0.00    +0.192 A 
ATOM      6  C   UNL     1       5.366   0.251  -9.460  0.00  0.00    +0.063 A 
ATOM      7  C   UNL     1       5.801   1.411 -10.236  0.00  0.00    +0.022 A 
ATOM      8  C   UNL     1       6.483   1.573 -11.445  0.00  0.00    +0.027 A 
ATOM      9  C   UNL     1       6.744   2.832 -11.912  0.00  0.00    +0.019 A 
ATOM     10  C   UNL     1       6.336   3.947 -11.192  0.00  0.00    +0.019 A 
ATOM     11  C   UNL     1       5.663   3.808  -9.998  0.00  0.00    +0.048 A 
ATOM     12  C   UNL     1       5.386   2.538  -9.504  0.00  0.00    +0.136 A 
ATOM     13  O   UNL     1       4.757   2.096  -8.397  0.00  0.00    -0.450 OA
ATOM     14 BR   UNL     1       7.667   3.054 -13.547  0.00  0.00    -0.050 Br
ENDBRANCH   2   5
BRANCH   1  16
ATOM     15  C   UNL     1       2.395   0.348  -4.217  0.00  0.00    +0.138 C 
ATOM     16  N   UNL     1       2.971  -0.232  -5.225  0.00  0.00    -0.187 NA
BRANCH  15  19
ATOM     17  C   UNL     1       0.606  -0.608  -1.056  0.00  0.00    +0.163 A 
ATOM     18  C   UNL     1       1.171   0.159  -2.059  0.00  0.00    +0.059 A 
ATOM     19  C   UNL     1       1.791  -0.464  -3.145  0.00  0.00    -0.001 A 
ATOM     20  C   UNL     1       1.838  -1.859  -3.213  0.00  0.00    +0.028 A 
ATOM     21  C   UNL     1       1.272  -2.617  -2.208  0.00  0.00    +0.063 A 
ATOM     22  C   UNL     1       0.661  -1.998  -1.127  0.00  0.00    +0.173 A 
ATOM     23 BR   UNL     1       1.336  -4.505  -2.302  0.00  0.00    -0.046 Br
BRANCH  17  25
ATOM     24  C   UNL     1      -0.017   1.425   0.010  0.00  0.00    +0.277 C 
ATOM     25  O   UNL     1       0.002  -0.004   0.002  0.00  0.00    -0.491 OA
ENDBRANCH  17  25
BRANCH  22  26
ATOM     26  O   UNL     1       0.110  -2.749  -0.138  0.00  0.00    -0.503 OA
ATOM     27  H   UNL     1      -0.819  -2.975  -0.286  0.00  0.00    +0.292 HD
ENDBRANCH  22  26
ENDBRANCH  15  19
ENDBRANCH   1  16
TORSDOF 5
