REMARK  Name = ZINC21232105
REMARK  8 active torsions:
REMARK  status: ('A' for Active; 'I' for Inactive)
REMARK    1  A    between atoms: C_1  and  C_2
REMARK    2  A    between atoms: C_2  and  N_3
REMARK    3  A    between atoms: C_13  and  S_14
REMARK    4  A    between atoms: S_14  and  C_15
REMARK    5  A    between atoms: C_15  and  C_17
REMARK    6  A    between atoms: C_15  and  C_20
REMARK    7  A    between atoms: C_17  and  C_18
REMARK    8  A    between atoms: C_17  and  C_19
REMARK                            x       y       z     vdW  Elec       q    Type
REMARK                         _______ _______ _______ _____ _____    ______ ____
ROOT
ATOM      1  N   UNL     1       1.174   2.091  -0.042  0.00  0.00    -0.288 N 
ATOM      2  C   UNL     1      -0.004   1.456  -0.243  0.00  0.00    +0.262 A 
ATOM      3  O   UNL     1      -1.062   2.057  -0.187  0.00  0.00    -0.267 OA
ATOM      4  C   UNL     1       0.040   0.017  -0.537  0.00  0.00    +0.066 A 
ATOM      5  C   UNL     1      -1.119  -0.725  -0.759  0.00  0.00    +0.030 A 
ATOM      6  C   UNL     1      -1.018  -2.072  -1.030  0.00  0.00    +0.019 A 
ATOM      7  C   UNL     1       0.225  -2.691  -1.084  0.00  0.00    +0.017 A 
ATOM      8  C   UNL     1       1.373  -1.983  -0.870  0.00  0.00    +0.029 A 
ATOM      9  C   UNL     1       1.303  -0.615  -0.592  0.00  0.00    +0.079 A 
ATOM     10  N   UNL     1       2.418   0.122  -0.374  0.00  0.00    -0.223 NA
ATOM     11  C   UNL     1       2.353   1.404  -0.113  0.00  0.00    +0.173 A 
ATOM     12 BR   UNL     1      -2.585  -3.087  -1.333  0.00  0.00    -0.050 Br
ENDROOT
BRANCH   1  14
ATOM     13  C   UNL     1       1.105   3.734   1.768  0.00  0.00    +0.027 C 
ATOM     14  C   UNL     1       1.186   3.525   0.254  0.00  0.00    +0.124 C 
ENDBRANCH   1  14
BRANCH  11  15
ATOM     15  S   UNL     1       3.855   2.284   0.158  0.00  0.00    -0.075 S 
BRANCH  15  16
ATOM     16  C   UNL     1       5.035   0.913   0.110  0.00  0.00    +0.143 C 
BRANCH  16  17
ATOM     17  C   UNL     1       4.827   0.028   1.312  0.00  0.00    +0.234 C 
ATOM     18  O   UNL     1       4.248   0.457   2.288  0.00  0.00    -0.274 OA
ATOM     19  N   UNL     1       5.284  -1.240   1.304  0.00  0.00    -0.239 N 
ATOM     20  C   UNL     1       5.097  -2.031   2.379  0.00  0.00    +0.303 C 
ATOM     21  O   UNL     1       4.517  -1.600   3.356  0.00  0.00    -0.253 OA
ATOM     22  N   UNL     1       5.554  -3.299   2.370  0.00  0.00    -0.313 N 
ATOM     23  H   UNL     1       5.808  -1.629   0.419  0.00  0.00    +0.159 HD
ATOM     24  H   UNL     1       5.401  -3.944   3.248  0.00  0.00    +0.146 HD
ATOM     25  H   UNL     1       6.078  -3.688   1.485  0.00  0.00    +0.146 HD
ENDBRANCH  16  17
BRANCH  16  26
ATOM     26  C   UNL     1       6.462   1.466   0.126  0.00  0.00    +0.005 C 
ATOM     27  C   UNL     1       7.459   0.307   0.120  0.00  0.00    +0.009 C 
ATOM     28  C   UNL     1       6.684   2.337  -1.113  0.00  0.00    +0.009 C 
ENDBRANCH  16  26
ENDBRANCH  15  16
ENDBRANCH  11  15
TORSDOF 5
