REMARK  Name = ZINC31581964
REMARK  7 active torsions:
REMARK  status: ('A' for Active; 'I' for Inactive)
REMARK    1  A    between atoms: C_1  and  C_2
REMARK    2  A    between atoms: C_2  and  C_4
REMARK    3  A    between atoms: C_2  and  N_11
REMARK    4  A    between atoms: C_12  and  C_14
REMARK    5  A    between atoms: C_14  and  N_15
REMARK    6  A    between atoms: N_18  and  S_21
REMARK    7  A    between atoms: S_21  and  C_24
REMARK                            x       y       z     vdW  Elec       q    Type
REMARK                         _______ _______ _______ _____ _____    ______ ____
ROOT
ATOM      1  N   UNL     1       4.286  -0.545  -4.406  0.00  0.00    +0.387 N 
ATOM      2  C   UNL     1       4.316   0.720  -3.659  0.00  0.00    -0.061 C 
ATOM      3  C   UNL     1       5.082   0.516  -2.348  0.00  0.00    +0.091 C 
ATOM      4  N   UNL     1       4.483  -0.617  -1.627  0.00  0.00    -0.180 NA
ATOM      5  C   UNL     1       4.299  -1.884  -2.352  0.00  0.00    +0.091 C 
ATOM      6  C   UNL     1       3.559  -1.584  -3.665  0.00  0.00    -0.061 C 
ATOM      7  H   UNL     1       5.325  -0.886  -4.528  0.00  0.00    -0.081 HD
ENDROOT
BRANCH   4   8
ATOM      8  S   UNL     1       4.034  -0.474  -0.040  0.00  0.00    +0.067 S 
ATOM      9  O   UNL     1       4.814   0.579   0.509  0.00  0.00    -0.152 OA
ATOM     10  O   UNL     1       4.036  -1.787   0.503  0.00  0.00    -0.152 OA
BRANCH   8  11
ATOM     11  C   UNL     1       2.360   0.076  -0.020  0.00  0.00    +0.144 A 
ATOM     12  C   UNL     1       1.220  -0.657  -0.013  0.00  0.00    +0.037 A 
ATOM     13  C   UNL     1       0.002  -0.004   0.002  0.00  0.00    +0.025 A 
ATOM     14  C   UNL     1      -0.016   1.352   0.009  0.00  0.00    +0.057 A 
ATOM     15  S   UNL     1       1.725   1.745  -0.005  0.00  0.00    -0.062 S 
ATOM     16 BR   UNL     1      -1.501   2.523   0.023  0.00  0.00    -0.043 Br
ENDBRANCH   8  11
ENDBRANCH   4   8
BRANCH   1  17
ATOM     17  C   UNL     1       3.712  -0.353  -5.744  0.00  0.00    +0.019 C 
BRANCH  17  19
ATOM     18  N   UNL     1       3.472  -1.654  -7.834  0.00  0.00    -0.310 N 
ATOM     19  C   UNL     1       3.920  -1.600  -6.564  0.00  0.00    +0.197 C 
ATOM     20  O   UNL     1       4.490  -2.555  -6.081  0.00  0.00    -0.278 OA
ATOM     21  H   UNL     1       2.954  -0.788  -8.272  0.00  0.00    +0.149 HD
BRANCH  18  23
ATOM     22  C   UNL     1       5.060  -2.827  -9.277  0.00  0.00    +0.033 C 
ATOM     23  C   UNL     1       3.674  -2.866  -8.631  0.00  0.00    +0.100 C 
BRANCH  23  24
ATOM     24  C   UNL     1       2.621  -2.942  -9.706  0.00  0.00    -0.027 A 
ATOM     25  C   UNL     1       2.233  -1.796 -10.375  0.00  0.00    +0.008 A 
ATOM     26  C   UNL     1       1.271  -1.865 -11.365  0.00  0.00    +0.038 A 
ATOM     27  C   UNL     1       0.688  -3.081 -11.679  0.00  0.00    +0.123 A 
ATOM     28  C   UNL     1       1.073  -4.227 -11.005  0.00  0.00    +0.038 A 
ATOM     29  C   UNL     1       2.039  -4.157 -10.019  0.00  0.00    +0.008 A 
ATOM     30  F   UNL     1      -0.257  -3.149 -12.643  0.00  0.00    -0.205 F 
ENDBRANCH  23  24
ENDBRANCH  18  23
ENDBRANCH  17  19
ENDBRANCH   1  17
TORSDOF 6
