REMARK  Name = ZINC39710413
REMARK  11 active torsions:
REMARK  status: ('A' for Active; 'I' for Inactive)
REMARK    1  A    between atoms: C_1  and  C_2
REMARK    2  A    between atoms: C_2  and  C_3
REMARK    3  A    between atoms: C_10  and  C_15
REMARK    4  A    between atoms: C_15  and  C_17
REMARK    5  A    between atoms: C_15  and  N_26
REMARK    6  A    between atoms: N_21  and  C_22
REMARK    7  A    between atoms: C_22  and  C_23
REMARK    8  A    between atoms: C_23  and  O_24
REMARK    9  A    between atoms: O_24  and  C_25
REMARK   10  A    between atoms: N_29  and  C_32
REMARK   11  A    between atoms: C_37  and  C_38
REMARK                            x       y       z     vdW  Elec       q    Type
REMARK                         _______ _______ _______ _____ _____    ______ ____
ROOT
ATOM      1  C   UNL     1       5.454  -1.170  -4.462  0.00  0.00    +0.142 C 
ENDROOT
BRANCH   1   9
ATOM      2  C   UNL     1       0.730  -1.508  -1.052  0.00  0.00    -0.047 A 
ATOM      3  C   UNL     1      -0.120  -1.583  -2.156  0.00  0.00    +0.005 A 
ATOM      4  C   UNL     1       0.334  -1.802  -3.418  0.00  0.00    +0.024 A 
ATOM      5  C   UNL     1       1.710  -1.963  -3.663  0.00  0.00    +0.040 A 
ATOM      6  N   UNL     1       2.144  -2.176  -4.906  0.00  0.00    -0.284 N 
ATOM      7  C   UNL     1       3.422  -2.337  -5.206  0.00  0.00    +0.226 C 
ATOM      8  O   UNL     1       3.758  -2.529  -6.359  0.00  0.00    -0.275 OA
ATOM      9  C   UNL     1       4.463  -2.281  -4.111  0.00  0.00    +0.123 C 
ATOM     10  C   UNL     1       3.974  -2.039  -2.696  0.00  0.00    -0.003 C 
ATOM     11  C   UNL     1       2.631  -1.889  -2.516  0.00  0.00    -0.007 A 
ATOM     12  C   UNL     1       2.075  -1.646  -1.185  0.00  0.00    +0.013 A 
ATOM     13  H   UNL     1       1.492  -2.215  -5.623  0.00  0.00    +0.155 HD
BRANCH   2  15
ATOM     14  C   UNL     1      -0.035   0.241   0.530  0.00  0.00    +0.009 C 
ATOM     15  C   UNL     1       0.145  -1.263   0.314  0.00  0.00    +0.032 C 
ENDBRANCH   2  15
ENDBRANCH   1   9
BRANCH   1  16
ATOM     16  N   UNL     1       6.046  -1.439  -5.778  0.00  0.00    -0.289 NA
ATOM     17  C   UNL     1       6.773  -2.716  -5.777  0.00  0.00    +0.104 C 
ATOM     18  C   UNL     1       7.219  -3.047  -7.205  0.00  0.00    +0.120 C 
ATOM     19  N   UNL     1       7.974  -1.902  -7.736  0.00  0.00    -0.327 N 
ATOM     20  C   UNL     1       7.367  -0.566  -7.647  0.00  0.00    +0.120 C 
ATOM     21  C   UNL     1       6.915  -0.332  -6.202  0.00  0.00    +0.104 C 
BRANCH  19  22
ATOM     22  C   UNL     1       9.236  -2.079  -8.310  0.00  0.00    +0.034 A 
ATOM     23  C   UNL     1       9.353  -2.323  -9.672  0.00  0.00    +0.043 A 
ATOM     24  C   UNL     1      10.602  -2.498 -10.236  0.00  0.00    +0.043 A 
ATOM     25  C   UNL     1      11.736  -2.430  -9.445  0.00  0.00    +0.020 A 
ATOM     26  C   UNL     1      11.621  -2.187  -8.088  0.00  0.00    +0.006 A 
ATOM     27  C   UNL     1      10.376  -2.006  -7.520  0.00  0.00    -0.029 A 
ATOM     28  C   UNL     1      10.253  -1.735  -6.042  0.00  0.00    +0.045 C 
ATOM     29 CL   UNL     1      10.750  -2.803 -11.939  0.00  0.00    -0.083 Cl
ENDBRANCH  19  22
ENDBRANCH   1  16
BRANCH   1  30
ATOM     30  C   UNL     1       6.543  -1.121  -3.421  0.00  0.00    +0.170 A 
ATOM     31  N   UNL     1       7.387  -2.080  -3.126  0.00  0.00    -0.112 NA
ATOM     32  N   UNL     1       8.160  -1.654  -2.187  0.00  0.00    -0.023 NA
ATOM     33  N   UNL     1       7.831  -0.449  -1.876  0.00  0.00    -0.044 NA
ATOM     34  N   UNL     1       6.842  -0.083  -2.618  0.00  0.00    -0.225 N 
BRANCH  34  35
ATOM     35  C   UNL     1       6.168   1.218  -2.590  0.00  0.00    +0.175 C 
BRANCH  35  36
ATOM     36  C   UNL     1       5.087   1.209  -1.507  0.00  0.00    +0.183 C 
BRANCH  36  37
ATOM     37  O   UNL     1       4.372   2.445  -1.538  0.00  0.00    -0.381 OA
ATOM     38  C   UNL     1       3.410   2.587  -0.491  0.00  0.00    +0.194 C 
ENDBRANCH  36  37
ENDBRANCH  35  36
ENDBRANCH  34  35
ENDBRANCH   1  30
TORSDOF 8
