REMARK  Name = ZINC12928896
REMARK  7 active torsions:
REMARK  status: ('A' for Active; 'I' for Inactive)
REMARK    1  A    between atoms: C_1  and  N_55
REMARK    2  A    between atoms: C_2  and  C_3
REMARK    3  A    between atoms: C_2  and  N_55
REMARK    4  A    between atoms: C_3  and  C_4
REMARK    5  A    between atoms: N_9  and  C_10
REMARK    6  A    between atoms: C_20  and  C_21
REMARK    7  A    between atoms: C_20  and  N_55
REMARK                            x       y       z     vdW  Elec       q    Type
REMARK                         _______ _______ _______ _____ _____    ______ ____
ROOT
ATOM      1  C   UNL     1      -7.192   1.201   2.099  0.00  0.00    +0.219 C 
ATOM      2  O   UNL     1      -6.796   1.898   3.008  0.00  0.00    -0.275 OA
ATOM      3  N   UNL     1      -6.368   0.892   1.079  0.00  0.00    -0.240 N 
ATOM      4  C   UNL     1      -5.103   1.358   1.069  0.00  0.00    +0.306 C 
ATOM      5  O   UNL     1      -4.707   2.057   1.980  0.00  0.00    -0.252 OA
ATOM      6  N   UNL     1      -4.279   1.049   0.049  0.00  0.00    -0.294 N 
ATOM      7  H   UNL     1      -6.684   0.334   0.351  0.00  0.00    +0.159 HD
ATOM      8  H   UNL     1      -4.595   0.491  -0.679  0.00  0.00    +0.151 HD
ENDROOT
BRANCH   6   9
ATOM      9  C   UNL     1      -2.904   1.556   0.038  0.00  0.00    +0.037 C 
ATOM     10  C   UNL     1      -2.188   1.063  -1.221  0.00  0.00    +0.029 C 
ATOM     11  C   UNL     1      -0.753   1.593  -1.232  0.00  0.00    -0.008 C 
ATOM     12  C   UNL     1      -0.013   1.086   0.008  0.00  0.00    +0.007 C 
ATOM     13  C   UNL     1      -0.729   1.579   1.267  0.00  0.00    -0.008 C 
ATOM     14  C   UNL     1      -2.164   1.050   1.278  0.00  0.00    +0.029 C 
ATOM     15  C   UNL     1      -0.750   3.109   1.275  0.00  0.00    +0.007 C 
ATOM     16  C   UNL     1      -1.490   3.616   0.036  0.00  0.00    -0.008 C 
ATOM     17  C   UNL     1      -0.773   3.123  -1.223  0.00  0.00    +0.007 C 
ATOM     18  C   UNL     1      -2.925   3.086   0.047  0.00  0.00    +0.029 C 
ENDBRANCH   6   9
BRANCH   1  19
ATOM     19  C   UNL     1      -8.606   0.679   2.110  0.00  0.00    +0.078 C 
BRANCH  19  20
ATOM     20  C   UNL     1      -9.322   1.172   3.368  0.00  0.00    -0.069 C 
BRANCH  20  22
ATOM     21  C   UNL     1     -10.721  -0.799   3.516  0.00  0.00    -0.096 C 
ATOM     22  N   UNL     1     -10.712   0.671   3.354  0.00  0.00    +0.381 N 
ATOM     23  H   UNL     1     -11.143   0.909   2.453  0.00  0.00    -0.082 HD
BRANCH  22  24
ATOM     24  C   UNL     1     -11.489   1.303   4.441  0.00  0.00    -0.036 C 
BRANCH  24  25
ATOM     25  C   UNL     1     -12.944   0.947   4.269  0.00  0.00    -0.027 A 
ATOM     26  C   UNL     1     -13.631  -0.104   4.778  0.00  0.00    +0.009 A 
ATOM     27  C   UNL     1     -14.976  -0.229   4.488  0.00  0.00    +0.008 A 
ATOM     28  C   UNL     1     -15.566   0.698   3.694  0.00  0.00    +0.045 A 
ATOM     29  S   UNL     1     -14.206   1.797   3.336  0.00  0.00    -0.103 S 
ENDBRANCH  24  25
ENDBRANCH  22  24
ENDBRANCH  20  22
ENDBRANCH  19  20
ENDBRANCH   1  19
TORSDOF 6
