REMARK  Name = ZINC09460218
REMARK  7 active torsions:
REMARK  status: ('A' for Active; 'I' for Inactive)
REMARK    1  A    between atoms: C_1  and  C_2
REMARK    2  A    between atoms: C_2  and  N_3
REMARK    3  A    between atoms: C_4  and  C_6
REMARK    4  A    between atoms: C_6  and  N_7
REMARK    5  A    between atoms: C_8  and  C_10
REMARK    6  A    between atoms: C_10  and  N_11
REMARK    7  A    between atoms: C_19  and  C_21
REMARK                            x       y       z     vdW  Elec       q    Type
REMARK                         _______ _______ _______ _____ _____    ______ ____
ROOT
ATOM      1  N   UNL     1      -3.608   1.789   0.029  0.00  0.00    -0.215 N 
ATOM      2  C   UNL     1      -4.189   2.264   1.150  0.00  0.00    +0.247 C 
ATOM      3  O   UNL     1      -3.891   2.007   2.297  0.00  0.00    -0.273 OA
ATOM      4  C   UNL     1      -5.290   3.185   0.676  0.00  0.00    +0.115 C 
ATOM      5  C   UNL     1      -5.042   4.610   1.159  0.00  0.00    +0.035 C 
ATOM      6  C   UNL     1      -5.102   4.651   2.688  0.00  0.00    +0.003 C 
ATOM      7  C   UNL     1      -6.476   4.168   3.156  0.00  0.00    +0.000 C 
ATOM      8  C   UNL     1      -6.699   2.729   2.685  0.00  0.00    +0.006 C 
ATOM      9  C   UNL     1      -6.646   2.680   1.156  0.00  0.00    +0.018 C 
ATOM     10  C   UNL     1      -6.848   1.239   0.685  0.00  0.00    +0.010 C 
ATOM     11  N   UNL     1      -5.205   3.117  -0.789  0.00  0.00    -0.285 N 
ATOM     12  C   UNL     1      -4.192   2.276  -1.073  0.00  0.00    +0.310 C 
ATOM     13  O   UNL     1      -3.847   1.991  -2.203  0.00  0.00    -0.252 OA
ATOM     14  H   UNL     1      -5.767   3.585  -1.425  0.00  0.00    +0.151 HD
ENDROOT
BRANCH   1  15
ATOM     15  C   UNL     1      -2.482   0.853   0.018  0.00  0.00    +0.213 C 
BRANCH  15  17
ATOM     16  N   UNL     1      -0.011   0.966   0.007  0.00  0.00    -0.305 N 
ATOM     17  C   UNL     1      -1.187   1.624   0.017  0.00  0.00    +0.231 C 
ATOM     18  O   UNL     1      -1.204   2.837   0.023  0.00  0.00    -0.274 OA
ATOM     19  H   UNL     1       0.002  -0.004   0.002  0.00  0.00    +0.149 HD
BRANCH  16  20
ATOM     20  C   UNL     1       1.248   1.716  -0.001  0.00  0.00    +0.200 C 
BRANCH  20  22
ATOM     21  N   UNL     1       3.671   1.218  -0.026  0.00  0.00    -0.314 N 
ATOM     22  C   UNL     1       2.406   0.752  -0.017  0.00  0.00    +0.230 C 
ATOM     23  O   UNL     1       2.201  -0.443  -0.021  0.00  0.00    -0.274 OA
ATOM     24  H   UNL     1       3.835   2.174  -0.023  0.00  0.00    +0.149 HD
BRANCH  21  26
ATOM     25  C   UNL     1       6.111   1.065  -0.051  0.00  0.00    +0.024 C 
ATOM     26  C   UNL     1       4.797   0.282  -0.042  0.00  0.00    +0.101 C 
ENDBRANCH  21  26
ENDBRANCH  20  22
ENDBRANCH  16  20
ENDBRANCH  15  17
ENDBRANCH   1  15
TORSDOF 5
