REMARK  Name = ZINC08970123
REMARK  9 active torsions:
REMARK  status: ('A' for Active; 'I' for Inactive)
REMARK    1  A    between atoms: C_1  and  C_2
REMARK    2  A    between atoms: C_2  and  C_3
REMARK    3  A    between atoms: C_3  and  C_4
REMARK    4  A    between atoms: C_4  and  C_5
REMARK    5  A    between atoms: C_5  and  C_6
REMARK    6  A    between atoms: C_18  and  C_34
REMARK    7  A    between atoms: C_23  and  C_25
REMARK    8  A    between atoms: C_28  and  O_31
REMARK    9  A    between atoms: O_31  and  C_32
REMARK                            x       y       z     vdW  Elec       q    Type
REMARK                         _______ _______ _______ _____ _____    ______ ____
ROOT
ATOM      1  C   UNL     1       5.652   9.202   0.193  0.00  0.00    +0.221 C 
ATOM      2  O   UNL     1       5.042   9.323  -0.849  0.00  0.00    -0.275 OA
ATOM      3  N   UNL     1       5.986   7.975   0.640  0.00  0.00    -0.258 N 
ATOM      4  C   UNL     1       6.683   7.855   1.830  0.00  0.00    +0.058 A 
ATOM      5  C   UNL     1       7.925   8.425   2.017  0.00  0.00    +0.025 A 
ATOM      6  C   UNL     1       8.609   8.234   3.203  0.00  0.00    +0.002 A 
ATOM      7  C   UNL     1       8.045   7.466   4.208  0.00  0.00    +0.002 A 
ATOM      8  C   UNL     1       6.799   6.903   4.046  0.00  0.00    +0.025 A 
ATOM      9  C   UNL     1       6.079   7.095   2.860  0.00  0.00    +0.053 A 
ATOM     10  N   UNL     1       4.854   6.573   2.726  0.00  0.00    -0.316 N 
ATOM     11  C   UNL     1       4.178   5.997   1.797  0.00  0.00    +0.017 C 
ATOM     12  C   UNL     1       2.932   5.258   2.260  0.00  0.00    +0.059 C 
ATOM     13  C   UNL     1       2.645   4.094   1.312  0.00  0.00    +0.032 C 
ATOM     14  C   UNL     1       2.427   4.667  -0.092  0.00  0.00    +0.088 C 
ATOM     15  C   UNL     1       3.637   5.460  -0.486  0.00  0.00    +0.163 C 
ATOM     16  C   UNL     1       4.440   6.069   0.410  0.00  0.00    +0.037 C 
ATOM     17  C   UNL     1       5.611   6.818  -0.133  0.00  0.00    +0.147 C 
ATOM     18  O   UNL     1       3.936   5.569  -1.799  0.00  0.00    -0.292 OA
ATOM     19  H   UNL     1       4.403   6.731   3.717  0.00  0.00    +0.152 HD
ENDROOT
BRANCH  13  20
ATOM     20  C   UNL     1       1.405   3.365   1.762  0.00  0.00    -0.043 A 
ATOM     21  C   UNL     1       1.473   2.022   2.087  0.00  0.00    +0.005 A 
ATOM     22  C   UNL     1       0.336   1.353   2.499  0.00  0.00    +0.020 A 
ATOM     23  C   UNL     1      -0.870   2.025   2.582  0.00  0.00    +0.041 A 
ATOM     24  C   UNL     1      -0.936   3.369   2.263  0.00  0.00    +0.020 A 
ATOM     25  C   UNL     1       0.201   4.038   1.851  0.00  0.00    +0.005 A 
ATOM     26 CL   UNL     1      -2.300   1.182   3.093  0.00  0.00    -0.084 Cl
ENDBRANCH  13  20
BRANCH  17  27
ATOM     27  C   UNL     1       6.789   5.880  -0.191  0.00  0.00    -0.022 A 
ATOM     28  C   UNL     1       8.046   6.368  -0.498  0.00  0.00    +0.009 A 
ATOM     29  C   UNL     1       9.128   5.512  -0.547  0.00  0.00    +0.046 A 
ATOM     30  C   UNL     1       8.952   4.158  -0.299  0.00  0.00    +0.120 A 
ATOM     31  C   UNL     1       7.689   3.669   0.003  0.00  0.00    +0.046 A 
ATOM     32  C   UNL     1       6.611   4.531   0.056  0.00  0.00    +0.009 A 
BRANCH  30  33
ATOM     33  O   UNL     1      10.014   3.312  -0.351  0.00  0.00    -0.495 OA
ATOM     34  C   UNL     1      11.284   3.885  -0.668  0.00  0.00    +0.277 C 
ENDBRANCH  30  33
ENDBRANCH  17  27
BRANCH   1  35
ATOM     35  C   UNL     1       6.036  10.424   0.987  0.00  0.00    +0.096 C 
BRANCH  35  36
ATOM     36  C   UNL     1       5.541  11.678   0.265  0.00  0.00    +0.009 C 
BRANCH  36  37
ATOM     37  C   UNL     1       5.931  12.919   1.071  0.00  0.00    +0.000 C 
BRANCH  37  39
ATOM     38  C   UNL     1       5.825  15.414   1.155  0.00  0.00    +0.004 C 
ATOM     39  C   UNL     1       5.435  14.173   0.348  0.00  0.00    -0.003 C 
ENDBRANCH  37  39
ENDBRANCH  36  37
ENDBRANCH  35  36
ENDBRANCH   1  35
TORSDOF 7
