REMARK  Name = ZINC04821982
REMARK  4 active torsions:
REMARK  status: ('A' for Active; 'I' for Inactive)
REMARK    1  A    between atoms: C_1  and  C_2
REMARK    2  A    between atoms: C_10  and  C_11
REMARK    3  A    between atoms: C_11  and  C_13
REMARK    4  A    between atoms: C_16  and  C_19
REMARK                            x       y       z     vdW  Elec       q    Type
REMARK                         _______ _______ _______ _____ _____    ______ ____
ROOT
ATOM      1  C   UNL     1      -1.293  -0.775   0.005  0.00  0.00    +0.044 C 
ATOM      2  C   UNL     1       0.002  -0.004   0.002  0.00  0.00    -0.048 A 
ATOM      3  C   UNL     1      -0.017   1.380   0.010  0.00  0.00    +0.007 A 
ATOM      4  C   UNL     1       1.165   2.092   0.002  0.00  0.00    +0.048 A 
ATOM      5  C   UNL     1       2.384   1.424  -0.015  0.00  0.00    +0.153 A 
ATOM      6  C   UNL     1       2.401   0.031  -0.015  0.00  0.00    +0.075 A 
ATOM      7  C   UNL     1       1.206  -0.679  -0.009  0.00  0.00    +0.030 A 
ATOM      8  N   UNL     1       3.614  -0.669  -0.011  0.00  0.00    -0.306 N 
ATOM      9  C   UNL     1       4.761   0.084  -0.239  0.00  0.00    +0.121 C 
ATOM     10  C   UNL     1       5.864  -0.421  -0.857  0.00  0.00    +0.081 C 
ATOM     11  C   UNL     1       4.679   1.496   0.252  0.00  0.00    +0.359 C 
ATOM     12  O   UNL     1       5.583   2.018   0.873  0.00  0.00    -0.243 OA
ATOM     13  O   UNL     1       3.531   2.154  -0.040  0.00  0.00    -0.420 OA
ATOM     14  H   UNL     1       3.652  -1.626   0.143  0.00  0.00    +0.152 HD
ENDROOT
BRANCH  10  15
ATOM     15  C   UNL     1       5.876  -1.767  -1.297  0.00  0.00    +0.188 C 
ATOM     16  O   UNL     1       4.899  -2.473  -1.124  0.00  0.00    -0.287 OA
BRANCH  15  17
ATOM     17  C   UNL     1       7.075  -2.315  -1.968  0.00  0.00    +0.022 A 
ATOM     18  C   UNL     1       8.195  -1.506  -2.174  0.00  0.00    +0.012 A 
ATOM     19  C   UNL     1       9.311  -2.025  -2.796  0.00  0.00    +0.004 A 
ATOM     20  C   UNL     1       9.319  -3.341  -3.225  0.00  0.00    -0.044 A 
ATOM     21  C   UNL     1       8.211  -4.146  -3.030  0.00  0.00    +0.004 A 
ATOM     22  C   UNL     1       7.090  -3.641  -2.404  0.00  0.00    +0.012 A 
BRANCH  20  23
ATOM     23  C   UNL     1      10.541  -3.899  -3.909  0.00  0.00    +0.019 C 
ATOM     24  C   UNL     1      11.741  -3.808  -2.963  0.00  0.00    +0.008 C 
ATOM     25  C   UNL     1      12.981  -4.375  -3.657  0.00  0.00    +0.001 C 
ATOM     26  C   UNL     1      13.269  -3.569  -4.925  0.00  0.00    +0.000 C 
ATOM     27  C   UNL     1      12.069  -3.659  -5.871  0.00  0.00    +0.001 C 
ATOM     28  C   UNL     1      10.829  -3.093  -5.177  0.00  0.00    +0.008 C 
ENDBRANCH  20  23
ENDBRANCH  15  17
ENDBRANCH  10  15
TORSDOF 3
