REMARK  Name = ZINC39327040
REMARK  9 active torsions:
REMARK  status: ('A' for Active; 'I' for Inactive)
REMARK    1  A    between atoms: C_1  and  C_2
REMARK    2  A    between atoms: C_3  and  C_23
REMARK    3  A    between atoms: C_4  and  C_15
REMARK    4  A    between atoms: C_7  and  N_14
REMARK    5  A    between atoms: C_8  and  C_12
REMARK    6  A    between atoms: C_18  and  O_21
REMARK    7  A    between atoms: O_21  and  C_22
REMARK    8  A    between atoms: C_23  and  O_25
REMARK    9  A    between atoms: O_25  and  C_26
REMARK                            x       y       z     vdW  Elec       q    Type
REMARK                         _______ _______ _______ _____ _____    ______ ____
ROOT
ATOM      1  C   UNL     1      -0.018   1.503   0.010  0.00  0.00    +0.061 C 
ATOM      2  C   UNL     1       0.002  -0.004   0.002  0.00  0.00    +0.016 C 
ATOM      3  C   UNL     1      -1.160  -0.673   0.004  0.00  0.00    +0.065 C 
ATOM      4  C   UNL     1      -1.283  -2.167   0.016  0.00  0.00    +0.091 C 
ATOM      5  C   UNL     1       0.068  -2.797  -0.298  0.00  0.00    +0.015 A 
ATOM      6  C   UNL     1       0.254  -4.135  -0.606  0.00  0.00    +0.055 A 
ATOM      7  C   UNL     1       1.542  -4.597  -0.873  0.00  0.00    +0.111 A 
ATOM      8  S   UNL     1       2.515  -3.109  -0.685  0.00  0.00    -0.061 S 
ATOM      9  C   UNL     1       1.195  -2.003  -0.281  0.00  0.00    +0.077 A 
ATOM     10  N   UNL     1       1.211  -0.657  -0.013  0.00  0.00    -0.312 N 
ATOM     11  H   UNL     1       2.042  -0.187   0.162  0.00  0.00    +0.152 HD
ENDROOT
BRANCH   4  12
ATOM     12  C   UNL     1      -1.743  -2.622   1.377  0.00  0.00    -0.035 A 
ATOM     13  C   UNL     1      -0.980  -2.335   2.494  0.00  0.00    +0.008 A 
ATOM     14  C   UNL     1      -1.399  -2.751   3.744  0.00  0.00    +0.046 A 
ATOM     15  C   UNL     1      -2.586  -3.456   3.877  0.00  0.00    +0.120 A 
ATOM     16  C   UNL     1      -3.349  -3.742   2.755  0.00  0.00    +0.046 A 
ATOM     17  C   UNL     1      -2.929  -3.320   1.508  0.00  0.00    +0.008 A 
BRANCH  15  18
ATOM     18  O   UNL     1      -2.999  -3.866   5.105  0.00  0.00    -0.495 OA
ATOM     19  C   UNL     1      -4.231  -4.588   5.166  0.00  0.00    +0.277 C 
ENDBRANCH  15  18
ENDBRANCH   4  12
BRANCH   6  20
ATOM     20  N   UNL     1      -0.832  -5.007  -0.647  0.00  0.00    -0.356 N 
ATOM     21  H   UNL     1      -1.725  -4.679  -0.460  0.00  0.00    +0.142 HD
ATOM     22  H   UNL     1      -0.695  -5.943  -0.863  0.00  0.00    +0.142 HD
ENDBRANCH   6  20
BRANCH   7  23
ATOM     23  C   UNL     1       1.974  -5.920  -1.209  0.00  0.00    +0.108 C 
ATOM     24  N   UNL     1       2.316  -6.970  -1.476  0.00  0.00    -0.190 NA
ENDBRANCH   7  23
BRANCH   3  25
ATOM     25  C   UNL     1      -2.352   0.084  -0.005  0.00  0.00    +0.337 C 
ATOM     26  O   UNL     1      -2.301   1.300  -0.015  0.00  0.00    -0.245 OA
BRANCH  25  27
ATOM     27  O   UNL     1      -3.548  -0.541  -0.004  0.00  0.00    -0.465 OA
ATOM     28  C   UNL     1      -4.713   0.287  -0.013  0.00  0.00    +0.280 C 
ENDBRANCH  25  27
ENDBRANCH   3  25
TORSDOF 6
