REMARK  Name = ZINC21654710
REMARK  5 active torsions:
REMARK  status: ('A' for Active; 'I' for Inactive)
REMARK    1  A    between atoms: C_1  and  C_2
REMARK    2  A    between atoms: C_5  and  S_8
REMARK    3  A    between atoms: S_8  and  N_11
REMARK    4  A    between atoms: C_20  and  C_22
REMARK    5  A    between atoms: C_22  and  N_23
REMARK                            x       y       z     vdW  Elec       q    Type
REMARK                         _______ _______ _______ _____ _____    ______ ____
ROOT
ATOM      1  N   UNL     1       5.503   3.243  -8.623  0.00  0.00    -0.171 NA
ATOM      2  C   UNL     1       4.714   4.437  -8.284  0.00  0.00    +0.116 C 
ATOM      3  C   UNL     1       3.853   4.157  -7.051  0.00  0.00    +0.073 C 
ATOM      4  C   UNL     1       4.716   3.518  -5.971  0.00  0.00    +0.056 A 
ATOM      5  C   UNL     1       5.894   2.920  -6.290  0.00  0.00    +0.030 A 
ATOM      6  S   UNL     1       6.484   2.351  -4.720  0.00  0.00    -0.055 S 
ATOM      7  C   UNL     1       5.153   2.938  -3.768  0.00  0.00    +0.165 A 
ATOM      8  N   UNL     1       4.386   3.496  -4.681  0.00  0.00    -0.229 NA
ATOM      9  N   UNL     1       4.949   2.838  -2.397  0.00  0.00    -0.263 N 
ATOM     10  C   UNL     1       3.839   3.364  -1.841  0.00  0.00    +0.236 C 
ATOM     11  O   UNL     1       3.019   3.925  -2.537  0.00  0.00    -0.274 OA
ATOM     12  C   UNL     1       6.512   2.793  -7.642  0.00  0.00    +0.153 C 
ATOM     13  H   UNL     1       5.692   2.330  -1.765  0.00  0.00    +0.157 HD
ENDROOT
BRANCH   1  14
ATOM     14  S   UNL     1       5.268   2.433 -10.049  0.00  0.00    +0.061 S 
ATOM     15  O   UNL     1       5.721   1.103  -9.840  0.00  0.00    -0.153 OA
ATOM     16  O   UNL     1       3.944   2.730 -10.471  0.00  0.00    -0.153 OA
BRANCH  14  21
ATOM     17  C   UNL     1       8.972   4.894 -14.127  0.00  0.00    +0.044 C 
ATOM     18  C   UNL     1       8.046   4.279 -13.109  0.00  0.00    -0.050 A 
ATOM     19  C   UNL     1       8.476   3.215 -12.338  0.00  0.00    +0.005 A 
ATOM     20  C   UNL     1       7.628   2.652 -11.404  0.00  0.00    +0.029 A 
ATOM     21  C   UNL     1       6.349   3.152 -11.240  0.00  0.00    +0.106 A 
ATOM     22  C   UNL     1       5.918   4.212 -12.015  0.00  0.00    +0.029 A 
ATOM     23  C   UNL     1       6.768   4.779 -12.946  0.00  0.00    +0.005 A 
ENDBRANCH  14  21
ENDBRANCH   1  14
BRANCH  10  24
ATOM     24  C   UNL     1       3.617   3.256  -0.354  0.00  0.00    +0.209 C 
BRANCH  24  25
ATOM     25  N   UNL     1       2.350   3.901  -0.001  0.00  0.00    -0.257 N 
ATOM     26  C   UNL     1       1.156   3.166   0.008  0.00  0.00    +0.079 A 
ATOM     27  C   UNL     1       1.177   1.781   0.000  0.00  0.00    +0.027 A 
ATOM     28  C   UNL     1      -0.013   1.076   0.008  0.00  0.00    +0.002 A 
ATOM     29  C   UNL     1      -1.220   1.749   0.017  0.00  0.00    +0.004 A 
ATOM     30  C   UNL     1      -1.248   3.132   0.031  0.00  0.00    +0.047 A 
ATOM     31  C   UNL     1      -0.062   3.845   0.023  0.00  0.00    +0.143 A 
ATOM     32  O   UNL     1      -0.070   5.204   0.032  0.00  0.00    -0.481 OA
ATOM     33  C   UNL     1       1.006   5.849   0.718  0.00  0.00    +0.325 C 
ATOM     34  C   UNL     1       2.314   5.213   0.321  0.00  0.00    +0.258 C 
ATOM     35  O   UNL     1       3.329   5.875   0.290  0.00  0.00    -0.271 OA
ENDBRANCH  24  25
ENDBRANCH  10  24
TORSDOF 4
