REMARK  Name = ZINC65294022
REMARK  9 active torsions:
REMARK  status: ('A' for Active; 'I' for Inactive)
REMARK    1  A    between atoms: C_1  and  C_2
REMARK    2  A    between atoms: C_5  and  N_8
REMARK    3  A    between atoms: C_11  and  C_13
REMARK    4  A    between atoms: N_17  and  C_18
REMARK    5  A    between atoms: N_17  and  C_19
REMARK    6  A    between atoms: C_19  and  C_20
REMARK    7  A    between atoms: N_22  and  C_23
REMARK    8  A    between atoms: C_23  and  C_24
REMARK    9  A    between atoms: C_24  and  N_25
REMARK                            x       y       z     vdW  Elec       q    Type
REMARK                         _______ _______ _______ _____ _____    ______ ____
ROOT
ATOM      1  N   UNL     1       0.359  -3.748   0.177  0.00  0.00    -0.213 N 
ATOM      2  C   UNL     1       0.967  -4.625   1.065  0.00  0.00    +0.173 A 
ATOM      3  C   UNL     1       0.670  -5.895   0.564  0.00  0.00    +0.082 A 
ATOM      4  C   UNL     1      -0.091  -5.766  -0.586  0.00  0.00    +0.076 A 
ATOM      5  N   UNL     1      -0.283  -4.492  -0.815  0.00  0.00    -0.169 NA
ATOM      6  C   UNL     1      -0.615  -6.902  -1.428  0.00  0.00    +0.069 C 
ATOM      7  S   UNL     1       1.472  -6.957   1.739  0.00  0.00    -0.049 S 
ATOM      8  C   UNL     1       2.130  -5.668   2.789  0.00  0.00    +0.164 A 
ATOM      9  N   UNL     1       1.702  -4.580   2.183  0.00  0.00    -0.205 NA
ATOM     10  N   UNL     1       2.890  -5.784   3.938  0.00  0.00    -0.304 N 
ATOM     11  C   UNL     1       3.328  -4.581   4.651  0.00  0.00    +0.131 C 
ENDROOT
BRANCH   1  16
ATOM     12  C   UNL     1       0.445   1.915   0.535  0.00  0.00    +0.044 C 
ATOM     13  C   UNL     1       0.422   0.411   0.440  0.00  0.00    -0.050 A 
ATOM     14  C   UNL     1       0.440  -0.202  -0.799  0.00  0.00    +0.005 A 
ATOM     15  C   UNL     1       0.420  -1.580  -0.889  0.00  0.00    +0.028 A 
ATOM     16  C   UNL     1       0.381  -2.350   0.266  0.00  0.00    +0.068 A 
ATOM     17  C   UNL     1       0.364  -1.731   1.509  0.00  0.00    +0.028 A 
ATOM     18  C   UNL     1       0.390  -0.353   1.593  0.00  0.00    +0.005 A 
ENDBRANCH   1  16
BRANCH  10  19
ATOM     19  C   UNL     1       3.257  -7.109   4.443  0.00  0.00    +0.202 C 
BRANCH  19  20
ATOM     20  C   UNL     1       4.570  -7.532   3.835  0.00  0.00    +0.230 C 
ATOM     21  O   UNL     1       5.142  -6.799   3.056  0.00  0.00    -0.274 OA
ATOM     22  N   UNL     1       5.108  -8.725   4.156  0.00  0.00    -0.316 N 
ATOM     23  H   UNL     1       4.651  -9.312   4.779  0.00  0.00    +0.149 HD
BRANCH  22  24
ATOM     24  C   UNL     1       6.384  -9.137   3.565  0.00  0.00    +0.086 C 
BRANCH  24  25
ATOM     25  C   UNL     1       6.768 -10.521   4.093  0.00  0.00    -0.060 C 
BRANCH  25  26
ATOM     26  N   UNL     1       7.978 -10.988   3.405  0.00  0.00    +0.381 N 
ATOM     27  C   UNL     1       8.197 -12.408   3.744  0.00  0.00    -0.079 C 
ATOM     28  C   UNL     1       9.007 -13.039   2.639  0.00  0.00    -0.019 C 
ATOM     29  C   UNL     1      10.509 -13.057   2.981  0.00  0.00    -0.002 C 
ATOM     30  C   UNL     1      10.958 -11.743   3.653  0.00  0.00    -0.002 C 
ATOM     31  C   UNL     1      10.340 -10.529   3.009  0.00  0.00    -0.019 C 
ATOM     32  C   UNL     1       9.045 -10.163   3.764  0.00  0.00    -0.079 C 
ATOM     33  H   UNL     1       7.833 -10.914   2.409  0.00  0.00    -0.082 HD
ENDBRANCH  25  26
ENDBRANCH  24  25
ENDBRANCH  22  24
ENDBRANCH  19  20
ENDBRANCH  10  19
TORSDOF 6
