REMARK  Name = ZINC65534899
REMARK  5 active torsions:
REMARK  status: ('A' for Active; 'I' for Inactive)
REMARK    1  A    between atoms: C_1  and  C_2
REMARK    2  A    between atoms: C_7  and  C_8
REMARK    3  A    between atoms: C_11  and  C_15
REMARK    4  A    between atoms: C_15  and  N_16
REMARK    5  A    between atoms: C_19  and  N_22
REMARK                            x       y       z     vdW  Elec       q    Type
REMARK                         _______ _______ _______ _____ _____    ______ ____
ROOT
ATOM      1  N   UNL     1      -0.210  -0.022   6.409  0.00  0.00    +0.385 N 
ATOM      2  C   UNL     1      -0.216  -0.223   7.867  0.00  0.00    -0.072 C 
ATOM      3  C   UNL     1       1.111   0.287   8.435  0.00  0.00    +0.035 C 
ATOM      4  C   UNL     1       1.385   1.670   7.911  0.00  0.00    +0.021 C 
ATOM      5  C   UNL     1       0.754   2.168   6.879  0.00  0.00    -0.024 C 
ATOM      6  C   UNL     1      -0.303   1.414   6.124  0.00  0.00    -0.049 C 
ATOM      7  H   UNL     1       0.646  -0.389   6.020  0.00  0.00    -0.081 HD
ENDROOT
BRANCH   4   8
ATOM      8  N   UNL     1       2.347   2.451   8.550  0.00  0.00    -0.265 N 
ATOM      9  C   UNL     1       3.209   2.021   9.558  0.00  0.00    +0.074 A 
ATOM     10  C   UNL     1       3.389   0.807  10.203  0.00  0.00    +0.028 A 
ATOM     11  C   UNL     1       4.350   0.687  11.187  0.00  0.00    +0.002 A 
ATOM     12  C   UNL     1       5.134   1.774  11.533  0.00  0.00    +0.002 A 
ATOM     13  C   UNL     1       4.962   2.988  10.896  0.00  0.00    +0.028 A 
ATOM     14  C   UNL     1       4.000   3.118   9.907  0.00  0.00    +0.067 A 
ATOM     15  N   UNL     1       3.594   4.179   9.101  0.00  0.00    -0.306 N 
ATOM     16  H   UNL     1       3.964   5.076   9.115  0.00  0.00    +0.170 HD
ATOM     17  C   UNL     1       2.606   3.747   8.295  0.00  0.00    +0.332 A 
ATOM     18  O   UNL     1       2.032   4.426   7.464  0.00  0.00    -0.246 OA
ENDBRANCH   4   8
BRANCH   1  19
ATOM     19  C   UNL     1      -1.358  -0.718   5.812  0.00  0.00    -0.028 C 
BRANCH  19  22
ATOM     20  C   UNL     1       0.472  -0.335   2.695  0.00  0.00    +0.180 C 
ATOM     21  N   UNL     1       0.072  -1.171   3.847  0.00  0.00    -0.271 NA
ATOM     22  C   UNL     1      -1.248  -0.666   4.287  0.00  0.00    +0.194 C 
ATOM     23  O   UNL     1      -1.292   0.702   3.822  0.00  0.00    -0.281 OA
ATOM     24  N   UNL     1      -0.627   0.639   2.500  0.00  0.00    -0.178 NA
ATOM     25  H   UNL     1       0.019  -2.144   3.586  0.00  0.00    +0.126 HD
ATOM     26  H   UNL     1      -1.268   0.323   1.788  0.00  0.00    +0.156 HD
BRANCH  20  33
ATOM     27  C   UNL     1       2.105   0.593   0.499  0.00  0.00    +0.044 C 
ATOM     28  C   UNL     1       1.416  -0.745   0.414  0.00  0.00    -0.044 A 
ATOM     29  C   UNL     1       1.570  -1.531  -0.713  0.00  0.00    +0.004 A 
ATOM     30  C   UNL     1       0.939  -2.758  -0.792  0.00  0.00    +0.000 A 
ATOM     31  C   UNL     1       0.154  -3.199   0.257  0.00  0.00    +0.000 A 
ATOM     32  C   UNL     1       0.000  -2.414   1.384  0.00  0.00    +0.007 A 
ATOM     33  C   UNL     1       0.635  -1.189   1.464  0.00  0.00    -0.011 A 
ENDBRANCH  20  33
ENDBRANCH  19  22
ENDBRANCH   1  19
TORSDOF 4
