REMARK  Name = ZINC03846901
REMARK  11 active torsions:
REMARK  status: ('A' for Active; 'I' for Inactive)
REMARK    1  A    between atoms: C_1  and  N_2
REMARK    2  A    between atoms: N_2  and  C_3
REMARK    3  A    between atoms: N_2  and  C_4
REMARK    4  A    between atoms: N_2  and  C_5
REMARK    5  A    between atoms: C_9  and  N_11
REMARK    6  A    between atoms: N_12  and  C_13
REMARK    7  A    between atoms: C_14  and  O_31
REMARK    8  A    between atoms: C_17  and  N_20
REMARK    9  A    between atoms: C_18  and  O_19
REMARK   10  A    between atoms: N_21  and  C_22
REMARK   11  A    between atoms: C_26  and  N_28
REMARK                            x       y       z     vdW  Elec       q    Type
REMARK                         _______ _______ _______ _____ _____    ______ ____
ROOT
ATOM      1  C   UNL     1       5.826  -0.293  -4.044  0.00  0.00    +0.171 A 
ATOM      2  C   UNL     1       6.518   0.509  -3.122  0.00  0.00    +0.148 A 
ATOM      3  C   UNL     1       7.841   0.856  -3.356  0.00  0.00    +0.050 A 
ATOM      4  C   UNL     1       8.487   0.419  -4.492  0.00  0.00    +0.037 A 
ATOM      5  C   UNL     1       7.816  -0.382  -5.423  0.00  0.00    +0.130 A 
ATOM      6  C   UNL     1       6.480  -0.745  -5.197  0.00  0.00    +0.175 A 
ENDROOT
BRANCH   1   8
ATOM      7  N   UNL     1       3.928  -0.215  -2.753  0.00  0.00    -0.149 NA
ATOM      8  N   UNL     1       4.527  -0.633  -3.816  0.00  0.00    -0.142 NA
BRANCH   7  13
ATOM      9  C   UNL     1       0.656  -0.455  -1.148  0.00  0.00    +0.017 A 
ATOM     10  C   UNL     1      -0.017  -1.250  -2.059  0.00  0.00    +0.022 A 
ATOM     11  C   UNL     1       0.622  -1.700  -3.200  0.00  0.00    +0.004 A 
ATOM     12  C   UNL     1       1.937  -1.359  -3.438  0.00  0.00    +0.029 A 
ATOM     13  C   UNL     1       2.624  -0.557  -2.523  0.00  0.00    +0.088 A 
ATOM     14  C   UNL     1       1.970  -0.102  -1.375  0.00  0.00    +0.051 A 
BRANCH   9  16
ATOM     15  C   UNL     1      -0.018   1.465   0.010  0.00  0.00    +0.109 C 
ATOM     16  N   UNL     1       0.002  -0.004   0.002  0.00  0.00    -0.390 NA
ATOM     17  C   UNL     1       0.713  -0.491   1.192  0.00  0.00    +0.109 C 
ATOM     18  C   UNL     1      -1.376  -0.512   0.012  0.00  0.00    +0.109 C 
ENDBRANCH   9  16
ENDBRANCH   7  13
ENDBRANCH   1   8
BRANCH   6  19
ATOM     19  O   UNL     1       5.825  -1.524  -6.092  0.00  0.00    -0.503 OA
ATOM     20  H   UNL     1       5.369  -1.028  -6.786  0.00  0.00    +0.292 HD
ENDBRANCH   6  19
BRANCH   5  21
ATOM     21  N   UNL     1       8.460  -0.811  -6.545  0.00  0.00    -0.146 NA
ATOM     22  N   UNL     1       9.689  -0.479  -6.750  0.00  0.00    -0.149 NA
BRANCH  22  23
ATOM     23  C   UNL     1      10.336  -0.910  -7.875  0.00  0.00    +0.088 A 
ATOM     24  C   UNL     1       9.665  -1.704  -8.809  0.00  0.00    +0.030 A 
ATOM     25  C   UNL     1      10.323  -2.135  -9.942  0.00  0.00    +0.004 A 
ATOM     26  C   UNL     1      11.644  -1.782 -10.155  0.00  0.00    +0.033 A 
ATOM     27  C   UNL     1      12.315  -0.996  -9.234  0.00  0.00    +0.128 A 
ATOM     28  C   UNL     1      11.668  -0.553  -8.100  0.00  0.00    +0.062 A 
BRANCH  27  29
ATOM     29  N   UNL     1      13.728  -0.625  -9.471  0.00  0.00    +0.056 N 
ATOM     30  O   UNL     1      14.295  -1.008 -10.468  0.00  0.00    -0.126 OA
ATOM     31  O   UNL     1      14.315   0.062  -8.667  0.00  0.00    -0.126 OA
ENDBRANCH  27  29
ENDBRANCH  22  23
ENDBRANCH   5  21
BRANCH   2  32
ATOM     32  O   UNL     1       5.892   0.945  -2.001  0.00  0.00    -0.504 OA
ATOM     33  H   UNL     1       5.976   0.348  -1.245  0.00  0.00    +0.292 HD
ENDBRANCH   2  32
TORSDOF 8
