REMARK  Name = ZINC28917261
REMARK  8 active torsions:
REMARK  status: ('A' for Active; 'I' for Inactive)
REMARK    1  A    between atoms: C_1  and  C_2
REMARK    2  A    between atoms: C_5  and  C_8
REMARK    3  A    between atoms: C_10  and  C_24
REMARK    4  A    between atoms: C_11  and  C_23
REMARK    5  A    between atoms: N_12  and  C_16
REMARK    6  A    between atoms: C_20  and  C_22
REMARK    7  A    between atoms: C_24  and  O_26
REMARK    8  A    between atoms: O_26  and  C_27
REMARK                            x       y       z     vdW  Elec       q    Type
REMARK                         _______ _______ _______ _____ _____    ______ ____
ROOT
ATOM      1  C   UNL     1      -0.149   8.003   0.148  0.00  0.00    +0.141 C 
ATOM      2  C   UNL     1       1.161   7.249   0.249  0.00  0.00    +0.078 C 
ATOM      3  C   UNL     1       1.122   5.903   0.133  0.00  0.00    +0.027 C 
ATOM      4  N   UNL     1      -0.057   5.248  -0.080  0.00  0.00    -0.255 N 
ATOM      5  C   UNL     1      -1.242   5.864  -0.177  0.00  0.00    +0.142 C 
ATOM      6  S   UNL     1      -2.647   4.922  -0.439  0.00  0.00    -0.018 S 
ATOM      7  N   UNL     1      -1.365   7.203  -0.076  0.00  0.00    -0.315 N 
ATOM      8  C   UNL     1       2.402   5.113   0.233  0.00  0.00    +0.062 C 
ATOM      9  H   UNL     1      -2.343   7.699  -0.158  0.00  0.00    +0.149 HD
ENDROOT
BRANCH   1  14
ATOM     10  C   UNL     1      -0.866  10.995   5.040  0.00  0.00    +0.044 C 
ATOM     11  C   UNL     1      -0.679  10.214   3.764  0.00  0.00    -0.050 A 
ATOM     12  C   UNL     1      -0.069  10.807   2.675  0.00  0.00    +0.004 A 
ATOM     13  C   UNL     1       0.103  10.092   1.504  0.00  0.00    +0.006 A 
ATOM     14  C   UNL     1      -0.336   8.783   1.424  0.00  0.00    -0.023 A 
ATOM     15  C   UNL     1      -0.951   8.192   2.512  0.00  0.00    +0.006 A 
ATOM     16  C   UNL     1      -1.117   8.906   3.684  0.00  0.00    +0.004 A 
ENDBRANCH   1  14
BRANCH   4  17
ATOM     17  C   UNL     1      -0.027   3.853  -0.197  0.00  0.00    +0.040 A 
ATOM     18  C   UNL     1       0.151   3.262  -1.442  0.00  0.00    +0.024 A 
ATOM     19  C   UNL     1       0.180   1.886  -1.554  0.00  0.00    +0.002 A 
ATOM     20  C   UNL     1       0.033   1.096  -0.428  0.00  0.00    +0.003 A 
ATOM     21  C   UNL     1      -0.149   1.681   0.811  0.00  0.00    -0.049 A 
ATOM     22  C   UNL     1      -0.174   3.057   0.931  0.00  0.00    +0.027 A 
ATOM     23  C   UNL     1      -0.315   0.816   2.034  0.00  0.00    +0.044 C 
ENDBRANCH   4  17
BRANCH   2  24
ATOM     24  C   UNL     1       2.382   7.929   0.465  0.00  0.00    +0.339 C 
ATOM     25  O   UNL     1       3.422   7.303   0.543  0.00  0.00    -0.245 OA
BRANCH  24  26
ATOM     26  O   UNL     1       2.394   9.273   0.583  0.00  0.00    -0.465 OA
ATOM     27  C   UNL     1       3.662   9.895   0.799  0.00  0.00    +0.280 C 
ENDBRANCH  24  26
ENDBRANCH   2  24
TORSDOF 4
