REMARK  Name = ZINC12888093
REMARK  11 active torsions:
REMARK  status: ('A' for Active; 'I' for Inactive)
REMARK    1  A    between atoms: C_1  and  C_2
REMARK    2  A    between atoms: C_2  and  C_3
REMARK    3  A    between atoms: C_3  and  C_5
REMARK    4  A    between atoms: C_3  and  C_6
REMARK    5  A    between atoms: C_6  and  C_8
REMARK    6  A    between atoms: C_6  and  N_15
REMARK    7  A    between atoms: N_10  and  C_11
REMARK    8  A    between atoms: C_11  and  C_12
REMARK    9  A    between atoms: C_12  and  C_13
REMARK   10  A    between atoms: C_12  and  C_14
REMARK   11  A    between atoms: C_16  and  C_18
REMARK                            x       y       z     vdW  Elec       q    Type
REMARK                         _______ _______ _______ _____ _____    ______ ____
ROOT
ATOM      1  C   UNL     1      -2.926   2.255  -1.211  0.00  0.00    +0.167 C 
ATOM      2  C   UNL     1      -2.903   1.635  -2.616  0.00  0.00    +0.069 C 
ATOM      3  C   UNL     1      -3.414   2.625  -3.631  0.00  0.00    -0.015 A 
ATOM      4  C   UNL     1      -3.847   2.347  -4.989  0.00  0.00    +0.003 A 
ATOM      5  C   UNL     1      -3.931   1.163  -5.729  0.00  0.00    +0.010 A 
ATOM      6  C   UNL     1      -4.395   1.269  -7.017  0.00  0.00    +0.001 A 
ATOM      7  C   UNL     1      -4.764   2.485  -7.568  0.00  0.00    +0.002 A 
ATOM      8  C   UNL     1      -4.692   3.671  -6.859  0.00  0.00    +0.026 A 
ATOM      9  C   UNL     1      -4.224   3.594  -5.548  0.00  0.00    +0.047 A 
ATOM     10  N   UNL     1      -4.029   4.544  -4.588  0.00  0.00    -0.356 N 
ATOM     11  H   UNL     1      -4.202   5.492  -4.698  0.00  0.00    +0.166 HD
ATOM     12  C   UNL     1      -3.554   3.957  -3.446  0.00  0.00    +0.046 A 
ATOM     13  C   UNL     1      -3.237   4.644  -2.140  0.00  0.00    +0.155 C 
ATOM     14  N   UNL     1      -2.495   3.651  -1.329  0.00  0.00    -0.273 N 
ATOM     15  C   UNL     1      -1.417   4.251  -0.806  0.00  0.00    +0.248 C 
ATOM     16  O   UNL     1      -0.722   3.796   0.082  0.00  0.00    -0.270 OA
ATOM     17  C   UNL     1      -1.204   5.542  -1.469  0.00  0.00    +0.042 A 
ATOM     18  C   UNL     1      -2.328   5.812  -2.312  0.00  0.00    -0.009 A 
ATOM     19  C   UNL     1      -2.381   6.938  -3.075  0.00  0.00    +0.006 A 
ATOM     20  C   UNL     1      -1.322   7.836  -2.978  0.00  0.00    +0.000 A 
ATOM     21  C   UNL     1      -0.245   7.602  -2.147  0.00  0.00    +0.001 A 
ATOM     22  C   UNL     1      -0.154   6.457  -1.371  0.00  0.00    +0.013 A 
ENDROOT
BRANCH   1  24
ATOM     23  N   UNL     1      -0.655   1.554  -0.526  0.00  0.00    -0.302 N 
ATOM     24  C   UNL     1      -1.984   1.504  -0.306  0.00  0.00    +0.235 C 
ATOM     25  O   UNL     1      -2.421   0.854   0.619  0.00  0.00    -0.274 OA
ATOM     26  H   UNL     1      -0.301   2.125  -1.225  0.00  0.00    +0.150 HD
BRANCH  23  27
ATOM     27  C   UNL     1       0.254   0.747   0.291  0.00  0.00    +0.162 C 
BRANCH  27  28
ATOM     28  C   UNL     1       1.556   1.483   0.470  0.00  0.00    +0.234 C 
ATOM     29  O   UNL     1       1.729   2.551  -0.077  0.00  0.00    -0.274 OA
ATOM     30  N   UNL     1       2.529   0.953   1.238  0.00  0.00    -0.314 N 
ATOM     31  H   UNL     1       2.420   0.067   1.617  0.00  0.00    +0.149 HD
BRANCH  30  32
ATOM     32  C   UNL     1       3.752   1.717   1.502  0.00  0.00    +0.107 C 
BRANCH  32  33
ATOM     33  C   UNL     1       4.685   0.895   2.393  0.00  0.00    -0.000 C 
ATOM     34  C   UNL     1       5.143  -0.354   1.636  0.00  0.00    +0.009 C 
ATOM     35  C   UNL     1       5.904   1.738   2.770  0.00  0.00    +0.009 C 
ENDBRANCH  32  33
ENDBRANCH  30  32
ENDBRANCH  27  28
BRANCH  27  36
ATOM     36  C   UNL     1       0.514  -0.590  -0.405  0.00  0.00    +0.015 C 
ATOM     37  C   UNL     1      -0.779  -1.407  -0.443  0.00  0.00    +0.010 C 
BRANCH  36  39
ATOM     38  C   UNL     1       2.391   0.296  -1.796  0.00  0.00    +0.004 C 
ATOM     39  C   UNL     1       0.998  -0.335  -1.834  0.00  0.00    +0.002 C 
ENDBRANCH  36  39
ENDBRANCH  27  36
ENDBRANCH  23  27
ENDBRANCH   1  24
TORSDOF 7
