REMARK  Name = ZINC39594622
REMARK  7 active torsions:
REMARK  status: ('A' for Active; 'I' for Inactive)
REMARK    1  A    between atoms: C_1  and  C_2
REMARK    2  A    between atoms: C_2  and  C_8
REMARK    3  A    between atoms: C_12  and  C_21
REMARK    4  A    between atoms: N_23  and  C_24
REMARK    5  A    between atoms: C_24  and  C_25
REMARK    6  A    between atoms: C_25  and  C_27
REMARK    7  A    between atoms: C_25  and  N_33
REMARK                            x       y       z     vdW  Elec       q    Type
REMARK                         _______ _______ _______ _____ _____    ______ ____
ROOT
ATOM      1  C   UNL     1      -1.291  -0.558   0.028  0.00  0.00    +0.222 C 
ATOM      2  O   UNL     1      -0.108  -0.291   0.051  0.00  0.00    -0.275 OA
ATOM      3  N   UNL     1      -2.057  -0.140  -0.999  0.00  0.00    -0.300 N 
ATOM      4  C   UNL     1      -1.623   0.571  -2.225  0.00  0.00    +0.121 C 
ATOM      5  C   UNL     1      -2.472  -0.049  -3.357  0.00  0.00    +0.100 C 
ATOM      6  C   UNL     1      -3.719  -0.609  -2.651  0.00  0.00    -0.004 C 
ATOM      7  C   UNL     1      -3.523  -0.293  -1.161  0.00  0.00    +0.115 C 
ATOM      8  C   UNL     1      -4.976   0.077  -3.176  0.00  0.00    -0.010 C 
ATOM      9  C   UNL     1      -6.206  -0.537  -2.502  0.00  0.00    -0.082 C 
ATOM     10  N   UNL     1      -6.255  -1.977  -2.785  0.00  0.00    +0.379 N 
ATOM     11  C   UNL     1      -5.087  -2.643  -2.196  0.00  0.00    -0.082 C 
ATOM     12  C   UNL     1      -3.810  -2.118  -2.857  0.00  0.00    -0.010 C 
ATOM     13  H   UNL     1      -7.098  -2.367  -2.392  0.00  0.00    -0.086 HD
ATOM     14  H   UNL     1      -6.255  -2.122  -3.784  0.00  0.00    -0.086 HD
ENDROOT
BRANCH   1  16
ATOM     15  C   UNL     1      -2.405  -2.698   0.604  0.00  0.00    +0.021 C 
ATOM     16  C   UNL     1      -1.905  -1.358   1.149  0.00  0.00    +0.044 C 
ATOM     17  C   UNL     1      -3.078  -0.580   1.747  0.00  0.00    +0.016 C 
ATOM     18  C   UNL     1      -2.578   0.759   2.292  0.00  0.00    +0.001 C 
ATOM     19  C   UNL     1      -1.527   0.509   3.375  0.00  0.00    +0.000 C 
ATOM     20  C   UNL     1      -0.353  -0.269   2.776  0.00  0.00    +0.001 C 
ATOM     21  C   UNL     1      -0.853  -1.609   2.232  0.00  0.00    +0.016 C 
ENDBRANCH   1  16
BRANCH   5  22
ATOM     22  C   UNL     1      -1.710  -1.157  -4.038  0.00  0.00    +0.218 C 
ATOM     23  O   UNL     1      -0.838  -1.750  -3.440  0.00  0.00    -0.275 OA
ATOM     24  N   UNL     1      -1.998  -1.488  -5.312  0.00  0.00    -0.316 N 
ATOM     25  H   UNL     1      -2.645  -0.968  -5.814  0.00  0.00    +0.149 HD
BRANCH  24  26
ATOM     26  C   UNL     1      -1.336  -2.635  -5.938  0.00  0.00    +0.093 C 
BRANCH  26  27
ATOM     27  C   UNL     1      -1.744  -2.719  -7.410  0.00  0.00    -0.019 C 
BRANCH  27  28
ATOM     28  C   UNL     1      -3.235  -2.918  -7.508  0.00  0.00    -0.041 A 
ATOM     29  C   UNL     1      -4.069  -1.847  -7.789  0.00  0.00    +0.005 A 
ATOM     30  C   UNL     1      -5.434  -2.077  -7.869  0.00  0.00    +0.020 A 
ATOM     31  C   UNL     1      -5.914  -3.358  -7.667  0.00  0.00    +0.111 A 
ATOM     32  N   UNL     1      -5.090  -4.352  -7.401  0.00  0.00    -0.263 NA
ATOM     33  C   UNL     1      -3.787  -4.171  -7.323  0.00  0.00    +0.112 A 
ENDBRANCH  27  28
BRANCH  27  34
ATOM     34  N   UNL     1      -1.056  -3.850  -8.046  0.00  0.00    +0.385 N 
ATOM     35  C   UNL     1      -1.284  -3.829  -9.514  0.00  0.00    -0.078 C 
ATOM     36  C   UNL     1      -0.104  -4.667 -10.067  0.00  0.00    -0.020 C 
ATOM     37  C   UNL     1       1.069  -4.264  -9.144  0.00  0.00    -0.020 C 
ATOM     38  C   UNL     1       0.406  -3.726  -7.863  0.00  0.00    -0.078 C 
ATOM     39  H   UNL     1      -1.383  -4.721  -7.655  0.00  0.00    -0.081 HD
ENDBRANCH  27  34
ENDBRANCH  26  27
ENDBRANCH  24  26
ENDBRANCH   5  22
TORSDOF 6
