REMARK  Name = ZINC65963386
REMARK  7 active torsions:
REMARK  status: ('A' for Active; 'I' for Inactive)
REMARK    1  A    between atoms: C_1  and  C_2
REMARK    2  A    between atoms: C_5  and  C_9
REMARK    3  A    between atoms: C_9  and  N_10
REMARK    4  A    between atoms: C_11  and  C_13
REMARK    5  A    between atoms: C_13  and  N_14
REMARK    6  A    between atoms: C_17  and  N_20
REMARK    7  A    between atoms: C_21  and  C_23
REMARK                            x       y       z     vdW  Elec       q    Type
REMARK                         _______ _______ _______ _____ _____    ______ ____
ROOT
ATOM      1  N   UNL     1       3.156  -8.022  -0.065  0.00  0.00    +0.385 N 
ATOM      2  C   UNL     1       2.575  -8.526   1.185  0.00  0.00    -0.076 C 
ATOM      3  C   UNL     1       2.518 -10.054   1.146  0.00  0.00    +0.003 C 
ATOM      4  C   UNL     1       3.936 -10.608   0.980  0.00  0.00    +0.069 C 
ATOM      5  C   UNL     1       4.559 -10.018  -0.289  0.00  0.00    +0.003 C 
ATOM      6  C   UNL     1       4.541  -8.491  -0.196  0.00  0.00    -0.076 C 
ATOM      7  H   UNL     1       2.612  -8.359  -0.846  0.00  0.00    -0.081 HD
ENDROOT
BRANCH   4   8
ATOM      8  N   UNL     1       3.882 -12.068   0.865  0.00  0.00    -0.312 N 
ATOM      9  C   UNL     1       4.951 -12.812   1.210  0.00  0.00    +0.216 C 
ATOM     10  O   UNL     1       5.960 -12.273   1.615  0.00  0.00    -0.276 OA
ATOM     11  H   UNL     1       3.075 -12.499   0.541  0.00  0.00    +0.149 HD
BRANCH   9  12
ATOM     12  C   UNL     1       4.895 -14.313   1.092  0.00  0.00    +0.075 C 
ATOM     13  C   UNL     1       3.769 -14.852   1.976  0.00  0.00    +0.013 C 
ATOM     14  C   UNL     1       3.712 -16.376   1.857  0.00  0.00    +0.001 C 
ATOM     15  C   UNL     1       5.046 -16.974   2.308  0.00  0.00    +0.000 C 
ATOM     16  C   UNL     1       6.172 -16.435   1.423  0.00  0.00    +0.001 C 
ATOM     17  C   UNL     1       6.229 -14.910   1.543  0.00  0.00    +0.013 C 
ENDBRANCH   9  12
ENDBRANCH   4   8
BRANCH   1  18
ATOM     18  C   UNL     1       3.137  -6.553  -0.055  0.00  0.00    +0.019 C 
BRANCH  18  20
ATOM     19  N   UNL     1       1.446  -4.747  -0.034  0.00  0.00    -0.313 N 
ATOM     20  C   UNL     1       1.710  -6.069  -0.045  0.00  0.00    +0.197 C 
ATOM     21  O   UNL     1       0.798  -6.869  -0.045  0.00  0.00    -0.278 OA
ATOM     22  H   UNL     1       2.175  -4.107  -0.034  0.00  0.00    +0.149 HD
BRANCH  19  23
ATOM     23  C   UNL     1       0.059  -4.277  -0.024  0.00  0.00    +0.139 C 
BRANCH  23  28
ATOM     24  C   UNL     1      -0.018   1.503   0.010  0.00  0.00    +0.047 C 
ATOM     25  C   UNL     1       0.002  -0.004   0.002  0.00  0.00    -0.015 A 
ATOM     26  C   UNL     1       0.006  -0.689  -1.199  0.00  0.00    +0.006 A 
ATOM     27  C   UNL     1       0.025  -2.071  -1.206  0.00  0.00    +0.005 A 
ATOM     28  C   UNL     1       0.040  -2.770  -0.014  0.00  0.00    -0.028 A 
ATOM     29  C   UNL     1       0.036  -2.088   1.188  0.00  0.00    +0.043 A 
ATOM     30  C   UNL     1       0.023  -0.703   1.197  0.00  0.00    +0.127 A 
ATOM     31  F   UNL     1       0.025  -0.035   2.371  0.00  0.00    -0.205 F 
ENDBRANCH  23  28
ENDBRANCH  19  23
ENDBRANCH  18  20
ENDBRANCH   1  18
TORSDOF 6
