REMARK  Name = ZINC16027306
REMARK  6 active torsions:
REMARK  status: ('A' for Active; 'I' for Inactive)
REMARK    1  A    between atoms: C_1  and  C_2
REMARK    2  A    between atoms: C_4  and  C_32
REMARK    3  A    between atoms: C_9  and  C_17
REMARK    4  A    between atoms: N_19  and  C_20
REMARK    5  A    between atoms: C_25  and  O_26
REMARK    6  A    between atoms: O_26  and  C_27
REMARK                            x       y       z     vdW  Elec       q    Type
REMARK                         _______ _______ _______ _____ _____    ______ ____
ROOT
ATOM      1  C   UNL     1      -8.779   1.817   3.688  0.00  0.00    +0.044 C 
ATOM      2  C   UNL     1      -8.082   0.598   3.140  0.00  0.00    -0.050 A 
ATOM      3  C   UNL     1      -8.091  -0.585   3.856  0.00  0.00    +0.008 A 
ATOM      4  C   UNL     1      -7.454  -1.704   3.361  0.00  0.00    -0.029 A 
ATOM      5  C   UNL     1      -6.797  -1.650   2.133  0.00  0.00    +0.039 A 
ATOM      6  C   UNL     1      -6.794  -0.455   1.424  0.00  0.00    -0.027 A 
ATOM      7  C   UNL     1      -7.431   0.660   1.921  0.00  0.00    +0.008 A 
ATOM      8  C   UNL     1      -6.014  -0.720   0.162  0.00  0.00    +0.052 C 
ATOM      9  C   UNL     1      -4.783   0.188   0.084  0.00  0.00    +0.076 C 
ATOM     10  C   UNL     1      -4.935   0.974  -1.233  0.00  0.00    -0.003 C 
ATOM     11  C   UNL     1      -5.984   0.182  -2.041  0.00  0.00    -0.066 C 
ATOM     12  C   UNL     1      -7.933   0.468  -0.728  0.00  0.00    -0.077 C 
ATOM     13  C   UNL     1      -8.271   1.064  -2.118  0.00  0.00    -0.020 C 
ATOM     14  C   UNL     1      -6.885   1.182  -2.791  0.00  0.00    -0.017 C 
ATOM     15  C   UNL     1      -5.604  -2.168   0.266  0.00  0.00    +0.212 C 
ATOM     16  O   UNL     1      -4.957  -2.795  -0.546  0.00  0.00    -0.277 OA
ATOM     17  N   UNL     1      -6.093  -2.630   1.431  0.00  0.00    -0.286 N 
ATOM     18  C   UNL     1      -7.470  -2.989   4.149  0.00  0.00    +0.045 C 
ATOM     19  H   UNL     1      -5.971  -3.539   1.746  0.00  0.00    +0.155 HD
ATOM     20  N   UNL     1      -6.824  -0.456  -1.044  0.00  0.00    +0.394 N 
ATOM     21  H   UNL     1      -7.200  -1.340  -1.408  0.00  0.00    -0.079 HD
ENDROOT
BRANCH   9  22
ATOM     22  C   UNL     1      -3.525  -0.641   0.054  0.00  0.00    +0.220 C 
ATOM     23  O   UNL     1      -3.013  -0.929  -1.008  0.00  0.00    -0.275 OA
ATOM     24  N   UNL     1      -2.968  -1.063   1.206  0.00  0.00    -0.282 N 
ATOM     25  H   UNL     1      -3.419  -0.902   2.050  0.00  0.00    +0.155 HD
BRANCH  24  26
ATOM     26  C   UNL     1      -1.738  -1.734   1.186  0.00  0.00    +0.077 A 
ATOM     27  C   UNL     1      -0.854  -1.534   0.136  0.00  0.00    +0.047 A 
ATOM     28  C   UNL     1       0.356  -2.202   0.115  0.00  0.00    +0.043 A 
ATOM     29  C   UNL     1       0.691  -3.066   1.143  0.00  0.00    +0.024 A 
ATOM     30  C   UNL     1      -0.183  -3.265   2.196  0.00  0.00    +0.049 A 
ATOM     31  C   UNL     1      -1.398  -2.600   2.223  0.00  0.00    +0.141 A 
ATOM     32 CL   UNL     1       1.459  -1.956  -1.203  0.00  0.00    -0.083 Cl
BRANCH  31  33
ATOM     33  O   UNL     1      -2.258  -2.795   3.258  0.00  0.00    -0.493 OA
ATOM     34  C   UNL     1      -1.845  -3.701   4.283  0.00  0.00    +0.277 C 
ENDBRANCH  31  33
ENDBRANCH  24  26
ENDBRANCH   9  22
TORSDOF 3
