REMARK  Name = ZINC04044547
REMARK  6 active torsions:
REMARK  status: ('A' for Active; 'I' for Inactive)
REMARK    1  A    between atoms: C_1  and  C_2
REMARK    2  A    between atoms: C_2  and  C_31
REMARK    3  A    between atoms: C_6  and  C_19
REMARK    4  A    between atoms: C_22  and  N_25
REMARK    5  A    between atoms: N_25  and  C_26
REMARK    6  A    between atoms: N_25  and  C_27
REMARK                            x       y       z     vdW  Elec       q    Type
REMARK                         _______ _______ _______ _____ _____    ______ ____
ROOT
ATOM      1  C   UNL     1       0.040   1.519  -0.004  0.00  0.00    +0.011 C 
ATOM      2  C   UNL     1       0.044  -0.011  -0.008  0.00  0.00    -0.023 C 
ATOM      3  C   UNL     1      -1.396  -0.529  -0.011  0.00  0.00    +0.058 C 
ATOM      4  C   UNL     1      -1.391  -2.037  -0.065  0.00  0.00    +0.016 C 
ATOM      5  C   UNL     1      -0.404  -2.708  -0.699  0.00  0.00    +0.024 C 
ATOM      6  C   UNL     1      -0.407  -4.213  -0.771  0.00  0.00    +0.086 C 
ATOM      7  C   UNL     1      -1.293  -4.811   0.283  0.00  0.00    -0.007 A 
ATOM      8  C   UNL     1      -1.140  -6.161   0.645  0.00  0.00    -0.012 A 
ATOM      9  C   UNL     1      -0.166  -6.970   0.034  0.00  0.00    +0.009 A 
ATOM     10  C   UNL     1      -0.043  -8.273   0.408  0.00  0.00    +0.001 A 
ATOM     11  C   UNL     1      -0.868  -8.819   1.389  0.00  0.00    +0.001 A 
ATOM     12  C   UNL     1      -1.821  -8.065   2.002  0.00  0.00    +0.008 A 
ATOM     13  C   UNL     1      -1.980  -6.716   1.642  0.00  0.00    -0.017 A 
ATOM     14  C   UNL     1      -2.957  -5.910   2.253  0.00  0.00    +0.010 A 
ATOM     15  C   UNL     1      -3.086  -4.609   1.886  0.00  0.00    +0.024 A 
ATOM     16  C   UNL     1      -2.258  -4.050   0.903  0.00  0.00    +0.036 A 
ATOM     17  N   UNL     1      -2.409  -2.709   0.549  0.00  0.00    -0.317 N 
ATOM     18  C   UNL     1       0.661  -2.022  -1.306  0.00  0.00    +0.162 C 
ATOM     19  O   UNL     1       1.531  -2.654  -1.872  0.00  0.00    -0.292 OA
ATOM     20  C   UNL     1       0.751  -0.521  -1.268  0.00  0.00    +0.086 C 
ATOM     21  C   UNL     1       0.773  -0.526   1.235  0.00  0.00    +0.011 C 
ATOM     22  H   UNL     1      -3.242  -2.251   0.739  0.00  0.00    +0.152 HD
ENDROOT
BRANCH   6  23
ATOM     23  C   UNL     1      -0.900  -4.640  -2.129  0.00  0.00    -0.035 A 
ATOM     24  C   UNL     1      -2.168  -4.281  -2.547  0.00  0.00    +0.006 A 
ATOM     25  C   UNL     1      -2.622  -4.666  -3.793  0.00  0.00    +0.023 A 
ATOM     26  C   UNL     1      -1.806  -5.425  -4.624  0.00  0.00    +0.029 A 
ATOM     27  C   UNL     1      -0.534  -5.788  -4.199  0.00  0.00    +0.023 A 
ATOM     28  C   UNL     1      -0.085  -5.395  -2.953  0.00  0.00    +0.006 A 
BRANCH  26  29
ATOM     29  N   UNL     1      -2.263  -5.821  -5.882  0.00  0.00    -0.336 N 
ATOM     30  C   UNL     1      -1.360  -6.512  -6.806  0.00  0.00    +0.129 C 
ATOM     31  C   UNL     1      -3.646  -5.545  -6.279  0.00  0.00    +0.129 C 
ENDBRANCH  26  29
ENDBRANCH   6  23
TORSDOF 2
