REMARK  Name = ZINC12876592
REMARK  10 active torsions:
REMARK  status: ('A' for Active; 'I' for Inactive)
REMARK    1  A    between atoms: C_1  and  C_2
REMARK    2  A    between atoms: C_2  and  N_14
REMARK    3  A    between atoms: C_8  and  C_9
REMARK    4  A    between atoms: C_8  and  C_10
REMARK    5  A    between atoms: C_15  and  C_17
REMARK    6  A    between atoms: C_20  and  C_23
REMARK    7  A    between atoms: N_25  and  C_26
REMARK    8  A    between atoms: C_26  and  C_38
REMARK    9  A    between atoms: C_32  and  C_33
REMARK   10  A    between atoms: C_32  and  C_34
REMARK                            x       y       z     vdW  Elec       q    Type
REMARK                         _______ _______ _______ _____ _____    ______ ____
ROOT
ATOM      1  C   UNL     1       5.925   2.655  -1.282  0.00  0.00    +0.037 A 
ATOM      2  C   UNL     1       5.981   3.682  -0.337  0.00  0.00    +0.014 A 
ATOM      3  C   UNL     1       7.141   4.406  -0.175  0.00  0.00    +0.014 A 
ATOM      4  C   UNL     1       8.258   4.121  -0.961  0.00  0.00    +0.037 A 
ATOM      5  C   UNL     1       8.201   3.098  -1.909  0.00  0.00    +0.014 A 
ATOM      6  C   UNL     1       7.042   2.370  -2.069  0.00  0.00    +0.014 A 
ENDROOT
BRANCH   1   8
ATOM      7  N   UNL     1       3.602   2.150  -0.694  0.00  0.00    -0.285 N 
ATOM      8  C   UNL     1       4.680   1.874  -1.454  0.00  0.00    +0.248 C 
ATOM      9  O   UNL     1       4.630   0.984  -2.279  0.00  0.00    -0.270 OA
ATOM     10  H   UNL     1       3.616   2.906  -0.087  0.00  0.00    +0.155 HD
BRANCH   7  12
ATOM     11  C   UNL     1       2.586  -0.119  -0.515  0.00  0.00    +0.061 C 
ATOM     12  C   UNL     1       2.485   1.362  -0.778  0.00  0.00    +0.014 C 
ATOM     13  C   UNL     1       1.292   1.912  -1.098  0.00  0.00    +0.016 C 
ATOM     14  C   UNL     1      -0.002   1.151  -1.222  0.00  0.00    +0.034 C 
ATOM     15  C   UNL     1      -1.087   2.167  -1.602  0.00  0.00    +0.011 C 
ATOM     16  C   UNL     1      -0.679   1.050  -2.590  0.00  0.00    -0.024 C 
ATOM     17  C   UNL     1       0.140   1.460  -3.815  0.00  0.00    +0.012 C 
ATOM     18  C   UNL     1      -1.661  -0.103  -2.808  0.00  0.00    +0.012 C 
ATOM     19  C   UNL     1      -0.367   3.521  -1.682  0.00  0.00    +0.084 C 
ATOM     20  C   UNL     1       1.082   3.270  -1.361  0.00  0.00    +0.161 C 
ATOM     21  O   UNL     1       1.946   4.124  -1.334  0.00  0.00    -0.292 OA
ENDBRANCH   7  12
ENDBRANCH   1   8
BRANCH   4  22
ATOM     22  C   UNL     1       9.503   4.902  -0.790  0.00  0.00    +0.248 C 
ATOM     23  O   UNL     1      10.476   4.653  -1.474  0.00  0.00    -0.270 OA
ATOM     24  N   UNL     1       9.558   5.890   0.126  0.00  0.00    -0.285 N 
ATOM     25  H   UNL     1       8.761   6.137   0.620  0.00  0.00    +0.155 HD
BRANCH  24  26
ATOM     26  C   UNL     1      10.739   6.543   0.357  0.00  0.00    +0.014 C 
ATOM     27  C   UNL     1      10.808   7.886   0.212  0.00  0.00    +0.016 C 
ATOM     28  C   UNL     1      12.046   8.713   0.437  0.00  0.00    +0.034 C 
ATOM     29  C   UNL     1      11.666  10.175   0.163  0.00  0.00    +0.011 C 
ATOM     30  C   UNL     1      12.067   9.723   1.586  0.00  0.00    -0.024 C 
ATOM     31  C   UNL     1      10.964   9.616   2.641  0.00  0.00    +0.012 C 
ATOM     32  C   UNL     1      13.435  10.173   2.106  0.00  0.00    +0.012 C 
ATOM     33  C   UNL     1      10.186  10.142  -0.244  0.00  0.00    +0.084 C 
ATOM     34  C   UNL     1       9.742   8.705  -0.176  0.00  0.00    +0.161 C 
ATOM     35  O   UNL     1       8.621   8.311  -0.431  0.00  0.00    -0.292 OA
ATOM     36  C   UNL     1      11.961   5.766   0.774  0.00  0.00    +0.061 C 
ENDBRANCH  24  26
ENDBRANCH   4  22
TORSDOF 4
