REMARK  Name = ZINC63349180
REMARK  5 active torsions:
REMARK  status: ('A' for Active; 'I' for Inactive)
REMARK    1  A    between atoms: C_1  and  C_2
REMARK    2  A    between atoms: C_2  and  C_3
REMARK    3  A    between atoms: C_4  and  C_26
REMARK    4  A    between atoms: C_21  and  S_24
REMARK    5  A    between atoms: S_24  and  C_25
REMARK                            x       y       z     vdW  Elec       q    Type
REMARK                         _______ _______ _______ _____ _____    ______ ____
ROOT
ATOM      1  C   UNL     1      -1.412  -0.526   0.013  0.00  0.00    +0.033 C 
ATOM      2  C   UNL     1      -2.131  -0.890  -1.092  0.00  0.00    +0.042 C 
ATOM      3  C   UNL     1      -3.436  -1.325  -0.624  0.00  0.00    +0.147 C 
ATOM      4  N   UNL     1      -4.524  -1.688  -1.285  0.00  0.00    -0.238 NA
ATOM      5  C   UNL     1      -5.659  -1.887  -0.608  0.00  0.00    +0.124 C 
ATOM      6  C   UNL     1      -5.717  -1.865   0.748  0.00  0.00    +0.059 C 
ATOM      7  C   UNL     1      -4.446  -1.887   1.567  0.00  0.00    +0.156 C 
ATOM      8  N   UNL     1      -3.377  -1.308   0.763  0.00  0.00    -0.225 N 
ATOM      9  N   UNL     1      -2.177  -0.715   1.127  0.00  0.00    -0.265 N 
ATOM     10  C   UNL     1      -4.647  -1.151   2.853  0.00  0.00    +0.018 C 
ATOM     11  C   UNL     1      -5.851  -0.947   3.342  0.00  0.00    +0.085 C 
ATOM     12  N   UNL     1      -6.994  -1.397   2.696  0.00  0.00    -0.211 N 
ATOM     13  C   UNL     1      -6.949  -1.865   1.427  0.00  0.00    +0.257 C 
ATOM     14  O   UNL     1      -7.960  -2.251   0.868  0.00  0.00    -0.269 OA
ATOM     15  C   UNL     1      -8.216  -1.385   3.376  0.00  0.00    +0.248 A 
ATOM     16  H   UNL     1     -11.273  -1.802   3.834  0.00  0.00    +0.191 HD
ATOM     17  N   UNL     1      -8.401  -0.967   4.633  0.00  0.00    -0.187 NA
ATOM     18  C   UNL     1      -9.671  -1.092   4.958  0.00  0.00    +0.186 A 
ATOM     19  N   UNL     1     -10.326  -1.600   3.892  0.00  0.00    -0.252 N 
ATOM     20  N   UNL     1      -9.366  -1.775   2.883  0.00  0.00    -0.135 NA
ATOM     21  H   UNL     1      -1.923  -0.471   2.031  0.00  0.00    +0.170 HD
ENDROOT
BRANCH   2  22
ATOM     22  C   UNL     1      -1.667  -0.849  -2.499  0.00  0.00    -0.012 A 
ATOM     23  C   UNL     1      -1.366   0.372  -3.101  0.00  0.00    +0.009 A 
ATOM     24  C   UNL     1      -0.935   0.405  -4.411  0.00  0.00    +0.002 A 
ATOM     25  C   UNL     1      -0.800  -0.770  -5.128  0.00  0.00    +0.020 A 
ATOM     26  C   UNL     1      -1.097  -1.986  -4.537  0.00  0.00    +0.042 A 
ATOM     27  C   UNL     1      -1.525  -2.031  -3.224  0.00  0.00    +0.028 A 
ATOM     28 CL   UNL     1      -0.926  -3.456  -5.444  0.00  0.00    -0.084 Cl
ENDBRANCH   2  22
BRANCH   1  30
ATOM     29  C   UNL     1      -0.019   1.526   0.010  0.00  0.00    +0.010 C 
ATOM     30  C   UNL     1       0.002  -0.004   0.002  0.00  0.00    +0.049 C 
ENDBRANCH   1  30
BRANCH  18  31
ATOM     31  S   UNL     1     -10.389  -0.670   6.511  0.00  0.00    -0.090 S 
ATOM     32  C   UNL     1      -8.991  -0.052   7.488  0.00  0.00    +0.093 C 
ENDBRANCH  18  31
TORSDOF 3
