REMARK  Name = ZINC07908864
REMARK  5 active torsions:
REMARK  status: ('A' for Active; 'I' for Inactive)
REMARK    1  A    between atoms: C_6  and  C_23
REMARK    2  A    between atoms: C_7  and  N_9
REMARK    3  A    between atoms: C_10  and  C_12
REMARK    4  A    between atoms: C_12  and  N_55
REMARK    5  A    between atoms: C_13  and  N_55
REMARK                            x       y       z     vdW  Elec       q    Type
REMARK                         _______ _______ _______ _____ _____    ______ ____
ROOT
ATOM      1  N   UNL     1      -1.613   5.230   2.764  0.00  0.00    -0.281 N 
ATOM      2  C   UNL     1      -1.457   3.915   2.512  0.00  0.00    +0.201 C 
ATOM      3  O   UNL     1      -1.888   3.092   3.292  0.00  0.00    -0.278 OA
ATOM      4  H   UNL     1      -1.268   5.888   2.141  0.00  0.00    +0.155 HD
ENDROOT
BRANCH   1  11
ATOM      5  C   UNL     1      -4.697   8.251   7.243  0.00  0.00    +0.005 C 
ATOM      6  C   UNL     1      -4.287   7.163   8.240  0.00  0.00    +0.005 C 
ATOM      7  C   UNL     1      -4.303   5.805   7.524  0.00  0.00    +0.043 C 
ATOM      8  C   UNL     1      -3.573   5.948   6.224  0.00  0.00    -0.004 A 
ATOM      9  C   UNL     1      -3.234   7.098   5.602  0.00  0.00    -0.023 A 
ATOM     10  C   UNL     1      -2.519   6.936   4.348  0.00  0.00    +0.068 A 
ATOM     11  C   UNL     1      -2.267   5.642   3.916  0.00  0.00    +0.084 A 
ATOM     12  S   UNL     1      -2.963   4.665   5.167  0.00  0.00    -0.077 S 
ATOM     13  C   UNL     1      -3.590   8.451   6.207  0.00  0.00    +0.037 C 
BRANCH  10  14
ATOM     14  C   UNL     1      -2.082   8.097   3.567  0.00  0.00    +0.244 C 
ATOM     15  O   UNL     1      -2.818   8.575   2.723  0.00  0.00    -0.270 OA
ATOM     16  N   UNL     1      -0.865   8.636   3.782  0.00  0.00    -0.325 N 
ATOM     17  H   UNL     1      -0.279   8.255   4.454  0.00  0.00    +0.145 HD
ATOM     18  H   UNL     1      -0.576   9.404   3.265  0.00  0.00    +0.145 HD
ENDBRANCH  10  14
ENDBRANCH   1  11
BRANCH   2  19
ATOM     19  C   UNL     1      -0.745   3.467   1.261  0.00  0.00    +0.016 C 
BRANCH  19  20
ATOM     20  N   UNL     1      -0.711   1.993   1.226  0.00  0.00    +0.388 N 
ATOM     21  H   UNL     1      -1.671   1.631   1.230  0.00  0.00    -0.084 HD
ATOM     22  H   UNL     1      -0.212   1.647   2.054  0.00  0.00    -0.084 HD
BRANCH  20  23
ATOM     23  C   UNL     1      -0.019   1.526   0.010  0.00  0.00    -0.067 C 
ATOM     24  C   UNL     1       1.417   2.055  -0.000  0.00  0.00    -0.009 C 
ATOM     25  C   UNL     1       2.133   1.562  -1.259  0.00  0.00    -0.012 C 
ATOM     26  C   UNL     1       2.154   0.032  -1.268  0.00  0.00    +0.007 C 
ATOM     27  C   UNL     1       0.718  -0.497  -1.257  0.00  0.00    -0.012 C 
ATOM     28  C   UNL     1       0.002  -0.004   0.002  0.00  0.00    -0.009 C 
ATOM     29  C   UNL     1      -0.022   0.009  -2.496  0.00  0.00    +0.007 C 
ATOM     30  C   UNL     1      -0.043   1.539  -2.488  0.00  0.00    -0.012 C 
ATOM     31  C   UNL     1       1.393   2.069  -2.499  0.00  0.00    +0.007 C 
ATOM     32  C   UNL     1      -0.759   2.033  -1.229  0.00  0.00    -0.009 C 
ENDBRANCH  20  23
ENDBRANCH  19  20
ENDBRANCH   2  19
TORSDOF 5
