REMARK  Name = ZINC12056086
REMARK  9 active torsions:
REMARK  status: ('A' for Active; 'I' for Inactive)
REMARK    1  A    between atoms: C_1  and  O_2
REMARK    2  A    between atoms: O_2  and  C_3
REMARK    3  A    between atoms: C_6  and  C_9
REMARK    4  A    between atoms: C_9  and  C_10
REMARK    5  A    between atoms: C_10  and  N_11
REMARK    6  A    between atoms: C_12  and  C_14
REMARK    7  A    between atoms: C_14  and  C_15
REMARK    8  A    between atoms: C_22  and  C_23
REMARK    9  A    between atoms: C_22  and  N_61
REMARK                            x       y       z     vdW  Elec       q    Type
REMARK                         _______ _______ _______ _____ _____    ______ ____
ROOT
ATOM      1  C   UNL     1       0.351  -0.516  -1.327  0.00  0.00    +0.028 C 
ATOM      2  C   UNL     1       0.460  -2.009  -1.206  0.00  0.00    +0.200 C 
ATOM      3  O   UNL     1       0.396  -2.680  -2.215  0.00  0.00    -0.278 OA
ATOM      4  N   UNL     1       0.623  -2.630  -0.033  0.00  0.00    -0.318 N 
ATOM      5  C   UNL     1       0.676  -1.919   1.241  0.00  0.00    +0.085 C 
ATOM      6  C   UNL     1       0.972  -0.437   1.002  0.00  0.00    -0.059 C 
ATOM      7  H   UNL     1       0.711  -3.596  -0.028  0.00  0.00    +0.149 HD
ATOM      8  N   UNL     1       0.020   0.062  -0.011  0.00  0.00    +0.389 N 
ATOM      9  H   UNL     1      -0.930  -0.224   0.252  0.00  0.00    -0.081 HD
ENDROOT
BRANCH   1  10
ATOM     10  C   UNL     1      -0.761  -0.166  -2.318  0.00  0.00    +0.089 C 
BRANCH  10  12
ATOM     11  N   UNL     1      -3.189  -0.579  -2.554  0.00  0.00    -0.315 N 
ATOM     12  C   UNL     1      -2.078  -0.684  -1.799  0.00  0.00    +0.212 C 
ATOM     13  O   UNL     1      -2.137  -1.197  -0.701  0.00  0.00    -0.276 OA
ATOM     14  H   UNL     1      -3.141  -0.169  -3.432  0.00  0.00    +0.149 HD
BRANCH  11  15
ATOM     15  C   UNL     1      -4.468  -1.082  -2.049  0.00  0.00    +0.109 C 
BRANCH  15  16
ATOM     16  C   UNL     1      -5.560  -0.841  -3.094  0.00  0.00    +0.054 C 
BRANCH  16  20
ATOM     17  C   UNL     1      -9.293  -2.311  -1.621  0.00  0.00    +0.120 A 
ATOM     18  C   UNL     1      -8.915  -0.999  -1.373  0.00  0.00    +0.046 A 
ATOM     19  C   UNL     1      -7.708  -0.526  -1.850  0.00  0.00    +0.007 A 
ATOM     20  C   UNL     1      -6.876  -1.359  -2.575  0.00  0.00    -0.046 A 
ATOM     21  C   UNL     1      -7.252  -2.665  -2.829  0.00  0.00    +0.007 A 
ATOM     22  C   UNL     1      -8.456  -3.144  -2.349  0.00  0.00    +0.046 A 
BRANCH  17  24
ATOM     23  C   UNL     1     -10.802  -4.139  -1.447  0.00  0.00    +0.277 C 
ATOM     24  O   UNL     1     -10.479  -2.778  -1.153  0.00  0.00    -0.495 OA
ENDBRANCH  17  24
ENDBRANCH  16  20
ENDBRANCH  15  16
ENDBRANCH  11  15
ENDBRANCH  10  12
ENDBRANCH   1  10
BRANCH   8  25
ATOM     25  C   UNL     1       0.077   1.540  -0.078  0.00  0.00    -0.074 C 
BRANCH  25  26
ATOM     26  C   UNL     1      -0.618   2.119   1.157  0.00  0.00    -0.028 C 
ATOM     27  C   UNL     1      -2.103   1.749   1.126  0.00  0.00    +0.002 C 
ATOM     28  C   UNL     1      -2.798   2.327   2.361  0.00  0.00    +0.000 C 
ATOM     29  C   UNL     1      -2.651   3.850   2.361  0.00  0.00    +0.000 C 
ATOM     30  C   UNL     1      -1.167   4.220   2.392  0.00  0.00    +0.000 C 
ATOM     31  C   UNL     1      -0.472   3.642   1.158  0.00  0.00    +0.002 C 
ENDBRANCH  25  26
ENDBRANCH   8  25
TORSDOF 8
