REMARK  Name = ZINC16644777
REMARK  7 active torsions:
REMARK  status: ('A' for Active; 'I' for Inactive)
REMARK    1  A    between atoms: C_3  and  C_6
REMARK    2  A    between atoms: C_11  and  C_14
REMARK    3  A    between atoms: N_16  and  N_17
REMARK    4  A    between atoms: C_18  and  C_20
REMARK    5  A    between atoms: C_23  and  C_26
REMARK    6  A    between atoms: C_26  and  O_27
REMARK    7  A    between atoms: O_27  and  C_28
REMARK                            x       y       z     vdW  Elec       q    Type
REMARK                         _______ _______ _______ _____ _____    ______ ____
ROOT
ATOM      1  N   UNL     1      -6.802   2.354   3.902  0.00  0.00    -0.230 N 
ATOM      2  C   UNL     1      -7.274   3.607   4.053  0.00  0.00    +0.260 C 
ATOM      3  O   UNL     1      -7.033   4.453   3.214  0.00  0.00    -0.269 OA
ATOM      4  H   UNL     1      -6.994   1.679   4.571  0.00  0.00    +0.173 HD
ENDROOT
BRANCH   2   5
ATOM      5  C   UNL     1      -8.086   3.953   5.239  0.00  0.00    +0.038 A 
ATOM      6  C   UNL     1      -8.370   2.982   6.201  0.00  0.00    +0.013 A 
ATOM      7  C   UNL     1      -9.124   3.313   7.309  0.00  0.00    +0.008 A 
ATOM      8  C   UNL     1      -9.607   4.600   7.461  0.00  0.00    -0.010 A 
ATOM      9  C   UNL     1      -9.334   5.565   6.508  0.00  0.00    +0.008 A 
ATOM     10  C   UNL     1      -8.577   5.250   5.399  0.00  0.00    +0.013 A 
BRANCH   8  11
ATOM     11  C   UNL     1     -10.434   4.952   8.670  0.00  0.00    +0.264 C 
BRANCH  11  12
ATOM     12  O   UNL     1     -11.816   4.723   8.386  0.00  0.00    -0.487 OA
BRANCH  12  13
ATOM     13  C   UNL     1     -12.704   4.992   9.379  0.00  0.00    +0.121 A 
ATOM     14  C   UNL     1     -12.253   5.463  10.604  0.00  0.00    +0.047 A 
ATOM     15  C   UNL     1     -13.158   5.742  11.611  0.00  0.00    +0.023 A 
ATOM     16  C   UNL     1     -14.511   5.541  11.402  0.00  0.00    +0.041 A 
ATOM     17  C   UNL     1     -14.961   5.066  10.182  0.00  0.00    +0.023 A 
ATOM     18  C   UNL     1     -14.060   4.792   9.172  0.00  0.00    +0.047 A 
ATOM     19 CL   UNL     1     -15.644   5.886  12.670  0.00  0.00    -0.084 Cl
ENDBRANCH  12  13
ENDBRANCH  11  12
ENDBRANCH   8  11
ENDBRANCH   2   5
BRANCH   1  22
ATOM     20  C   UNL     1      -5.560   0.773   2.626  0.00  0.00    +0.232 C 
ATOM     21  O   UNL     1      -5.801  -0.071   3.463  0.00  0.00    -0.274 OA
ATOM     22  N   UNL     1      -6.032   2.027   2.778  0.00  0.00    -0.234 N 
ATOM     23  H   UNL     1      -5.840   2.702   2.108  0.00  0.00    +0.173 HD
BRANCH  20  29
ATOM     24  C   UNL     1      -1.123  -0.943   0.008  0.00  0.00    +0.253 C 
ATOM     25  O   UNL     1      -0.917  -2.140  -0.066  0.00  0.00    -0.269 OA
ATOM     26  N   UNL     1      -2.385  -0.483   0.124  0.00  0.00    -0.297 N 
ATOM     27  C   UNL     1      -2.656   0.961   0.142  0.00  0.00    +0.109 C 
ATOM     28  C   UNL     1      -3.478   1.297   1.385  0.00  0.00    +0.032 C 
ATOM     29  C   UNL     1      -4.732   0.421   1.417  0.00  0.00    +0.079 C 
ATOM     30  C   UNL     1      -4.325  -1.052   1.489  0.00  0.00    +0.032 C 
ATOM     31  C   UNL     1      -3.514  -1.416   0.242  0.00  0.00    +0.109 C 
BRANCH  24  34
ATOM     32  C   UNL     1       2.128   0.925   0.357  0.00  0.00    +0.008 A 
ATOM     33  C   UNL     1       1.254  -0.116   0.550  0.00  0.00    +0.021 A 
ATOM     34  C   UNL     1      -0.000  -0.002  -0.029  0.00  0.00    +0.074 A 
ATOM     35  S   UNL     1       0.108   1.588  -0.830  0.00  0.00    -0.092 S 
ATOM     36  C   UNL     1       1.731   1.998  -0.377  0.00  0.00    +0.046 A 
ENDBRANCH  24  34
ENDBRANCH  20  29
ENDBRANCH   1  22
TORSDOF 7
