REMARK  Name = ZINC38650581
REMARK  10 active torsions:
REMARK  status: ('A' for Active; 'I' for Inactive)
REMARK    1  A    between atoms: C_1  and  C_2
REMARK    2  A    between atoms: C_2  and  O_3
REMARK    3  A    between atoms: O_3  and  C_4
REMARK    4  A    between atoms: C_9  and  C_10
REMARK    5  A    between atoms: C_15  and  O_24
REMARK    6  A    between atoms: C_19  and  N_23
REMARK    7  A    between atoms: C_20  and  C_21
REMARK    8  A    between atoms: O_24  and  C_25
REMARK    9  A    between atoms: C_25  and  C_27
REMARK   10  A    between atoms: C_29  and  N_34
REMARK                            x       y       z     vdW  Elec       q    Type
REMARK                         _______ _______ _______ _____ _____    ______ ____
ROOT
ATOM      1  C   UNL     1      -3.927  -1.492   0.068  0.00  0.00    +0.101 C 
ATOM      2  C   UNL     1      -4.750  -1.765   1.298  0.00  0.00    +0.008 A 
ATOM      3  C   UNL     1      -4.282  -1.357   2.535  0.00  0.00    +0.012 A 
ATOM      4  C   UNL     1      -5.024  -1.599   3.674  0.00  0.00    +0.047 A 
ATOM      5  C   UNL     1      -6.244  -2.254   3.581  0.00  0.00    +0.135 A 
ATOM      6  C   UNL     1      -6.716  -2.664   2.345  0.00  0.00    +0.093 A 
ATOM      7  C   UNL     1      -5.968  -2.420   1.200  0.00  0.00    +0.138 A 
ATOM      8  O   UNL     1      -6.443  -2.828  -0.003  0.00  0.00    -0.441 OA
ATOM      9  C   UNL     1      -5.961  -2.285  -1.133  0.00  0.00    +0.199 C 
ATOM     10  C   UNL     1      -4.774  -1.639  -1.164  0.00  0.00    +0.098 C 
ENDROOT
BRANCH   1  16
ATOM     11  C   UNL     1      -1.474  -2.009   0.016  0.00  0.00    +0.125 A 
ATOM     12  C   UNL     1      -0.422  -2.913  -0.036  0.00  0.00    +0.046 A 
ATOM     13  C   UNL     1      -0.680  -4.268  -0.102  0.00  0.00    +0.004 A 
ATOM     14  C   UNL     1      -1.985  -4.725  -0.117  0.00  0.00    +0.001 A 
ATOM     15  C   UNL     1      -3.035  -3.826  -0.066  0.00  0.00    +0.008 A 
ATOM     16  C   UNL     1      -2.782  -2.470   0.006  0.00  0.00    +0.007 A 
BRANCH  11  17
ATOM     17  O   UNL     1      -1.222  -0.675   0.082  0.00  0.00    -0.492 OA
BRANCH  17  19
ATOM     18  C   UNL     1       0.232   1.253   0.166  0.00  0.00    +0.048 C 
ATOM     19  C   UNL     1       0.149  -0.273   0.088  0.00  0.00    +0.225 C 
ENDBRANCH  17  19
ENDBRANCH  11  17
ENDBRANCH   1  16
BRANCH   9  20
ATOM     20  N   UNL     1      -6.694  -2.390  -2.288  0.00  0.00    -0.328 N 
ATOM     21  H   UNL     1      -7.547  -2.852  -2.281  0.00  0.00    +0.145 HD
ATOM     22  H   UNL     1      -6.360  -2.003  -3.112  0.00  0.00    +0.145 HD
ENDBRANCH   9  20
BRANCH  10  23
ATOM     23  C   UNL     1      -4.316  -1.083  -2.402  0.00  0.00    +0.101 C 
ATOM     24  N   UNL     1      -3.953  -0.641  -3.383  0.00  0.00    -0.191 NA
ENDBRANCH  10  23
BRANCH   5  25
ATOM     25  O   UNL     1      -6.975  -2.494   4.702  0.00  0.00    -0.422 OA
BRANCH  25  26
ATOM     26  C   UNL     1      -7.534  -1.441   5.329  0.00  0.00    +0.346 C 
ATOM     27  O   UNL     1      -7.466  -0.333   4.835  0.00  0.00    -0.244 OA
BRANCH  26  28
ATOM     28  C   UNL     1      -8.230  -1.633   6.617  0.00  0.00    +0.080 A 
ATOM     29  C   UNL     1      -8.305  -2.904   7.191  0.00  0.00    +0.049 A 
ATOM     30  C   UNL     1      -8.956  -3.076   8.395  0.00  0.00    +0.127 A 
ATOM     31  C   UNL     1      -9.535  -1.994   9.034  0.00  0.00    +0.034 A 
ATOM     32  C   UNL     1      -9.465  -0.732   8.473  0.00  0.00    +0.023 A 
ATOM     33  C   UNL     1      -8.811  -0.543   7.271  0.00  0.00    +0.055 A 
ATOM     34 CL   UNL     1      -8.717   1.043   6.571  0.00  0.00    -0.083 Cl
BRANCH  30  35
ATOM     35  N   UNL     1      -9.036  -4.423   9.004  0.00  0.00    +0.056 N 
ATOM     36  O   UNL     1      -8.531  -5.370   8.447  0.00  0.00    -0.126 OA
ATOM     37  O   UNL     1      -9.607  -4.576  10.059  0.00  0.00    -0.126 OA
ENDBRANCH  30  35
ENDBRANCH  26  28
ENDBRANCH  25  26
ENDBRANCH   5  25
TORSDOF 9
