REMARK  Name = ZINC00894565
REMARK  6 active torsions:
REMARK  status: ('A' for Active; 'I' for Inactive)
REMARK    1  A    between atoms: C_1  and  C_2
REMARK    2  A    between atoms: C_4  and  C_32
REMARK    3  A    between atoms: C_7  and  C_14
REMARK    4  A    between atoms: C_14  and  C_16
REMARK    5  A    between atoms: C_14  and  N_63
REMARK    6  A    between atoms: N_20  and  C_21
REMARK                            x       y       z     vdW  Elec       q    Type
REMARK                         _______ _______ _______ _____ _____    ______ ____
ROOT
ATOM      1  C   UNL     1       4.873   4.287  -0.023  0.00  0.00    +0.039 C 
ENDROOT
BRANCH   1   8
ATOM      2  C   UNL     1      -0.857  -1.234   0.535  0.00  0.00    +0.044 C 
ATOM      3  C   UNL     1       0.374  -0.371   0.432  0.00  0.00    -0.048 A 
ATOM      4  C   UNL     1       1.629  -0.965   0.405  0.00  0.00    +0.007 A 
ATOM      5  C   UNL     1       2.757  -0.201   0.312  0.00  0.00    -0.041 A 
ATOM      6  C   UNL     1       2.648   1.192   0.244  0.00  0.00    +0.002 A 
ATOM      7  C   UNL     1       3.837   2.041   0.143  0.00  0.00    +0.018 A 
ATOM      8  C   UNL     1       3.670   3.385   0.081  0.00  0.00    +0.011 A 
ATOM      9  C   UNL     1       2.374   3.942   0.112  0.00  0.00    +0.251 A 
ATOM     10  O   UNL     1       2.247   5.153   0.053  0.00  0.00    -0.268 OA
ATOM     11  N   UNL     1       1.277   3.171   0.204  0.00  0.00    -0.322 N 
ATOM     12  H   UNL     1       0.373   3.600   0.224  0.00  0.00    +0.169 HD
ATOM     13  C   UNL     1       1.378   1.798   0.272  0.00  0.00    +0.050 A 
ATOM     14  C   UNL     1       0.243   1.000   0.366  0.00  0.00    +0.029 A 
ATOM     15  C   UNL     1       4.114  -0.856   0.283  0.00  0.00    +0.044 C 
ENDBRANCH   1   8
BRANCH   1  21
ATOM     16  C   UNL     1       5.943   6.238   0.931  0.00  0.00    -0.077 C 
ATOM     17  C   UNL     1       5.778   7.355   1.964  0.00  0.00    -0.019 C 
ATOM     18  C   UNL     1       5.740   6.744   3.367  0.00  0.00    -0.004 C 
ATOM     19  C   UNL     1       4.594   5.731   3.443  0.00  0.00    -0.019 C 
ATOM     20  C   UNL     1       4.793   4.661   2.367  0.00  0.00    -0.077 C 
ATOM     21  N   UNL     1       4.796   5.311   1.039  0.00  0.00    +0.389 N 
ATOM     22  H   UNL     1       3.926   5.843   0.927  0.00  0.00    -0.080 HD
ENDBRANCH   1  21
BRANCH   1  23
ATOM     23  C   UNL     1       4.872   4.973  -1.365  0.00  0.00    +0.143 A 
ATOM     24  N   UNL     1       4.097   5.963  -1.737  0.00  0.00    -0.115 NA
ATOM     25  N   UNL     1       4.401   6.272  -2.950  0.00  0.00    -0.023 NA
ATOM     26  N   UNL     1       5.345   5.501  -3.364  0.00  0.00    -0.044 NA
ATOM     27  N   UNL     1       5.662   4.686  -2.416  0.00  0.00    -0.227 N 
BRANCH  27  28
ATOM     28  C   UNL     1       6.691   3.644  -2.471  0.00  0.00    +0.111 C 
ATOM     29  C   UNL     1       8.051   4.285  -2.755  0.00  0.00    +0.027 C 
ATOM     30  C   UNL     1       9.125   3.197  -2.813  0.00  0.00    +0.002 C 
ATOM     31  C   UNL     1       8.787   2.205  -3.928  0.00  0.00    +0.000 C 
ATOM     32  C   UNL     1       7.426   1.565  -3.645  0.00  0.00    +0.002 C 
ATOM     33  C   UNL     1       6.352   2.653  -3.586  0.00  0.00    +0.027 C 
ENDBRANCH  27  28
ENDBRANCH   1  23
TORSDOF 4
