REMARK  Name = ZINC09435886
REMARK  9 active torsions:
REMARK  status: ('A' for Active; 'I' for Inactive)
REMARK    1  A    between atoms: C_1  and  C_2
REMARK    2  A    between atoms: C_2  and  S_3
REMARK    3  A    between atoms: S_3  and  C_4
REMARK    4  A    between atoms: C_4  and  S_27
REMARK    5  A    between atoms: C_5  and  C_25
REMARK    6  A    between atoms: C_12  and  C_19
REMARK    7  A    between atoms: C_14  and  C_17
REMARK    8  A    between atoms: S_27  and  C_28
REMARK    9  A    between atoms: C_28  and  C_29
REMARK                            x       y       z     vdW  Elec       q    Type
REMARK                         _______ _______ _______ _____ _____    ______ ____
ROOT
ATOM      1  C   UNL     1      -0.250   2.033  -2.491  0.00  0.00    +0.157 C 
ATOM      2  C   UNL     1       0.665   1.283  -1.494  0.00  0.00    +0.148 C 
ATOM      3  C   UNL     1       0.078   1.307  -0.111  0.00  0.00    -0.029 C 
ATOM      4  C   UNL     1       0.539   2.082   0.842  0.00  0.00    -0.011 C 
ATOM      5  C   UNL     1      -0.017   2.118   2.243  0.00  0.00    +0.049 C 
ATOM      6  C   UNL     1      -1.420   1.520   2.293  0.00  0.00    +0.006 C 
ATOM      7  C   UNL     1      -1.371   0.161   1.583  0.00  0.00    +0.005 C 
ATOM      8  C   UNL     1      -1.128   0.414   0.100  0.00  0.00    +0.034 C 
ATOM      9  C   UNL     1       1.905   3.344  -0.777  0.00  0.00    +0.113 C 
ATOM     10  C   UNL     1       1.964   2.088  -1.653  0.00  0.00    +0.156 C 
ATOM     11  C   UNL     1       1.899   2.535  -3.107  0.00  0.00    +0.092 C 
ATOM     12  N   UNL     1       2.978   2.927  -3.853  0.00  0.00    -0.347 N 
ATOM     13  H   UNL     1       3.865   2.933  -3.458  0.00  0.00    +0.143 HD
ATOM     14  H   UNL     1       2.857   3.200  -4.776  0.00  0.00    +0.143 HD
ATOM     15  N   UNL     1       1.667   2.946   0.648  0.00  0.00    -0.401 NA
ATOM     16  H   UNL     1       2.504   2.460   0.990  0.00  0.00    +0.124 HD
ATOM     17  H   UNL     1       1.516   3.798   1.200  0.00  0.00    +0.124 HD
ATOM     18  N   UNL     1       0.678   2.496  -3.551  0.00  0.00    -0.351 N 
ATOM     19  H   UNL     1       0.396   2.750  -4.504  0.00  0.00    +0.163 HD
ENDROOT
BRANCH   9  20
ATOM     20  C   UNL     1       0.804   4.252  -1.263  0.00  0.00    -0.027 A 
ATOM     21  C   UNL     1       0.704   4.557  -2.607  0.00  0.00    +0.005 A 
ATOM     22  C   UNL     1      -0.309   5.386  -3.054  0.00  0.00    +0.000 A 
ATOM     23  C   UNL     1      -1.214   5.918  -2.154  0.00  0.00    +0.000 A 
ATOM     24  C   UNL     1      -1.109   5.617  -0.809  0.00  0.00    +0.000 A 
ATOM     25  C   UNL     1      -0.100   4.784  -0.363  0.00  0.00    +0.005 A 
ENDBRANCH   9  20
BRANCH  10  26
ATOM     26  C   UNL     1       3.156   1.274  -1.365  0.00  0.00    +0.081 C 
ATOM     27  N   UNL     1       4.077   0.646  -1.143  0.00  0.00    -0.195 NA
ENDBRANCH  10  26
BRANCH   2  28
ATOM     28  C   UNL     1       0.869  -0.107  -1.935  0.00  0.00    +0.080 C 
ATOM     29  N   UNL     1       1.027  -1.179  -2.275  0.00  0.00    -0.195 NA
ENDBRANCH   2  28
BRANCH   1  30
ATOM     30  S   UNL     1      -1.490   0.908  -3.191  0.00  0.00    -0.121 S 
BRANCH  30  32
ATOM     31  C   UNL     1      -3.332   1.037  -5.209  0.00  0.00    +0.015 C 
ATOM     32  C   UNL     1      -2.333   1.910  -4.446  0.00  0.00    +0.069 C 
ENDBRANCH  30  32
ENDBRANCH   1  30
BRANCH   1  33
ATOM     33  S   UNL     1      -1.051   3.446  -1.685  0.00  0.00    -0.121 S 
BRANCH  33  34
ATOM     34  C   UNL     1      -2.553   2.740  -0.953  0.00  0.00    +0.069 C 
ATOM     35  C   UNL     1      -3.609   3.837  -0.797  0.00  0.00    +0.015 C 
ENDBRANCH  33  34
ENDBRANCH   1  33
TORSDOF 7
