REMARK  Name = ZINC15084563
REMARK  4 active torsions:
REMARK  status: ('A' for Active; 'I' for Inactive)
REMARK    1  A    between atoms: C_1  and  N_2
REMARK    2  A    between atoms: C_14  and  C_22
REMARK    3  A    between atoms: C_16  and  C_20
REMARK    4  A    between atoms: C_17  and  N_19
REMARK                            x       y       z     vdW  Elec       q    Type
REMARK                         _______ _______ _______ _____ _____    ______ ____
ROOT
ATOM      1  C   UNL     1       1.674   6.324   0.023  0.00  0.00    +0.127 C 
ATOM      2  N   UNL     1       2.763   5.343   0.007  0.00  0.00    -0.326 N 
ATOM      3  C   UNL     1       2.475   3.995   0.002  0.00  0.00    +0.161 A 
ATOM      4  N   UNL     1       1.296   3.405   0.009  0.00  0.00    -0.207 NA
ATOM      5  C   UNL     1       1.159   2.081   0.002  0.00  0.00    +0.154 A 
ATOM      6  C   UNL     1       2.359   1.361  -0.013  0.00  0.00    +0.100 A 
ATOM      7  S   UNL     1       3.577   2.652  -0.017  0.00  0.00    -0.047 S 
ATOM      8  C   UNL     1       2.399  -0.029  -0.022  0.00  0.00    +0.157 A 
ATOM      9  C   UNL     1       1.199  -0.723  -0.014  0.00  0.00    +0.073 A 
ATOM     10  C   UNL     1       0.002  -0.004   0.002  0.00  0.00    +0.258 A 
ATOM     11  O   UNL     1      -1.057  -0.613   0.009  0.00  0.00    -0.267 OA
ATOM     12  N   UNL     1      -0.016   1.336   0.009  0.00  0.00    -0.306 N 
ATOM     13  H   UNL     1      -0.869   1.798   0.016  0.00  0.00    +0.170 HD
ATOM     14  C   UNL     1       1.181  -2.226  -0.023  0.00  0.00    +0.103 C 
ATOM     15  C   UNL     1       2.531  -2.764   0.362  0.00  0.00    +0.098 C 
ATOM     16  C   UNL     1       3.633  -1.979   0.334  0.00  0.00    +0.199 C 
ATOM     17  O   UNL     1       3.578  -0.689  -0.037  0.00  0.00    -0.440 OA
ATOM     18  H   UNL     1       3.685   5.642   0.000  0.00  0.00    +0.148 HD
ENDROOT
BRANCH  14  19
ATOM     19  C   UNL     1       0.829  -2.713  -1.405  0.00  0.00    -0.032 A 
ATOM     20  C   UNL     1       1.619  -2.384  -2.496  0.00  0.00    +0.024 A 
ATOM     21  C   UNL     1       1.268  -2.853  -3.748  0.00  0.00    +0.111 A 
ATOM     22  N   UNL     1       0.190  -3.595  -3.912  0.00  0.00    -0.263 NA
ATOM     23  C   UNL     1      -0.588  -3.922  -2.898  0.00  0.00    +0.111 A 
ATOM     24  C   UNL     1      -0.296  -3.495  -1.617  0.00  0.00    +0.024 A 
ENDBRANCH  14  19
BRANCH  16  25
ATOM     25  N   UNL     1       4.843  -2.517   0.694  0.00  0.00    -0.328 N 
ATOM     26  H   UNL     1       4.900  -3.447   0.964  0.00  0.00    +0.145 HD
ATOM     27  H   UNL     1       5.642  -1.967   0.679  0.00  0.00    +0.145 HD
ENDBRANCH  16  25
BRANCH  15  28
ATOM     28  C   UNL     1       2.652  -4.133   0.767  0.00  0.00    +0.101 C 
ATOM     29  N   UNL     1       2.749  -5.218   1.089  0.00  0.00    -0.191 NA
ENDBRANCH  15  28
TORSDOF 3
