REMARK  Name = ZINC67234050
REMARK  4 active torsions:
REMARK  status: ('A' for Active; 'I' for Inactive)
REMARK    1  A    between atoms: C_1  and  C_2
REMARK    2  A    between atoms: C_2  and  C_24
REMARK    3  A    between atoms: C_8  and  C_10
REMARK    4  A    between atoms: C_13  and  N_16
REMARK                            x       y       z     vdW  Elec       q    Type
REMARK                         _______ _______ _______ _____ _____    ______ ____
ROOT
ATOM      1  C   UNL     1       2.403  -1.392   2.545  0.00  0.00    +0.037 A 
ATOM      2  C   UNL     1       1.960  -0.845   3.752  0.00  0.00    +0.015 A 
ATOM      3  C   UNL     1       2.503  -1.276   4.941  0.00  0.00    +0.026 A 
ATOM      4  C   UNL     1       3.491  -2.255   4.942  0.00  0.00    +0.056 A 
ATOM      5  C   UNL     1       3.935  -2.801   3.742  0.00  0.00    +0.026 A 
ATOM      6  C   UNL     1       3.393  -2.379   2.550  0.00  0.00    +0.015 A 
ENDROOT
BRANCH   1  14
ATOM      7  C   UNL     1       1.611   1.722  -0.898  0.00  0.00    +0.034 C 
ATOM      8  C   UNL     1       0.713   0.795  -0.076  0.00  0.00    +0.055 C 
ATOM      9  C   UNL     1      -0.546   1.552   0.363  0.00  0.00    +0.185 C 
ATOM     10  O   UNL     1      -0.180   2.571   1.297  0.00  0.00    -0.376 OA
ATOM     11  C   UNL     1       0.399   2.075   2.506  0.00  0.00    +0.179 C 
ATOM     12  C   UNL     1       1.706   1.344   2.177  0.00  0.00    +0.136 C 
ATOM     13  N   UNL     1       1.430   0.349   1.129  0.00  0.00    -0.288 N 
ATOM     14  C   UNL     1       1.823  -0.932   1.268  0.00  0.00    +0.247 C 
ATOM     15  O   UNL     1       1.700  -1.710   0.341  0.00  0.00    -0.270 OA
ATOM     16  C   UNL     1       0.317  -0.419  -0.919  0.00  0.00    +0.034 C 
ENDBRANCH   1  14
BRANCH   4  17
ATOM     17  N   UNL     1       4.039  -2.690   6.149  0.00  0.00    -0.188 N 
ATOM     18  C   UNL     1       5.376  -2.733   6.299  0.00  0.00    +0.237 C 
ATOM     19  O   UNL     1       6.098  -2.390   5.387  0.00  0.00    -0.274 OA
ATOM     20  C   UNL     1       5.980  -3.205   7.596  0.00  0.00    +0.107 C 
ATOM     21  C   UNL     1       5.087  -2.779   8.762  0.00  0.00    +0.106 C 
ATOM     22  C   UNL     1       3.656  -3.137   8.459  0.00  0.00    +0.230 C 
ATOM     23  O   UNL     1       2.916  -3.478   9.357  0.00  0.00    -0.274 OA
ATOM     24  N   UNL     1       3.194  -3.073   7.197  0.00  0.00    -0.227 N 
ATOM     25  H   UNL     1       2.269  -3.298   7.013  0.00  0.00    +0.173 HD
ENDBRANCH   4  17
TORSDOF 2
