REMARK  Name = ZINC56215663
REMARK  9 active torsions:
REMARK  status: ('A' for Active; 'I' for Inactive)
REMARK    1  A    between atoms: C_1  and  C_2
REMARK    2  A    between atoms: C_4  and  N_10
REMARK    3  A    between atoms: C_7  and  O_8
REMARK    4  A    between atoms: O_8  and  C_9
REMARK    5  A    between atoms: N_10  and  C_11
REMARK    6  A    between atoms: C_11  and  C_13
REMARK    7  A    between atoms: C_11  and  C_14
REMARK    8  A    between atoms: C_20  and  C_26
REMARK    9  A    between atoms: C_21  and  C_25
REMARK                            x       y       z     vdW  Elec       q    Type
REMARK                         _______ _______ _______ _____ _____    ______ ____
ROOT
ATOM      1  C   UNL     1       0.049  -4.235  -2.428  0.00  0.00    +0.133 C 
ATOM      2  C   UNL     1       1.493  -4.725  -2.313  0.00  0.00    +0.036 C 
ENDROOT
BRANCH   1   3
ATOM      3  C   UNL     1      -0.551  -4.739  -3.715  0.00  0.00    +0.131 A 
ATOM      4  N   UNL     1      -0.546  -6.071  -3.977  0.00  0.00    -0.309 N 
ATOM      5  H   UNL     1      -0.155  -6.681  -3.331  0.00  0.00    +0.170 HD
ATOM      6  C   UNL     1      -1.071  -6.564  -5.114  0.00  0.00    +0.260 A 
ATOM      7  O   UNL     1      -1.059  -7.763  -5.333  0.00  0.00    -0.267 OA
ATOM      8  C   UNL     1      -1.647  -5.657  -6.062  0.00  0.00    +0.075 A 
ATOM      9  C   UNL     1      -2.268  -5.936  -7.343  0.00  0.00    -0.026 A 
ATOM     10  C   UNL     1      -2.746  -4.917  -8.075  0.00  0.00    -0.008 A 
ATOM     11  S   UNL     1      -2.387  -3.485  -7.075  0.00  0.00    -0.073 S 
ATOM     12  C   UNL     1      -1.606  -4.297  -5.704  0.00  0.00    +0.116 A 
ATOM     13  N   UNL     1      -1.073  -3.887  -4.557  0.00  0.00    -0.225 NA
ATOM     14  C   UNL     1      -3.423  -4.971  -9.421  0.00  0.00    +0.052 C 
ATOM     15  C   UNL     1      -2.376  -7.352  -7.846  0.00  0.00    +0.045 C 
ENDBRANCH   1   3
BRANCH   1  16
ATOM     16  N   UNL     1       0.028  -2.770  -2.421  0.00  0.00    -0.334 N 
ATOM     17  H   UNL     1       0.017  -2.281  -3.259  0.00  0.00    +0.147 HD
BRANCH  16  21
ATOM     18  C   UNL     1      -0.018   1.503   0.010  0.00  0.00    +0.047 C 
ATOM     19  C   UNL     1       0.002  -0.004   0.002  0.00  0.00    -0.007 A 
ATOM     20  C   UNL     1       0.006  -0.688  -1.198  0.00  0.00    +0.030 A 
ATOM     21  C   UNL     1       0.025  -2.076  -1.206  0.00  0.00    +0.028 A 
ATOM     22  C   UNL     1       0.041  -2.776  -0.006  0.00  0.00    +0.026 A 
ATOM     23  C   UNL     1       0.037  -2.091   1.193  0.00  0.00    +0.048 A 
ATOM     24  C   UNL     1       0.023  -0.704   1.199  0.00  0.00    +0.123 A 
BRANCH  24  25
ATOM     25  O   UNL     1       0.025  -0.029   2.380  0.00  0.00    -0.495 OA
ATOM     26  C   UNL     1       0.046  -0.814   3.575  0.00  0.00    +0.277 C 
ENDBRANCH  24  25
ENDBRANCH  16  21
ENDBRANCH   1  16
TORSDOF 4
