REMARK  Name = ZINC09487475
REMARK  3 active torsions:
REMARK  status: ('A' for Active; 'I' for Inactive)
REMARK    1  A    between atoms: C_10  and  C_32
REMARK    2  A    between atoms: C_11  and  C_27
REMARK    3  A    between atoms: C_17  and  C_22
REMARK                            x       y       z     vdW  Elec       q    Type
REMARK                         _______ _______ _______ _____ _____    ______ ____
ROOT
ATOM      1  C   UNL     1      -1.198  -5.429  -0.050  0.00  0.00    +0.001 A 
ATOM      2  C   UNL     1      -0.946  -4.667   1.079  0.00  0.00    +0.002 A 
ATOM      3  C   UNL     1      -1.245  -3.318   1.099  0.00  0.00    +0.024 A 
ATOM      4  C   UNL     1      -1.859  -2.724   0.009  0.00  0.00    +0.050 A 
ATOM      5  C   UNL     1      -2.016  -3.476  -1.172  0.00  0.00    +0.036 A 
ATOM      6  C   UNL     1      -1.716  -4.837  -1.182  0.00  0.00    +0.013 A 
ATOM      7  C   UNL     1      -2.508  -2.790  -2.376  0.00  0.00    +0.127 C 
ATOM      8  N   UNL     1      -2.726  -1.492  -2.318  0.00  0.00    -0.215 NA
ATOM      9  C   UNL     1      -2.558  -0.791  -1.187  0.00  0.00    +0.146 C 
ATOM     10  C   UNL     1      -2.680   0.593  -1.267  0.00  0.00    +0.082 C 
ATOM     11  C   UNL     1      -2.481   1.369   0.019  0.00  0.00    +0.098 C 
ATOM     12  C   UNL     1      -2.676   0.569   1.292  0.00  0.00    +0.025 C 
ATOM     13  C   UNL     1      -2.569  -0.781   1.219  0.00  0.00    +0.025 C 
ATOM     14  N   UNL     1      -2.322  -1.411   0.026  0.00  0.00    -0.256 N 
ATOM     15  C   UNL     1      -2.733  -1.589   2.483  0.00  0.00    +0.063 C 
ATOM     16  C   UNL     1      -3.765  -0.913   3.393  0.00  0.00    +0.068 C 
ATOM     17  C   UNL     1      -3.237   0.479   3.759  0.00  0.00    +0.091 C 
ATOM     18  C   UNL     1      -2.975   1.239   2.484  0.00  0.00    +0.162 C 
ATOM     19  O   UNL     1      -3.030   2.454   2.499  0.00  0.00    -0.292 OA
ATOM     20  N   UNL     1      -2.736  -3.481  -3.540  0.00  0.00    -0.343 N 
ATOM     21  H   UNL     1      -3.060  -3.014  -4.326  0.00  0.00    +0.144 HD
ATOM     22  H   UNL     1      -2.573  -4.437  -3.576  0.00  0.00    +0.144 HD
ENDROOT
BRANCH  16  23
ATOM     23  C   UNL     1      -3.947  -1.732   4.644  0.00  0.00    +0.109 A 
ATOM     24  C   UNL     1      -5.100  -2.288   5.060  0.00  0.00    +0.045 A 
ATOM     25  C   UNL     1      -4.817  -2.961   6.270  0.00  0.00    +0.041 A 
ATOM     26  C   UNL     1      -3.508  -2.777   6.522  0.00  0.00    +0.195 A 
ATOM     27  O   UNL     1      -2.986  -2.036   5.531  0.00  0.00    -0.468 OA
ENDBRANCH  16  23
BRANCH  11  28
ATOM     28  C   UNL     1      -1.077   1.915   0.017  0.00  0.00    -0.028 A 
ATOM     29  C   UNL     1      -0.855   3.279   0.027  0.00  0.00    +0.012 A 
ATOM     30  C   UNL     1       0.421   3.738   0.017  0.00  0.00    +0.045 A 
ATOM     31  S   UNL     1       1.359   2.219   0.001  0.00  0.00    -0.105 S 
ATOM     32  C   UNL     1      -0.013   1.076   0.008  0.00  0.00    +0.049 A 
ENDBRANCH  11  28
BRANCH  10  33
ATOM     33  C   UNL     1      -2.977   1.253  -2.498  0.00  0.00    +0.099 C 
ATOM     34  N   UNL     1      -3.214   1.778  -3.478  0.00  0.00    -0.191 NA
ENDBRANCH  10  33
TORSDOF 3
