REMARK  Name = ZINC22895592
REMARK  8 active torsions:
REMARK  status: ('A' for Active; 'I' for Inactive)
REMARK    1  A    between atoms: C_1  and  C_2
REMARK    2  A    between atoms: C_2  and  C_3
REMARK    3  A    between atoms: N_12  and  C_13
REMARK    4  A    between atoms: C_13  and  C_14
REMARK    5  A    between atoms: C_19  and  C_21
REMARK    6  A    between atoms: C_24  and  S_27
REMARK    7  A    between atoms: S_27  and  N_30
REMARK    8  A    between atoms: C_35  and  C_37
REMARK                            x       y       z     vdW  Elec       q    Type
REMARK                         _______ _______ _______ _____ _____    ______ ____
ROOT
ATOM      1  C   UNL     1       2.324   5.074   7.910  0.00  0.00    -0.046 A 
ATOM      2  C   UNL     1       3.710   5.127   7.945  0.00  0.00    +0.006 A 
ATOM      3  C   UNL     1       4.468   3.989   8.027  0.00  0.00    +0.029 A 
ATOM      4  C   UNL     1       3.856   2.715   8.079  0.00  0.00    +0.080 A 
ATOM      5  C   UNL     1       2.443   2.700   8.041  0.00  0.00    +0.041 A 
ATOM      6  C   UNL     1       1.692   3.846   7.965  0.00  0.00    +0.021 A 
ATOM      7  S   UNL     1       2.081   0.962   8.126  0.00  0.00    -0.052 S 
ATOM      8  C   UNL     1       3.771   0.385   8.203  0.00  0.00    +0.169 A 
ATOM      9  N   UNL     1       4.452   1.506   8.161  0.00  0.00    -0.224 NA
ATOM     10  N   UNL     1       4.241  -0.915   8.287  0.00  0.00    -0.239 N 
ATOM     11  C   UNL     1       3.373  -1.945   8.319  0.00  0.00    +0.253 C 
ATOM     12  O   UNL     1       2.178  -1.736   8.235  0.00  0.00    -0.270 OA
ENDROOT
BRANCH  11  13
ATOM     13  C   UNL     1       3.873  -3.329   8.458  0.00  0.00    +0.037 A 
ATOM     14  C   UNL     1       4.933  -3.608   9.322  0.00  0.00    +0.015 A 
ATOM     15  C   UNL     1       5.392  -4.903   9.450  0.00  0.00    +0.029 A 
ATOM     16  C   UNL     1       4.811  -5.922   8.716  0.00  0.00    +0.106 A 
ATOM     17  C   UNL     1       3.763  -5.651   7.854  0.00  0.00    +0.029 A 
ATOM     18  C   UNL     1       3.291  -4.362   7.721  0.00  0.00    +0.015 A 
BRANCH  16  19
ATOM     19  S   UNL     1       5.407  -7.572   8.882  0.00  0.00    +0.061 S 
ATOM     20  O   UNL     1       6.164  -7.611  10.083  0.00  0.00    -0.153 OA
ATOM     21  O   UNL     1       4.298  -8.429   8.651  0.00  0.00    -0.153 OA
BRANCH  19  22
ATOM     22  N   UNL     1       6.473  -7.833   7.642  0.00  0.00    -0.174 NA
ATOM     23  C   UNL     1       6.058  -8.572   6.441  0.00  0.00    +0.110 C 
ATOM     24  C   UNL     1       7.043  -9.722   6.205  0.00  0.00    +0.017 C 
ATOM     25  C   UNL     1       8.466  -9.164   6.139  0.00  0.00    +0.003 C 
ATOM     26  C   UNL     1       8.816  -8.494   7.470  0.00  0.00    +0.020 C 
ATOM     27  C   UNL     1       7.849  -7.325   7.718  0.00  0.00    +0.077 C 
ATOM     28  C   UNL     1       8.102  -6.734   9.107  0.00  0.00    +0.026 C 
ENDBRANCH  19  22
ENDBRANCH  16  19
ENDBRANCH  11  13
BRANCH   1  30
ATOM     29  C   UNL     1       1.282   6.694   6.348  0.00  0.00    +0.009 C 
ATOM     30  C   UNL     1       1.516   6.343   7.819  0.00  0.00    +0.032 C 
ENDBRANCH   1  30
BRANCH  10  31
ATOM     31  C   UNL     1       5.683  -1.170   8.340  0.00  0.00    +0.190 C 
BRANCH  31  32
ATOM     32  C   UNL     1       6.292  -0.379   9.469  0.00  0.00    +0.123 A 
ATOM     33  C   UNL     1       6.355  -0.766  10.756  0.00  0.00    +0.046 A 
ATOM     34  C   UNL     1       7.002   0.273  11.464  0.00  0.00    +0.041 A 
ATOM     35  C   UNL     1       7.296   1.232  10.568  0.00  0.00    +0.195 A 
ATOM     36  O   UNL     1       6.869   0.829   9.360  0.00  0.00    -0.466 OA
ENDBRANCH  31  32
ENDBRANCH  10  31
TORSDOF 6
