REMARK  Name = ZINC03846608
REMARK  10 active torsions:
REMARK  status: ('A' for Active; 'I' for Inactive)
REMARK    1  A    between atoms: C_1  and  N_2
REMARK    2  A    between atoms: C_9  and  O_27
REMARK    3  A    between atoms: C_10  and  C_13
REMARK    4  A    between atoms: C_13  and  C_15
REMARK    5  A    between atoms: C_15  and  C_16
REMARK    6  A    between atoms: C_16  and  C_18
REMARK    7  A    between atoms: C_16  and  N_50
REMARK    8  A    between atoms: C_21  and  N_24
REMARK    9  A    between atoms: N_24  and  C_25
REMARK   10  A    between atoms: N_24  and  C_26
REMARK                            x       y       z     vdW  Elec       q    Type
REMARK                         _______ _______ _______ _____ _____    ______ ____
ROOT
ATOM      1  C   UNL     1      -3.648   5.741  -0.090  0.00  0.00    +0.171 C 
ATOM      2  O   UNL     1      -4.670   5.104  -0.246  0.00  0.00    -0.292 OA
ENDROOT
BRANCH   1  12
ATOM      3  C   UNL     1       1.263   6.013   0.123  0.00  0.00    +0.152 C 
ATOM      4  N   UNL     1       0.037   5.212   0.068  0.00  0.00    -0.310 N 
ATOM      5  C   UNL     1       0.135   3.835   0.067  0.00  0.00    +0.055 A 
ATOM      6  C   UNL     1       1.383   3.222   0.118  0.00  0.00    +0.026 A 
ATOM      7  C   UNL     1       1.474   1.847   0.117  0.00  0.00    +0.002 A 
ATOM      8  C   UNL     1       0.330   1.062   0.065  0.00  0.00    +0.001 A 
ATOM      9  C   UNL     1      -0.905   1.641   0.008  0.00  0.00    +0.013 A 
ATOM     10  C   UNL     1      -1.022   3.036   0.014  0.00  0.00    +0.041 A 
ATOM     11  C   UNL     1      -2.340   3.674  -0.041  0.00  0.00    +0.142 A 
ATOM     12  C   UNL     1      -2.400   5.074  -0.038  0.00  0.00    +0.124 A 
ATOM     13  C   UNL     1      -1.151   5.838   0.019  0.00  0.00    +0.266 A 
ATOM     14  O   UNL     1      -1.190   7.055   0.021  0.00  0.00    -0.267 OA
BRANCH  11  15
ATOM     15  O   UNL     1      -3.466   2.934  -0.092  0.00  0.00    -0.505 OA
ATOM     16  H   UNL     1      -4.306   3.409  -0.040  0.00  0.00    +0.292 HD
ENDBRANCH  11  15
ENDBRANCH   1  12
BRANCH   1  17
ATOM     17  C   UNL     1      -3.708   7.240   0.048  0.00  0.00    +0.068 C 
BRANCH  17  18
ATOM     18  C   UNL     1      -5.163   7.703  -0.042  0.00  0.00    -0.037 C 
BRANCH  18  19
ATOM     19  C   UNL     1      -5.213   9.209  -0.027  0.00  0.00    -0.061 A 
ATOM     20  C   UNL     1      -5.112   9.891   1.171  0.00  0.00    +0.004 A 
ATOM     21  C   UNL     1      -5.152  11.272   1.188  0.00  0.00    +0.023 A 
ATOM     22  C   UNL     1      -5.305  11.975  -0.000  0.00  0.00    +0.029 A 
ATOM     23  C   UNL     1      -5.412  11.287  -1.202  0.00  0.00    +0.023 A 
ATOM     24  C   UNL     1      -5.366   9.906  -1.212  0.00  0.00    +0.004 A 
BRANCH  22  25
ATOM     25  N   UNL     1      -5.352  13.371   0.014  0.00  0.00    -0.336 N 
ATOM     26  C   UNL     1      -5.630  14.107  -1.222  0.00  0.00    +0.129 C 
ATOM     27  C   UNL     1      -5.123  14.099   1.264  0.00  0.00    +0.129 C 
ENDBRANCH  22  25
ENDBRANCH  18  19
BRANCH  18  30
ATOM     28  H   UNL     1      -5.526   7.505   1.975  0.00  0.00    -0.089 HD
ATOM     29  H   UNL     1      -6.894   7.415   1.034  0.00  0.00    -0.089 HD
ATOM     30  N   UNL     1      -5.913   7.152   1.101  0.00  0.00    +0.383 N 
ATOM     31  H   UNL     1      -5.838   6.128   1.091  0.00  0.00    -0.089 HD
ENDBRANCH  18  30
ENDBRANCH  17  18
ENDBRANCH   1  17
TORSDOF 7
