REMARK  Name = ZINC59403277
REMARK  9 active torsions:
REMARK  status: ('A' for Active; 'I' for Inactive)
REMARK    1  A    between atoms: C_1  and  C_2
REMARK    2  A    between atoms: C_5  and  C_7
REMARK    3  A    between atoms: C_10  and  C_12
REMARK    4  A    between atoms: C_12  and  N_13
REMARK    5  A    between atoms: N_13  and  C_14
REMARK    6  A    between atoms: N_13  and  C_30
REMARK    7  A    between atoms: C_14  and  C_15
REMARK    8  A    between atoms: N_17  and  C_18
REMARK    9  A    between atoms: C_19  and  C_27
REMARK                            x       y       z     vdW  Elec       q    Type
REMARK                         _______ _______ _______ _____ _____    ______ ____
ROOT
ATOM      1  C   UNL     1       2.494  -8.183  -0.310  0.00  0.00    +0.201 C 
ATOM      2  O   UNL     1       3.455  -7.447  -0.233  0.00  0.00    -0.278 OA
ATOM      3  N   UNL     1       2.609  -9.377  -0.925  0.00  0.00    -0.281 N 
ATOM      4  H   UNL     1       1.841  -9.966  -0.987  0.00  0.00    +0.155 HD
ENDROOT
BRANCH   3   5
ATOM      5  C   UNL     1       3.824  -9.763  -1.469  0.00  0.00    +0.084 A 
ATOM      6  C   UNL     1       4.124 -10.940  -2.137  0.00  0.00    +0.068 A 
ATOM      7  C   UNL     1       5.486 -11.105  -2.614  0.00  0.00    -0.023 A 
ATOM      8  C   UNL     1       6.298 -10.063  -2.336  0.00  0.00    -0.004 A 
ATOM      9  S   UNL     1       5.270  -8.909  -1.477  0.00  0.00    -0.077 S 
ATOM     10  C   UNL     1       7.747  -9.933  -2.691  0.00  0.00    +0.043 C 
ATOM     11  C   UNL     1       8.273 -11.320  -3.088  0.00  0.00    +0.005 C 
ATOM     12  C   UNL     1       7.296 -11.955  -4.081  0.00  0.00    +0.005 C 
ATOM     13  C   UNL     1       5.995 -12.326  -3.366  0.00  0.00    +0.037 C 
BRANCH   6  14
ATOM     14  C   UNL     1       3.108 -11.976  -2.352  0.00  0.00    +0.244 C 
ATOM     15  O   UNL     1       2.421 -11.955  -3.356  0.00  0.00    -0.270 OA
ATOM     16  N   UNL     1       2.937 -12.951  -1.437  0.00  0.00    -0.325 N 
ATOM     17  H   UNL     1       3.484 -12.968  -0.637  0.00  0.00    +0.145 HD
ATOM     18  H   UNL     1       2.265 -13.636  -1.579  0.00  0.00    +0.145 HD
ENDBRANCH   6  14
ENDBRANCH   3   5
BRANCH   1  19
ATOM     19  C   UNL     1       1.173  -7.764   0.281  0.00  0.00    +0.020 C 
BRANCH  19  20
ATOM     20  N   UNL     1       1.269  -6.378   0.759  0.00  0.00    +0.392 N 
ATOM     21  H   UNL     1       2.059  -6.291   1.381  0.00  0.00    -0.080 HD
BRANCH  20  22
ATOM     22  C   UNL     1       0.038  -6.022   1.478  0.00  0.00    -0.067 C 
ATOM     23  C   UNL     1       0.187  -5.308   2.823  0.00  0.00    -0.017 C 
ATOM     24  C   UNL     1      -0.262  -6.770   2.779  0.00  0.00    -0.017 C 
ENDBRANCH  20  22
BRANCH  20  25
ATOM     25  C   UNL     1       1.445  -5.476  -0.386  0.00  0.00    -0.002 C 
BRANCH  25  29
ATOM     26  C   UNL     1       1.267  -2.019   0.777  0.00  0.00    +0.108 A 
ATOM     27  C   UNL     1       2.600  -2.192   0.825  0.00  0.00    +0.045 A 
ATOM     28  C   UNL     1       2.857  -3.515   0.395  0.00  0.00    +0.043 A 
ATOM     29  C   UNL     1       1.666  -4.070   0.111  0.00  0.00    +0.089 A 
ATOM     30  O   UNL     1       0.706  -3.162   0.349  0.00  0.00    -0.466 OA
BRANCH  26  34
ATOM     31  C   UNL     1      -0.396   1.433   0.058  0.00  0.00    +0.008 C 
ATOM     32  C   UNL     1      -0.323  -0.095   0.062  0.00  0.00    -0.003 C 
ATOM     33  C   UNL     1      -0.999  -0.831   1.222  0.00  0.00    +0.015 C 
ATOM     34  C   UNL     1       0.528  -0.759   1.147  0.00  0.00    +0.058 C 
ENDBRANCH  26  34
ENDBRANCH  25  29
ENDBRANCH  20  25
ENDBRANCH  19  20
ENDBRANCH   1  19
TORSDOF 8
