REMARK  Name = ZINC12823036
REMARK  7 active torsions:
REMARK  status: ('A' for Active; 'I' for Inactive)
REMARK    1  A    between atoms: C_3  and  C_6
REMARK    2  A    between atoms: C_9  and  C_26
REMARK    3  A    between atoms: C_12  and  C_14
REMARK    4  A    between atoms: C_14  and  O_15
REMARK    5  A    between atoms: O_15  and  C_16
REMARK    6  A    between atoms: C_16  and  C_18
REMARK    7  A    between atoms: C_22  and  N_24
REMARK                            x       y       z     vdW  Elec       q    Type
REMARK                         _______ _______ _______ _____ _____    ______ ____
ROOT
ATOM      1  C   UNL     1      -0.013   1.086   0.008  0.00  0.00    +0.173 C 
ATOM      2  C   UNL     1      -0.791   1.611   1.231  0.00  0.00    +0.090 C 
ATOM      3  C   UNL     1      -1.944   2.383   0.620  0.00  0.00    +0.069 C 
ATOM      4  N   UNL     1      -1.865   2.330  -0.665  0.00  0.00    -0.181 NA
ATOM      5  N   UNL     1      -0.778   1.600  -1.139  0.00  0.00    -0.179 N 
ATOM      6  C   UNL     1      -0.476   1.397  -2.437  0.00  0.00    +0.273 C 
ATOM      7  O   UNL     1       0.500   0.742  -2.737  0.00  0.00    -0.270 OA
ENDROOT
BRANCH   3   8
ATOM      8  C   UNL     1      -2.993   3.088   1.380  0.00  0.00    -0.002 A 
ATOM      9  C   UNL     1      -2.977   3.071   2.777  0.00  0.00    +0.011 A 
ATOM     10  C   UNL     1      -3.959   3.736   3.482  0.00  0.00    +0.020 A 
ATOM     11  C   UNL     1      -4.963   4.410   2.808  0.00  0.00    +0.041 A 
ATOM     12  C   UNL     1      -4.987   4.426   1.424  0.00  0.00    +0.020 A 
ATOM     13  C   UNL     1      -4.009   3.770   0.707  0.00  0.00    +0.011 A 
ATOM     14 CL   UNL     1      -6.198   5.239   3.703  0.00  0.00    -0.084 Cl
ENDBRANCH   3   8
BRANCH   1  17
ATOM     15  C   UNL     1       3.587   1.854   0.201  0.00  0.00    +0.041 A 
ATOM     16  C   UNL     1       2.499   0.967   0.369  0.00  0.00    +0.046 A 
ATOM     17  C   UNL     1       1.391   1.634  -0.003  0.00  0.00    +0.128 A 
ATOM     18  O   UNL     1       1.749   2.869  -0.390  0.00  0.00    -0.466 OA
ATOM     19  C   UNL     1       3.079   3.010  -0.263  0.00  0.00    +0.195 A 
ENDBRANCH   1  17
BRANCH   6  20
ATOM     20  C   UNL     1      -1.350   1.984  -3.515  0.00  0.00    +0.330 C 
BRANCH  20  21
ATOM     21  O   UNL     1      -0.819   1.627  -4.818  0.00  0.00    -0.452 OA
BRANCH  21  22
ATOM     22  C   UNL     1      -1.489   2.077  -5.896  0.00  0.00    +0.340 C 
ATOM     23  O   UNL     1      -2.490   2.750  -5.752  0.00  0.00    -0.245 OA
BRANCH  22  24
ATOM     24  C   UNL     1      -1.006   1.753  -7.254  0.00  0.00    +0.061 A 
ATOM     25  C   UNL     1       0.145   0.980  -7.422  0.00  0.00    +0.016 A 
ATOM     26  C   UNL     1       0.594   0.678  -8.691  0.00  0.00    +0.022 A 
ATOM     27  C   UNL     1      -0.093   1.139  -9.800  0.00  0.00    +0.062 A 
ATOM     28  C   UNL     1      -1.240   1.909  -9.643  0.00  0.00    +0.044 A 
ATOM     29  C   UNL     1      -1.702   2.213  -8.373  0.00  0.00    +0.039 A 
ATOM     30 CL   UNL     1       0.480   0.754 -11.394  0.00  0.00    -0.082 Cl
BRANCH  28  31
ATOM     31  N   UNL     1      -1.931   2.372 -10.767  0.00  0.00    -0.357 N 
ATOM     32  H   UNL     1      -1.610   2.156 -11.657  0.00  0.00    +0.142 HD
ATOM     33  H   UNL     1      -2.731   2.909 -10.658  0.00  0.00    +0.142 HD
ENDBRANCH  28  31
ENDBRANCH  22  24
ENDBRANCH  21  22
ENDBRANCH  20  21
ENDBRANCH   6  20
TORSDOF 7
