REMARK  Name = ZINC57779150
REMARK  5 active torsions:
REMARK  status: ('A' for Active; 'I' for Inactive)
REMARK    1  A    between atoms: C_1  and  C_2
REMARK    2  A    between atoms: N_5  and  C_8
REMARK    3  A    between atoms: C_11  and  N_14
REMARK    4  A    between atoms: C_19  and  C_22
REMARK    5  A    between atoms: C_22  and  C_23
REMARK                            x       y       z     vdW  Elec       q    Type
REMARK                         _______ _______ _______ _____ _____    ______ ____
ROOT
ATOM      1  N   UNL     1      -0.870  -8.034   1.708  0.00  0.00    -0.284 N 
ATOM      2  C   UNL     1       0.074  -8.796   1.067  0.00  0.00    +0.217 A 
ATOM      3  N   UNL     1       1.074  -8.200   0.449  0.00  0.00    -0.174 NA
ATOM      4  C   UNL     1       2.008  -8.920  -0.184  0.00  0.00    +0.297 A 
ATOM      5  O   UNL     1       2.933  -8.364  -0.755  0.00  0.00    -0.264 OA
ATOM      6  C   UNL     1       1.912 -10.382  -0.185  0.00  0.00    +0.135 A 
ATOM      7  N   UNL     1       0.912 -10.949   0.435  0.00  0.00    -0.170 NA
ATOM      8  N   UNL     1      -0.036 -10.148   1.086  0.00  0.00    -0.248 N 
ATOM      9  H   UNL     1      -1.563  -8.463   2.234  0.00  0.00    +0.155 HD
ATOM     10  H   UNL     1      -0.779 -10.564   1.551  0.00  0.00    +0.192 HD
ENDROOT
BRANCH   1  14
ATOM     11  C   UNL     1      -0.762  -3.882   1.395  0.00  0.00    +0.014 A 
ATOM     12  C   UNL     1      -0.360  -4.665   0.328  0.00  0.00    +0.023 A 
ATOM     13  C   UNL     1      -0.395  -6.042   0.429  0.00  0.00    +0.025 A 
ATOM     14  C   UNL     1      -0.834  -6.640   1.603  0.00  0.00    +0.034 A 
ATOM     15  C   UNL     1      -1.236  -5.851   2.672  0.00  0.00    +0.025 A 
ATOM     16  C   UNL     1      -1.194  -4.474   2.567  0.00  0.00    +0.023 A 
BRANCH  11  21
ATOM     17  C   UNL     1      -0.213   1.519  -0.108  0.00  0.00    +0.007 C 
ATOM     18  C   UNL     1      -0.206  -0.011  -0.119  0.00  0.00    -0.011 C 
ATOM     19  C   UNL     1      -1.626  -0.531   0.122  0.00  0.00    +0.020 C 
ATOM     20  C   UNL     1      -1.599  -2.059   0.190  0.00  0.00    +0.085 C 
ATOM     21  N   UNL     1      -0.726  -2.489   1.289  0.00  0.00    -0.393 NA
ATOM     22  C   UNL     1       0.652  -2.054   1.030  0.00  0.00    +0.085 C 
ATOM     23  C   UNL     1       0.711  -0.526   0.994  0.00  0.00    +0.020 C 
ATOM     24  H   UNL     1      -1.049  -2.079   2.153  0.00  0.00    +0.126 HD
ENDBRANCH  11  21
ENDBRANCH   1  14
BRANCH   6  25
ATOM     25  C   UNL     1       2.949 -11.218  -0.889  0.00  0.00    +0.137 C 
BRANCH  25  26
ATOM     26  C   UNL     1       2.609 -12.678  -0.733  0.00  0.00    +0.111 A 
ATOM     27  C   UNL     1       1.845 -13.402  -1.570  0.00  0.00    +0.045 A 
ATOM     28  C   UNL     1       1.790 -14.713  -1.045  0.00  0.00    +0.041 A 
ATOM     29  C   UNL     1       2.524 -14.712   0.083  0.00  0.00    +0.195 A 
ATOM     30  O   UNL     1       3.022 -13.478   0.264  0.00  0.00    -0.467 OA
ENDBRANCH  25  26
ENDBRANCH   6  25
TORSDOF 4
