REMARK  Name = ZINC33569189
REMARK  7 active torsions:
REMARK  status: ('A' for Active; 'I' for Inactive)
REMARK    1  A    between atoms: C_7  and  N_19
REMARK    2  A    between atoms: C_8  and  C_10
REMARK    3  A    between atoms: C_10  and  C_12
REMARK    4  A    between atoms: C_20  and  C_22
REMARK    5  A    between atoms: C_22  and  O_23
REMARK    6  A    between atoms: O_23  and  C_24
REMARK    7  A    between atoms: C_27  and  N_30
REMARK                            x       y       z     vdW  Elec       q    Type
REMARK                         _______ _______ _______ _____ _____    ______ ____
ROOT
ATOM      1  C   UNL     1       6.114   9.946  -0.929  0.00  0.00    +0.001 A 
ATOM      2  C   UNL     1       5.507  11.172  -0.691  0.00  0.00    +0.004 A 
ATOM      3  C   UNL     1       4.209  11.238  -0.235  0.00  0.00    +0.047 A 
ATOM      4  C   UNL     1       3.493  10.067  -0.009  0.00  0.00    +0.138 A 
ATOM      5  C   UNL     1       4.115   8.829  -0.247  0.00  0.00    +0.042 A 
ATOM      6  C   UNL     1       5.430   8.783  -0.714  0.00  0.00    +0.013 A 
ATOM      7  C   UNL     1       3.112   7.807   0.076  0.00  0.00    +0.091 A 
ATOM      8  C   UNL     1       1.990   8.501   0.483  0.00  0.00    +0.197 A 
ATOM      9  O   UNL     1       2.239   9.828   0.424  0.00  0.00    -0.450 OA
ENDROOT
BRANCH   7  10
ATOM     10  N   UNL     1       3.263   6.429  -0.006  0.00  0.00    -0.279 N 
ATOM     11  C   UNL     1       4.148   5.898  -0.873  0.00  0.00    +0.255 C 
ATOM     12  O   UNL     1       4.764   6.620  -1.628  0.00  0.00    -0.272 OA
ATOM     13  H   UNL     1       2.660   5.771   0.636  0.00  0.00    +0.155 HD
BRANCH  11  14
ATOM     14  C   UNL     1       4.372   4.408  -0.903  0.00  0.00    +0.324 C 
BRANCH  14  15
ATOM     15  O   UNL     1       5.349   4.094  -1.897  0.00  0.00    -0.483 OA
BRANCH  15  16
ATOM     16  C   UNL     1       5.669   2.782  -2.054  0.00  0.00    +0.121 A 
ATOM     17  C   UNL     1       6.610   2.405  -3.002  0.00  0.00    +0.048 A 
ATOM     18  C   UNL     1       6.933   1.071  -3.160  0.00  0.00    +0.036 A 
ATOM     19  C   UNL     1       6.320   0.113  -2.375  0.00  0.00    +0.126 A 
ATOM     20  C   UNL     1       5.382   0.486  -1.430  0.00  0.00    +0.036 A 
ATOM     21  C   UNL     1       5.055   1.818  -1.269  0.00  0.00    +0.048 A 
BRANCH  19  22
ATOM     22  N   UNL     1       6.668  -1.316  -2.546  0.00  0.00    +0.056 N 
ATOM     23  O   UNL     1       7.494  -1.645  -3.378  0.00  0.00    -0.126 OA
ATOM     24  O   UNL     1       6.129  -2.161  -1.856  0.00  0.00    -0.126 OA
ENDBRANCH  19  22
ENDBRANCH  15  16
ENDBRANCH  14  15
ENDBRANCH  11  14
ENDBRANCH   7  10
BRANCH   8  25
ATOM     25  C   UNL     1       0.769   7.913   0.897  0.00  0.00    +0.230 C 
ATOM     26  O   UNL     1       0.680   6.703   1.002  0.00  0.00    -0.283 OA
BRANCH  25  27
ATOM     27  C   UNL     1      -0.398   8.770   1.201  0.00  0.00    +0.026 A 
ATOM     28  C   UNL     1      -0.262  10.159   1.215  0.00  0.00    +0.014 A 
ATOM     29  C   UNL     1      -1.354  10.953   1.493  0.00  0.00    +0.039 A 
ATOM     30  C   UNL     1      -2.583  10.374   1.771  0.00  0.00    +0.123 A 
ATOM     31  C   UNL     1      -2.721   8.994   1.764  0.00  0.00    +0.039 A 
ATOM     32  C   UNL     1      -1.637   8.191   1.481  0.00  0.00    +0.014 A 
ATOM     33  F   UNL     1      -3.648  11.156   2.048  0.00  0.00    -0.205 F 
ENDBRANCH  25  27
ENDBRANCH   8  25
TORSDOF 7
