REMARK  Name = ZINC20464908
REMARK  9 active torsions:
REMARK  status: ('A' for Active; 'I' for Inactive)
REMARK    1  A    between atoms: C_4  and  N_7
REMARK    2  A    between atoms: N_10  and  C_13
REMARK    3  A    between atoms: C_15  and  C_25
REMARK    4  A    between atoms: C_18  and  C_23
REMARK    5  A    between atoms: C_20  and  O_22
REMARK    6  A    between atoms: C_23  and  O_24
REMARK    7  A    between atoms: C_25  and  N_26
REMARK    8  A    between atoms: N_26  and  C_27
REMARK    9  A    between atoms: C_27  and  C_28
REMARK                            x       y       z     vdW  Elec       q    Type
REMARK                         _______ _______ _______ _____ _____    ______ ____
ROOT
ATOM      1  C   UNL     1       2.269   4.716  -0.674  0.00  0.00    +0.115 C 
ATOM      2  C   UNL     1       0.960   5.234  -1.302  0.00  0.00    +0.122 C 
ATOM      3  O   UNL     1       0.055   4.120  -1.381  0.00  0.00    -0.369 OA
ATOM      4  C   UNL     1       0.430   3.196  -0.338  0.00  0.00    +0.174 C 
ATOM      5  C   UNL     1       1.979   3.227  -0.368  0.00  0.00    +0.165 C 
ENDROOT
BRANCH   1   9
ATOM      6  N   UNL     1       6.062   5.403  -2.401  0.00  0.00    -0.327 N 
ATOM      7  C   UNL     1       4.972   6.325  -2.746  0.00  0.00    +0.120 C 
ATOM      8  C   UNL     1       3.869   6.224  -1.690  0.00  0.00    +0.104 C 
ATOM      9  N   UNL     1       3.382   4.839  -1.625  0.00  0.00    -0.292 NA
ATOM     10  C   UNL     1       4.473   3.916  -1.280  0.00  0.00    +0.104 C 
ATOM     11  C   UNL     1       5.576   4.017  -2.336  0.00  0.00    +0.120 C 
BRANCH   6  15
ATOM     12  C   UNL     1       9.217   5.750  -5.096  0.00  0.00    +0.000 A 
ATOM     13  C   UNL     1       9.299   4.848  -4.051  0.00  0.00    +0.002 A 
ATOM     14  C   UNL     1       8.254   4.730  -3.155  0.00  0.00    +0.023 A 
ATOM     15  C   UNL     1       7.121   5.519  -3.305  0.00  0.00    +0.030 A 
ATOM     16  C   UNL     1       7.040   6.420  -4.359  0.00  0.00    +0.023 A 
ATOM     17  C   UNL     1       8.091   6.536  -5.248  0.00  0.00    +0.002 A 
ENDBRANCH   6  15
ENDBRANCH   1   9
BRANCH   5  18
ATOM     18  O   UNL     1       2.486   2.385  -1.406  0.00  0.00    -0.388 OA
ATOM     19  H   UNL     1       2.361   1.294  -1.339  0.00  0.00    +0.210 HD
ENDBRANCH   5  18
BRANCH   4  20
ATOM     20  C   UNL     1      -0.088   1.791  -0.650  0.00  0.00    +0.190 C 
BRANCH  20  21
ATOM     21  O   UNL     1      -1.509   1.763  -0.502  0.00  0.00    -0.392 OA
ATOM     22  H   UNL     1      -2.062   0.830  -0.686  0.00  0.00    +0.210 HD
ENDBRANCH  20  21
ENDBRANCH   4  20
BRANCH   2  23
ATOM     23  C   UNL     1       1.237   5.781  -2.704  0.00  0.00    -0.049 C 
BRANCH  23  24
ATOM     24  N   UNL     1      -0.037   6.082  -3.372  0.00  0.00    +0.383 N 
ATOM     25  H   UNL     1      -0.636   5.163  -3.449  0.00  0.00    -0.085 HD
ATOM     26  H   UNL     1      -0.589   6.832  -2.788  0.00  0.00    -0.085 HD
BRANCH  24  27
ATOM     27  C   UNL     1       0.190   6.610  -4.724  0.00  0.00    -0.047 C 
BRANCH  27  28
ATOM     28  C   UNL     1      -1.136   6.906  -5.376  0.00  0.00    -0.063 A 
ATOM     29  C   UNL     1      -1.712   8.155  -5.235  0.00  0.00    +0.002 A 
ATOM     30  C   UNL     1      -2.928   8.427  -5.833  0.00  0.00    +0.002 A 
ATOM     31  C   UNL     1      -3.568   7.451  -6.573  0.00  0.00    +0.020 A 
ATOM     32  C   UNL     1      -2.992   6.202  -6.715  0.00  0.00    +0.041 A 
ATOM     33  C   UNL     1      -1.772   5.931  -6.120  0.00  0.00    +0.021 A 
ATOM     34 CL   UNL     1      -3.796   4.975  -7.644  0.00  0.00    -0.084 Cl
ENDBRANCH  27  28
ENDBRANCH  24  27
ENDBRANCH  23  24
ENDBRANCH   2  23
TORSDOF 9
