REMARK  Name = ZINC38652870
REMARK  8 active torsions:
REMARK  status: ('A' for Active; 'I' for Inactive)
REMARK    1  A    between atoms: C_1  and  C_2
REMARK    2  A    between atoms: C_5  and  O_32
REMARK    3  A    between atoms: C_16  and  O_31
REMARK    4  A    between atoms: C_19  and  C_30
REMARK    5  A    between atoms: C_24  and  C_25
REMARK    6  A    between atoms: C_24  and  O_29
REMARK    7  A    between atoms: C_25  and  C_27
REMARK    8  A    between atoms: C_27  and  O_28
REMARK                            x       y       z     vdW  Elec       q    Type
REMARK                         _______ _______ _______ _____ _____    ______ ____
ROOT
ATOM      1  C   UNL     1       1.052   1.562   0.450  0.00  0.00    +0.012 C 
ATOM      2  C   UNL     1       0.937   0.042   0.412  0.00  0.00    -0.024 C 
ATOM      3  C   UNL     1      -0.505  -0.363   0.725  0.00  0.00    +0.010 C 
ATOM      4  C   UNL     1      -0.882   0.011   2.157  0.00  0.00    +0.032 C 
ATOM      5  C   UNL     1       0.073  -0.651   3.150  0.00  0.00    +0.115 C 
ATOM      6  C   UNL     1       1.505  -0.197   2.855  0.00  0.00    +0.035 C 
ATOM      7  C   UNL     1       1.873  -0.611   1.433  0.00  0.00    -0.002 C 
ATOM      8  C   UNL     1       3.334  -0.289   1.141  0.00  0.00    +0.004 C 
ATOM      9  C   UNL     1       3.705  -0.771  -0.266  0.00  0.00    +0.004 C 
ATOM     10  C   UNL     1       2.772  -0.089  -1.270  0.00  0.00    -0.001 C 
ATOM     11  C   UNL     1       1.337  -0.500  -0.972  0.00  0.00    +0.027 C 
ATOM     12  C   UNL     1       0.341  -0.145  -2.052  0.00  0.00    +0.119 C 
ATOM     13  C   UNL     1       0.836  -0.403  -3.485  0.00  0.00    +0.041 C 
ATOM     14  C   UNL     1       2.146  -1.140  -3.487  0.00  0.00    +0.009 C 
ATOM     15  C   UNL     1       3.182  -0.322  -2.690  0.00  0.00    +0.002 C 
ATOM     16  C   UNL     1       4.477  -1.098  -2.954  0.00  0.00    +0.008 C 
ATOM     17  C   UNL     1       4.353  -1.478  -4.456  0.00  0.00    +0.043 C 
ATOM     18  C   UNL     1       2.862  -1.288  -4.841  0.00  0.00    +0.131 C 
ATOM     19  C   UNL     1       1.980  -2.564  -2.947  0.00  0.00    +0.015 C 
ENDROOT
BRANCH  18  20
ATOM     20  C   UNL     1       2.692  -0.075  -5.705  0.00  0.00    +0.190 C 
ATOM     21  O   UNL     1       2.561   1.014  -5.198  0.00  0.00    -0.292 OA
BRANCH  20  22
ATOM     22  C   UNL     1       2.686  -0.213  -7.206  0.00  0.00    +0.233 C 
BRANCH  22  23
ATOM     23  O   UNL     1       2.511   1.074  -7.802  0.00  0.00    -0.387 OA
ATOM     24  H   UNL     1       2.497   1.061  -8.769  0.00  0.00    +0.210 HD
ENDBRANCH  22  23
ENDBRANCH  20  22
ENDBRANCH  18  20
BRANCH  18  25
ATOM     25  O   UNL     1       2.379  -2.455  -5.511  0.00  0.00    -0.380 OA
ATOM     26  H   UNL     1       2.788  -2.611  -6.374  0.00  0.00    +0.211 HD
ENDBRANCH  18  25
BRANCH  12  27
ATOM     27  O   UNL     1      -0.867  -0.907  -1.868  0.00  0.00    -0.391 OA
ATOM     28  H   UNL     1      -1.550  -0.727  -2.529  0.00  0.00    +0.210 HD
ENDBRANCH  12  27
BRANCH   5  29
ATOM     29  O   UNL     1      -0.281  -0.273   4.482  0.00  0.00    -0.392 OA
ATOM     30  H   UNL     1      -1.178  -0.527   4.738  0.00  0.00    +0.210 HD
ENDBRANCH   5  29
TORSDOF 6
