REMARK  Name = ZINC39325277
REMARK  9 active torsions:
REMARK  status: ('A' for Active; 'I' for Inactive)
REMARK    1  A    between atoms: C_1  and  C_2
REMARK    2  A    between atoms: C_6  and  C_8
REMARK    3  A    between atoms: C_8  and  C_9
REMARK    4  A    between atoms: C_9  and  N_10
REMARK    5  A    between atoms: N_10  and  C_11
REMARK    6  A    between atoms: N_10  and  S_25
REMARK    7  A    between atoms: C_11  and  C_12
REMARK    8  A    between atoms: C_17  and  C_24
REMARK    9  A    between atoms: S_25  and  C_28
REMARK                            x       y       z     vdW  Elec       q    Type
REMARK                         _______ _______ _______ _____ _____    ______ ____
ROOT
ATOM      1  N   UNL     1       1.460  -3.833   4.053  0.00  0.00    -0.175 NA
ENDROOT
BRANCH   1   2
ATOM      2  S   UNL     1       1.597  -2.922   5.429  0.00  0.00    +0.061 S 
ATOM      3  O   UNL     1       2.344  -3.698   6.357  0.00  0.00    -0.153 OA
ATOM      4  O   UNL     1       2.006  -1.625   5.018  0.00  0.00    -0.153 OA
BRANCH   2   5
ATOM      5  C   UNL     1      -0.021  -2.751   6.105  0.00  0.00    +0.105 A 
ATOM      6  C   UNL     1      -0.821  -1.690   5.722  0.00  0.00    +0.028 A 
ATOM      7  C   UNL     1      -2.090  -1.555   6.252  0.00  0.00    +0.002 A 
ATOM      8  C   UNL     1      -2.560  -2.481   7.164  0.00  0.00    +0.000 A 
ATOM      9  C   UNL     1      -1.761  -3.542   7.546  0.00  0.00    +0.002 A 
ATOM     10  C   UNL     1      -0.493  -3.679   7.013  0.00  0.00    +0.028 A 
ENDBRANCH   2   5
ENDBRANCH   1   2
BRANCH   1  11
ATOM     11  C   UNL     1       1.324  -3.177   2.751  0.00  0.00    +0.114 C 
BRANCH  11  12
ATOM     12  C   UNL     1      -0.159  -3.043   2.399  0.00  0.00    +0.052 C 
BRANCH  12  18
ATOM     13  C   UNL     1      -0.628   1.130  -0.324  0.00  0.00    +0.044 C 
ATOM     14  C   UNL     1      -0.523  -0.371  -0.244  0.00  0.00    -0.050 A 
ATOM     15  C   UNL     1      -0.555  -1.129  -1.400  0.00  0.00    +0.003 A 
ATOM     16  C   UNL     1      -0.459  -2.506  -1.326  0.00  0.00    +0.001 A 
ATOM     17  C   UNL     1      -0.331  -3.125  -0.097  0.00  0.00    +0.004 A 
ATOM     18  C   UNL     1      -0.298  -2.368   1.059  0.00  0.00    -0.046 A 
ATOM     19  C   UNL     1      -0.390  -0.990   0.985  0.00  0.00    +0.007 A 
ENDBRANCH  12  18
ENDBRANCH  11  12
ENDBRANCH   1  11
BRANCH   1  20
ATOM     20  C   UNL     1       1.473  -5.296   4.139  0.00  0.00    +0.126 C 
BRANCH  20  21
ATOM     21  C   UNL     1       2.902  -5.805   3.942  0.00  0.00    +0.114 C 
ATOM     22  C   UNL     1       3.405  -5.280   2.612  0.00  0.00    -0.003 C 
ATOM     23  C   UNL     1       3.810  -6.198   1.690  0.00  0.00    -0.007 A 
ATOM     24  C   UNL     1       4.308  -5.778   0.380  0.00  0.00    +0.012 A 
ATOM     25  C   UNL     1       4.700  -6.728  -0.508  0.00  0.00    -0.050 A 
ATOM     26  C   UNL     1       4.637  -8.086  -0.194  0.00  0.00    +0.005 A 
ATOM     27  C   UNL     1       4.184  -8.541   1.004  0.00  0.00    +0.024 A 
ATOM     28  C   UNL     1       3.753  -7.639   1.994  0.00  0.00    +0.040 A 
ATOM     29  N   UNL     1       3.312  -8.096   3.166  0.00  0.00    -0.284 N 
ATOM     30  C   UNL     1       2.891  -7.305   4.137  0.00  0.00    +0.225 C 
ATOM     31  O   UNL     1       2.499  -7.781   5.185  0.00  0.00    -0.275 OA
ATOM     32  C   UNL     1       5.215  -6.307  -1.860  0.00  0.00    +0.044 C 
ATOM     33  H   UNL     1       3.297  -9.055   3.311  0.00  0.00    +0.155 HD
ENDBRANCH  20  21
ENDBRANCH   1  20
TORSDOF 7
