REMARK  Name = ZINC09242437
REMARK  8 active torsions:
REMARK  status: ('A' for Active; 'I' for Inactive)
REMARK    1  A    between atoms: C_1  and  C_2
REMARK    2  A    between atoms: C_2  and  C_27
REMARK    3  A    between atoms: N_3  and  N_4
REMARK    4  A    between atoms: C_5  and  C_7
REMARK    5  A    between atoms: C_7  and  S_8
REMARK    6  A    between atoms: S_8  and  C_9
REMARK    7  A    between atoms: N_19  and  C_20
REMARK    8  A    between atoms: C_30  and  N_33
REMARK                            x       y       z     vdW  Elec       q    Type
REMARK                         _______ _______ _______ _____ _____    ______ ____
ROOT
ATOM      1  S   UNL     1      -4.543  -2.401  -4.473  0.00  0.00    -0.078 S 
ENDROOT
BRANCH   1   2
ATOM      2  C   UNL     1      -2.946  -1.660  -4.382  0.00  0.00    +0.177 A 
ATOM      3  N   UNL     1      -2.861  -0.400  -4.032  0.00  0.00    -0.223 NA
ATOM      4  C   UNL     1      -1.673   0.230  -3.942  0.00  0.00    +0.079 A 
ATOM      5  C   UNL     1      -1.582   1.574  -3.567  0.00  0.00    +0.028 A 
ATOM      6  C   UNL     1      -0.356   2.173  -3.489  0.00  0.00    +0.002 A 
ATOM      7  C   UNL     1       0.804   1.466  -3.776  0.00  0.00    +0.001 A 
ATOM      8  C   UNL     1       0.748   0.151  -4.146  0.00  0.00    +0.015 A 
ATOM      9  C   UNL     1      -0.489  -0.486  -4.234  0.00  0.00    +0.065 A 
ATOM     10  C   UNL     1      -0.609  -1.897  -4.625  0.00  0.00    +0.267 A 
ATOM     11  O   UNL     1       0.373  -2.565  -4.888  0.00  0.00    -0.267 OA
ATOM     12  N   UNL     1      -1.854  -2.426  -4.682  0.00  0.00    -0.255 N 
BRANCH  12  13
ATOM     13  C   UNL     1      -2.024  -3.767  -5.050  0.00  0.00    +0.052 A 
ATOM     14  C   UNL     1      -2.006  -4.761  -4.080  0.00  0.00    +0.028 A 
ATOM     15  C   UNL     1      -2.179  -6.082  -4.445  0.00  0.00    +0.022 A 
ATOM     16  C   UNL     1      -2.359  -6.416  -5.776  0.00  0.00    +0.041 A 
ATOM     17  C   UNL     1      -2.372  -5.428  -6.744  0.00  0.00    +0.022 A 
ATOM     18  C   UNL     1      -2.205  -4.105  -6.384  0.00  0.00    +0.028 A 
ATOM     19 CL   UNL     1      -2.569  -8.078  -6.231  0.00  0.00    -0.084 Cl
ENDBRANCH  12  13
ENDBRANCH   1   2
BRANCH   1  20
ATOM     20  C   UNL     1      -5.571  -0.990  -3.996  0.00  0.00    +0.174 C 
BRANCH  20  22
ATOM     21  N   UNL     1      -7.976  -0.506  -3.679  0.00  0.00    -0.206 N 
ATOM     22  C   UNL     1      -7.021  -1.400  -4.004  0.00  0.00    +0.242 C 
ATOM     23  O   UNL     1      -7.329  -2.535  -4.303  0.00  0.00    -0.273 OA
ATOM     24  H   UNL     1      -7.731   0.401  -3.440  0.00  0.00    +0.177 HD
BRANCH  21  27
ATOM     25  C   UNL     1     -11.683  -0.439  -3.307  0.00  0.00    +0.068 C 
ATOM     26  C   UNL     1     -10.250  -0.004  -3.475  0.00  0.00    +0.063 C 
ATOM     27  N   UNL     1      -9.325  -0.888  -3.686  0.00  0.00    -0.185 NA
BRANCH  26  28
ATOM     28  C   UNL     1      -9.900   1.427  -3.399  0.00  0.00    -0.002 A 
ATOM     29  C   UNL     1     -10.568   2.266  -2.504  0.00  0.00    +0.012 A 
ATOM     30  C   UNL     1     -10.231   3.602  -2.434  0.00  0.00    +0.033 A 
ATOM     31  C   UNL     1      -9.242   4.113  -3.256  0.00  0.00    +0.126 A 
ATOM     32  C   UNL     1      -8.580   3.289  -4.149  0.00  0.00    +0.033 A 
ATOM     33  C   UNL     1      -8.903   1.950  -4.226  0.00  0.00    +0.012 A 
BRANCH  31  34
ATOM     34  N   UNL     1      -8.891   5.549  -3.180  0.00  0.00    +0.056 N 
ATOM     35  O   UNL     1      -8.021   6.003  -3.903  0.00  0.00    -0.126 OA
ATOM     36  O   UNL     1      -9.471   6.278  -2.396  0.00  0.00    -0.126 OA
ENDBRANCH  31  34
ENDBRANCH  26  28
ENDBRANCH  21  27
ENDBRANCH  20  22
ENDBRANCH   1  20
TORSDOF 7
