REMARK  Name = ZINC22709922
REMARK  6 active torsions:
REMARK  status: ('A' for Active; 'I' for Inactive)
REMARK    1  A    between atoms: C_3  and  C_6
REMARK    2  A    between atoms: C_8  and  C_31
REMARK    3  A    between atoms: C_13  and  C_15
REMARK    4  A    between atoms: N_17  and  C_18
REMARK    5  A    between atoms: C_18  and  C_19
REMARK    6  A    between atoms: C_19  and  C_20
REMARK                            x       y       z     vdW  Elec       q    Type
REMARK                         _______ _______ _______ _____ _____    ______ ____
ROOT
ATOM      1  C   UNL     1      -2.513   2.809   7.714  0.00  0.00    +0.110 A 
ATOM      2  C   UNL     1      -3.479   3.472   6.917  0.00  0.00    +0.064 A 
ATOM      3  C   UNL     1      -3.384   3.406   5.572  0.00  0.00    +0.149 A 
ATOM      4  N   UNL     1      -2.356   2.700   5.006  0.00  0.00    -0.209 N 
ATOM      5  C   UNL     1      -1.435   2.069   5.805  0.00  0.00    +0.158 A 
ATOM      6  N   UNL     1      -1.530   2.135   7.139  0.00  0.00    -0.225 NA
ATOM      7  C   UNL     1      -0.528   1.439   4.965  0.00  0.00    +0.083 A 
ATOM      8  C   UNL     1      -0.914   1.709   3.648  0.00  0.00    +0.150 A 
ATOM      9  N   UNL     1      -2.005   2.458   3.672  0.00  0.00    -0.160 NA
ENDROOT
BRANCH   1  12
ATOM     10  C   UNL     1      -2.206   2.600  11.353  0.00  0.00    +0.042 A 
ATOM     11  C   UNL     1      -1.748   2.278  10.063  0.00  0.00    +0.051 A 
ATOM     12  C   UNL     1      -2.602   2.871   9.183  0.00  0.00    +0.153 A 
ATOM     13  O   UNL     1      -3.548   3.520   9.892  0.00  0.00    -0.461 OA
ATOM     14  C   UNL     1      -3.312   3.359  11.203  0.00  0.00    +0.196 A 
ENDBRANCH   1  12
BRANCH   8  15
ATOM     15  C   UNL     1      -0.222   1.232   2.431  0.00  0.00    +0.264 C 
ATOM     16  O   UNL     1       0.777   0.546   2.530  0.00  0.00    -0.268 OA
ATOM     17  N   UNL     1      -0.698   1.558   1.213  0.00  0.00    -0.310 N 
ATOM     18  H   UNL     1      -1.602   2.179   1.124  0.00  0.00    +0.149 HD
BRANCH  17  19
ATOM     19  C   UNL     1      -0.013   1.086   0.008  0.00  0.00    +0.109 C 
BRANCH  19  20
ATOM     20  C   UNL     1      -0.753   1.593  -1.232  0.00  0.00    +0.056 C 
BRANCH  20  21
ATOM     21  C   UNL     1      -0.047   1.107  -2.471  0.00  0.00    -0.021 A 
ATOM     22  C   UNL     1       0.872   1.779  -3.183  0.00  0.00    +0.087 A 
ATOM     23  N   UNL     1       1.289   1.020  -4.242  0.00  0.00    -0.360 N 
ATOM     24  H   UNL     1       2.045   1.414  -4.937  0.00  0.00    +0.165 HD
ATOM     25  C   UNL     1       0.631  -0.191  -4.238  0.00  0.00    +0.047 A 
ATOM     26  C   UNL     1      -0.230  -0.191  -3.125  0.00  0.00    +0.004 A 
ATOM     27  C   UNL     1      -1.037  -1.301  -2.869  0.00  0.00    +0.030 A 
ATOM     28  C   UNL     1      -0.976  -2.395  -3.704  0.00  0.00    +0.042 A 
ATOM     29  C   UNL     1      -0.121  -2.396  -4.799  0.00  0.00    +0.022 A 
ATOM     30  C   UNL     1       0.677  -1.306  -5.067  0.00  0.00    +0.027 A 
ATOM     31 CL   UNL     1      -1.972  -3.781  -3.386  0.00  0.00    -0.084 Cl
ENDBRANCH  20  21
ENDBRANCH  19  20
ENDBRANCH  17  19
ENDBRANCH   8  15
BRANCH   3  32
ATOM     32  C   UNL     1      -4.399   4.103   4.702  0.00  0.00    +0.434 C 
ATOM     33  F   UNL     1      -5.459   3.231   4.434  0.00  0.00    -0.164 F 
ATOM     34  F   UNL     1      -4.883   5.235   5.366  0.00  0.00    -0.164 F 
ATOM     35  F   UNL     1      -3.796   4.489   3.500  0.00  0.00    -0.164 F 
ENDBRANCH   3  32
TORSDOF 6
