REMARK  Name = ZINC35465232
REMARK  8 active torsions:
REMARK  status: ('A' for Active; 'I' for Inactive)
REMARK    1  A    between atoms: C_1  and  C_2
REMARK    2  A    between atoms: C_4  and  C_27
REMARK    3  A    between atoms: C_6  and  C_19
REMARK    4  A    between atoms: C_9  and  C_11
REMARK    5  A    between atoms: C_14  and  O_18
REMARK    6  A    between atoms: C_15  and  O_17
REMARK    7  A    between atoms: C_22  and  O_26
REMARK    8  A    between atoms: C_23  and  O_25
REMARK                            x       y       z     vdW  Elec       q    Type
REMARK                         _______ _______ _______ _____ _____    ______ ____
ROOT
ATOM      1  C   UNL     1      -0.019   1.526   0.010  0.00  0.00    +0.011 C 
ATOM      2  C   UNL     1       0.002  -0.004   0.002  0.00  0.00    +0.025 C 
ATOM      3  C   UNL     1       0.763  -0.529  -1.240  0.00  0.00    +0.025 C 
ATOM      4  C   UNL     1       2.170  -0.819  -0.660  0.00  0.00    +0.152 C 
ATOM      5  O   UNL     1       1.892  -1.328   0.662  0.00  0.00    -0.364 OA
ATOM      6  C   UNL     1       0.812  -0.539   1.199  0.00  0.00    +0.152 C 
ATOM      7  C   UNL     1       0.117  -1.809  -1.775  0.00  0.00    +0.011 C 
ENDROOT
BRANCH   6   8
ATOM      8  C   UNL     1      -0.068  -1.396   2.071  0.00  0.00    -0.015 A 
ATOM      9  C   UNL     1      -0.241  -2.735   1.772  0.00  0.00    +0.010 A 
ATOM     10  C   UNL     1      -1.048  -3.526   2.570  0.00  0.00    +0.049 A 
ATOM     11  C   UNL     1      -1.684  -2.977   3.671  0.00  0.00    +0.158 A 
ATOM     12  C   UNL     1      -1.510  -1.630   3.972  0.00  0.00    +0.159 A 
ATOM     13  C   UNL     1      -0.696  -0.844   3.172  0.00  0.00    +0.055 A 
BRANCH  12  14
ATOM     14  O   UNL     1      -2.132  -1.087   5.052  0.00  0.00    -0.503 OA
ATOM     15  H   UNL     1      -1.616  -1.132   5.868  0.00  0.00    +0.292 HD
ENDBRANCH  12  14
BRANCH  11  16
ATOM     16  O   UNL     1      -2.478  -3.753   4.456  0.00  0.00    -0.503 OA
ATOM     17  H   UNL     1      -2.011  -4.181   5.187  0.00  0.00    +0.292 HD
ENDBRANCH  11  16
ENDBRANCH   6   8
BRANCH   4  18
ATOM     18  C   UNL     1       2.884  -1.855  -1.491  0.00  0.00    -0.015 A 
ATOM     19  C   UNL     1       2.587  -3.195  -1.327  0.00  0.00    +0.010 A 
ATOM     20  C   UNL     1       3.238  -4.149  -2.086  0.00  0.00    +0.049 A 
ATOM     21  C   UNL     1       4.190  -3.762  -3.015  0.00  0.00    +0.158 A 
ATOM     22  C   UNL     1       4.489  -2.413  -3.181  0.00  0.00    +0.159 A 
ATOM     23  C   UNL     1       3.829  -1.462  -2.420  0.00  0.00    +0.055 A 
BRANCH  22  24
ATOM     24  O   UNL     1       5.423  -2.029  -4.092  0.00  0.00    -0.503 OA
ATOM     25  H   UNL     1       5.065  -1.854  -4.973  0.00  0.00    +0.292 HD
ENDBRANCH  22  24
BRANCH  21  26
ATOM     26  O   UNL     1       4.832  -4.699  -3.763  0.00  0.00    -0.503 OA
ATOM     27  H   UNL     1       4.390  -4.907  -4.598  0.00  0.00    +0.292 HD
ENDBRANCH  21  26
ENDBRANCH   4  18
TORSDOF 6
