REMARK  Name = ZINC14981075
REMARK  10 active torsions:
REMARK  status: ('A' for Active; 'I' for Inactive)
REMARK    1  A    between atoms: C_1  and  O_2
REMARK    2  A    between atoms: O_2  and  C_3
REMARK    3  A    between atoms: C_3  and  C_5
REMARK    4  A    between atoms: N_7  and  C_10
REMARK    5  A    between atoms: C_13  and  C_22
REMARK    6  A    between atoms: C_16  and  C_17
REMARK    7  A    between atoms: C_16  and  N_60
REMARK    8  A    between atoms: N_24  and  C_25
REMARK    9  A    between atoms: C_25  and  C_26
REMARK   10  A    between atoms: C_26  and  C_27
REMARK                            x       y       z     vdW  Elec       q    Type
REMARK                         _______ _______ _______ _____ _____    ______ ____
ROOT
ATOM      1  C   UNL     1      -3.322  -0.552   3.198  0.00  0.00    +0.091 C 
ATOM      2  C   UNL     1      -4.703   0.028   2.827  0.00  0.00    +0.019 C 
ATOM      3  C   UNL     1      -4.497   0.709   1.457  0.00  0.00    +0.022 C 
ATOM      4  C   UNL     1      -2.399  -0.172   2.021  0.00  0.00    -0.050 C 
ATOM      5  N   UNL     1      -3.064   0.992   1.426  0.00  0.00    +0.392 N 
ATOM      6  H   UNL     1      -2.861   1.833   1.978  0.00  0.00    -0.080 HD
ENDROOT
BRANCH   1   9
ATOM      7  C   UNL     1      -1.910   1.387   5.894  0.00  0.00    +0.189 A 
ATOM      8  C   UNL     1      -2.166   1.214   4.562  0.00  0.00    +0.145 A 
ATOM      9  N   UNL     1      -2.835   0.050   4.442  0.00  0.00    -0.250 N 
ATOM     10  N   UNL     1      -2.981  -0.470   5.735  0.00  0.00    -0.065 NA
ATOM     11  N   UNL     1      -2.419   0.339   6.564  0.00  0.00    -0.123 NA
BRANCH   7  12
ATOM     12  C   UNL     1      -1.196   2.529   6.493  0.00  0.00    +0.361 C 
ATOM     13  O   UNL     1      -0.778   3.423   5.784  0.00  0.00    -0.243 OA
BRANCH  12  15
ATOM     14  C   UNL     1      -0.296   3.736   8.346  0.00  0.00    +0.280 C 
ATOM     15  O   UNL     1      -1.007   2.581   7.826  0.00  0.00    -0.463 OA
ENDBRANCH  12  15
ENDBRANCH   7  12
ENDBRANCH   1   9
BRANCH   3  16
ATOM     16  C   UNL     1      -5.306   1.978   1.371  0.00  0.00    +0.200 C 
ATOM     17  O   UNL     1      -4.745   3.049   1.276  0.00  0.00    -0.278 OA
ATOM     18  N   UNL     1      -6.652   1.922   1.400  0.00  0.00    -0.316 N 
ATOM     19  H   UNL     1      -7.101   1.065   1.477  0.00  0.00    +0.149 HD
BRANCH  18  20
ATOM     20  C   UNL     1      -7.438   3.155   1.317  0.00  0.00    +0.109 C 
BRANCH  20  21
ATOM     21  C   UNL     1      -8.929   2.815   1.371  0.00  0.00    +0.056 C 
BRANCH  21  22
ATOM     22  C   UNL     1      -9.737   4.084   1.285  0.00  0.00    -0.021 A 
ATOM     23  C   UNL     1     -10.230   4.788   2.316  0.00  0.00    +0.087 A 
ATOM     24  N   UNL     1     -10.908   5.882   1.852  0.00  0.00    -0.360 N 
ATOM     25  H   UNL     1     -11.350   6.541   2.410  0.00  0.00    +0.165 HD
ATOM     26  C   UNL     1     -10.875   5.905   0.476  0.00  0.00    +0.047 A 
ATOM     27  C   UNL     1     -10.140   4.779   0.060  0.00  0.00    +0.003 A 
ATOM     28  C   UNL     1      -9.940   4.541  -1.301  0.00  0.00    +0.010 A 
ATOM     29  C   UNL     1     -10.461   5.404  -2.224  0.00  0.00    +0.001 A 
ATOM     30  C   UNL     1     -11.187   6.516  -1.819  0.00  0.00    +0.002 A 
ATOM     31  C   UNL     1     -11.396   6.770  -0.480  0.00  0.00    +0.026 A 
ENDBRANCH  21  22
ENDBRANCH  20  21
ENDBRANCH  18  20
ENDBRANCH   3  16
BRANCH   5  32
ATOM     32  C   UNL     1      -2.594   1.202   0.020  0.00  0.00    -0.034 C 
BRANCH  32  33
ATOM     33  C   UNL     1      -1.190   1.748   0.017  0.00  0.00    -0.027 A 
ATOM     34  C   UNL     1      -0.013   1.076   0.008  0.00  0.00    +0.009 A 
ATOM     35  C   UNL     1       1.169   1.793   0.001  0.00  0.00    +0.008 A 
ATOM     36  C   UNL     1       1.115   3.148   0.008  0.00  0.00    +0.045 A 
ATOM     37  S   UNL     1      -0.644   3.448   0.027  0.00  0.00    -0.103 S 
ENDBRANCH  32  33
ENDBRANCH   5  32
TORSDOF 9
