REMARK  Name = ZINC39596543
REMARK  9 active torsions:
REMARK  status: ('A' for Active; 'I' for Inactive)
REMARK    1  A    between atoms: C_1  and  C_2
REMARK    2  A    between atoms: C_5  and  C_8
REMARK    3  A    between atoms: C_8  and  C_9
REMARK    4  A    between atoms: C_13  and  C_22
REMARK    5  A    between atoms: N_24  and  C_25
REMARK    6  A    between atoms: C_25  and  C_26
REMARK    7  A    between atoms: C_26  and  C_28
REMARK    8  A    between atoms: C_26  and  O_29
REMARK    9  A    between atoms: O_29  and  C_30
REMARK                            x       y       z     vdW  Elec       q    Type
REMARK                         _______ _______ _______ _____ _____    ______ ____
ROOT
ATOM      1  C   UNL     1       1.436  -4.743  -0.024  0.00  0.00    +0.220 C 
ATOM      2  O   UNL     1       2.342  -3.937  -0.031  0.00  0.00    -0.275 OA
ATOM      3  N   UNL     1       1.708  -6.063  -0.038  0.00  0.00    -0.300 N 
ATOM      4  C   UNL     1       0.744  -7.189  -0.038  0.00  0.00    +0.121 C 
ATOM      5  C   UNL     1       1.359  -8.229  -1.002  0.00  0.00    +0.100 C 
ATOM      6  C   UNL     1       2.865  -7.915  -1.009  0.00  0.00    -0.004 C 
ATOM      7  C   UNL     1       3.038  -6.717  -0.065  0.00  0.00    +0.115 C 
ATOM      8  C   UNL     1       3.657  -9.113  -0.495  0.00  0.00    -0.010 C 
ATOM      9  C   UNL     1       5.154  -8.798  -0.566  0.00  0.00    -0.082 C 
ATOM     10  N   UNL     1       5.527  -8.498  -1.954  0.00  0.00    +0.379 N 
ATOM     11  C   UNL     1       4.830  -7.289  -2.410  0.00  0.00    -0.082 C 
ATOM     12  C   UNL     1       3.320  -7.541  -2.416  0.00  0.00    -0.010 C 
ATOM     13  H   UNL     1       6.524  -8.351  -2.008  0.00  0.00    -0.086 HD
ATOM     14  H   UNL     1       5.272  -9.275  -2.545  0.00  0.00    -0.086 HD
ENDROOT
BRANCH   5  15
ATOM     15  C   UNL     1       1.115  -9.626  -0.492  0.00  0.00    +0.218 C 
ATOM     16  O   UNL     1       1.108  -9.843   0.701  0.00  0.00    -0.275 OA
ATOM     17  N   UNL     1       0.904 -10.634  -1.362  0.00  0.00    -0.312 N 
ATOM     18  H   UNL     1       0.909 -10.460  -2.316  0.00  0.00    +0.149 HD
BRANCH  17  19
ATOM     19  C   UNL     1       0.666 -11.992  -0.866  0.00  0.00    +0.148 C 
BRANCH  19  20
ATOM     20  C   UNL     1       0.458 -12.938  -2.050  0.00  0.00    +0.187 C 
ATOM     21  C   UNL     1       0.209 -14.356  -1.532  0.00  0.00    +0.053 C 
BRANCH  20  22
ATOM     22  O   UNL     1      -0.670 -12.505  -2.813  0.00  0.00    -0.488 OA
BRANCH  22  23
ATOM     23  C   UNL     1      -0.704 -12.864  -4.123  0.00  0.00    +0.121 A 
ATOM     24  C   UNL     1      -1.706 -12.378  -4.951  0.00  0.00    +0.048 A 
ATOM     25  C   UNL     1      -1.739 -12.744  -6.283  0.00  0.00    +0.042 A 
ATOM     26  C   UNL     1      -0.773 -13.596  -6.791  0.00  0.00    +0.124 A 
ATOM     27  C   UNL     1       0.227 -14.082  -5.966  0.00  0.00    +0.042 A 
ATOM     28  C   UNL     1       0.266 -13.712  -4.636  0.00  0.00    +0.048 A 
ATOM     29  F   UNL     1      -0.806 -13.954  -8.094  0.00  0.00    -0.205 F 
ENDBRANCH  22  23
ENDBRANCH  20  22
ENDBRANCH  19  20
ENDBRANCH  17  19
ENDBRANCH   5  15
BRANCH   1  30
ATOM     30  C   UNL     1       0.005  -4.269   0.003  0.00  0.00    +0.131 C 
BRANCH  30  35
ATOM     31  C   UNL     1      -0.111   1.508   0.051  0.00  0.00    +0.044 C 
ATOM     32  C   UNL     1      -0.080   0.002   0.038  0.00  0.00    -0.050 A 
ATOM     33  C   UNL     1      -0.084  -0.680  -1.165  0.00  0.00    +0.003 A 
ATOM     34  C   UNL     1      -0.056  -2.062  -1.176  0.00  0.00    +0.004 A 
ATOM     35  C   UNL     1      -0.024  -2.762   0.015  0.00  0.00    -0.039 A 
ATOM     36  C   UNL     1      -0.019  -2.081   1.218  0.00  0.00    +0.004 A 
ATOM     37  C   UNL     1      -0.043  -0.699   1.229  0.00  0.00    +0.003 A 
ENDBRANCH  30  35
ENDBRANCH   1  30
TORSDOF 7
