REMARK  Name = ZINC05677995
REMARK  6 active torsions:
REMARK  status: ('A' for Active; 'I' for Inactive)
REMARK    1  A    between atoms: C_1  and  C_2
REMARK    2  A    between atoms: C_3  and  C_12
REMARK    3  A    between atoms: C_12  and  C_13
REMARK    4  A    between atoms: C_12  and  C_21
REMARK    5  A    between atoms: C_16  and  O_20
REMARK    6  A    between atoms: C_22  and  C_31
REMARK                            x       y       z     vdW  Elec       q    Type
REMARK                         _______ _______ _______ _____ _____    ______ ____
ROOT
ATOM      1  C   UNL     1      -1.365   2.137   0.004  0.00  0.00    +0.083 C 
ENDROOT
BRANCH   1   4
ATOM      2  C   UNL     1      -3.897   3.180  -1.457  0.00  0.00    +0.063 C 
ATOM      3  C   UNL     1      -3.232   3.843  -0.279  0.00  0.00    +0.018 A 
ATOM      4  C   UNL     1      -2.137   3.385   0.347  0.00  0.00    -0.008 A 
ATOM      5  C   UNL     1      -1.837   4.324   1.430  0.00  0.00    +0.004 A 
ATOM      6  C   UNL     1      -0.840   4.396   2.405  0.00  0.00    +0.010 A 
ATOM      7  C   UNL     1      -0.833   5.434   3.293  0.00  0.00    +0.001 A 
ATOM      8  C   UNL     1      -1.806   6.423   3.230  0.00  0.00    +0.002 A 
ATOM      9  C   UNL     1      -2.795   6.375   2.273  0.00  0.00    +0.026 A 
ATOM     10  C   UNL     1      -2.822   5.326   1.359  0.00  0.00    +0.047 A 
ATOM     11  N   UNL     1      -3.656   5.003   0.312  0.00  0.00    -0.358 N 
ATOM     12  H   UNL     1      -4.429   5.519   0.035  0.00  0.00    +0.166 HD
ENDBRANCH   1   4
BRANCH   1  13
ATOM     13  C   UNL     1      -0.380   2.441  -1.095  0.00  0.00    -0.008 A 
ATOM     14  C   UNL     1      -0.238   1.771  -2.249  0.00  0.00    +0.018 A 
ATOM     15  N   UNL     1       0.756   2.337  -2.999  0.00  0.00    -0.358 N 
ATOM     16  H   UNL     1       1.041   2.027  -3.873  0.00  0.00    +0.166 HD
ATOM     17  C   UNL     1       1.293   3.413  -2.329  0.00  0.00    +0.047 A 
ATOM     18  C   UNL     1       0.601   3.529  -1.109  0.00  0.00    +0.004 A 
ATOM     19  C   UNL     1       0.941   4.541  -0.209  0.00  0.00    +0.010 A 
ATOM     20  C   UNL     1       1.937   5.422  -0.523  0.00  0.00    +0.001 A 
ATOM     21  C   UNL     1       2.619   5.315  -1.728  0.00  0.00    +0.002 A 
ATOM     22  C   UNL     1       2.304   4.321  -2.628  0.00  0.00    +0.026 A 
ATOM     23  C   UNL     1      -1.055   0.572  -2.659  0.00  0.00    +0.063 C 
ENDBRANCH   1  13
BRANCH   1  24
ATOM     24  C   UNL     1      -0.624   1.653   1.224  0.00  0.00    -0.034 A 
ATOM     25  C   UNL     1      -1.304   0.984   2.224  0.00  0.00    +0.008 A 
ATOM     26  C   UNL     1      -0.626   0.535   3.341  0.00  0.00    +0.047 A 
ATOM     27  C   UNL     1       0.739   0.756   3.459  0.00  0.00    +0.135 A 
ATOM     28  C   UNL     1       1.420   1.428   2.453  0.00  0.00    +0.083 A 
ATOM     29  C   UNL     1       0.736   1.875   1.337  0.00  0.00    +0.028 A 
ATOM     30 CL   UNL     1       3.127   1.706   2.595  0.00  0.00    -0.080 Cl
BRANCH  27  31
ATOM     31  O   UNL     1       1.408   0.315   4.556  0.00  0.00    -0.505 OA
ATOM     32  H   UNL     1       1.761  -0.581   4.468  0.00  0.00    +0.292 HD
ENDBRANCH  27  31
ENDBRANCH   1  24
TORSDOF 4
