REMARK  Name = ZINC19821035
REMARK  6 active torsions:
REMARK  status: ('A' for Active; 'I' for Inactive)
REMARK    1  A    between atoms: C_4  and  N_7
REMARK    2  A    between atoms: N_10  and  C_13
REMARK    3  A    between atoms: C_13  and  C_14
REMARK    4  A    between atoms: C_22  and  C_24
REMARK    5  A    between atoms: C_24  and  C_25
REMARK    6  A    between atoms: N_27  and  C_28
REMARK                            x       y       z     vdW  Elec       q    Type
REMARK                         _______ _______ _______ _____ _____    ______ ____
ROOT
ATOM      1  C   UNL     1       7.529   4.437   2.316  0.00  0.00    +0.200 C 
ATOM      2  O   UNL     1       7.044   3.705   3.154  0.00  0.00    -0.278 OA
ATOM      3  N   UNL     1       8.721   5.024   2.543  0.00  0.00    -0.289 N 
ATOM      4  C   UNL     1       9.340   5.912   1.544  0.00  0.00    +0.127 C 
ATOM      5  C   UNL     1       9.486   7.303   2.175  0.00  0.00    +0.123 C 
ATOM      6  N   UNL     1      10.055   7.206   3.513  0.00  0.00    -0.312 N 
ATOM      7  C   UNL     1      10.018   6.110   4.273  0.00  0.00    +0.234 C 
ATOM      8  O   UNL     1      10.457   6.175   5.402  0.00  0.00    -0.274 OA
ATOM      9  C   UNL     1       9.459   4.798   3.795  0.00  0.00    +0.170 C 
ATOM     10  H   UNL     1      10.557   8.075   3.962  0.00  0.00    +0.149 HD
ENDROOT
BRANCH   1  11
ATOM     11  C   UNL     1       6.799   4.689   1.022  0.00  0.00    +0.019 C 
BRANCH  11  15
ATOM     12  N   UNL     1       3.598   2.151  -0.052  0.00  0.00    -0.333 N 
ATOM     13  C   UNL     1       4.445   1.750   1.079  0.00  0.00    +0.086 C 
ATOM     14  C   UNL     1       5.781   2.492   1.002  0.00  0.00    -0.059 C 
ATOM     15  N   UNL     1       5.535   3.941   1.019  0.00  0.00    +0.387 N 
ATOM     16  C   UNL     1       4.688   4.342  -0.113  0.00  0.00    -0.059 C 
ATOM     17  C   UNL     1       3.352   3.600  -0.035  0.00  0.00    +0.086 C 
ATOM     18  H   UNL     1       4.998   4.183   1.948  0.00  0.00    -0.081 HD
BRANCH  12  22
ATOM     19  C   UNL     1       0.015   0.030  -0.061  0.00  0.00    +0.000 A 
ATOM     20  C   UNL     1      -0.002   1.413  -0.044  0.00  0.00    +0.002 A 
ATOM     21  C   UNL     1       1.184   2.119  -0.042  0.00  0.00    +0.023 A 
ATOM     22  C   UNL     1       2.396   1.440  -0.055  0.00  0.00    +0.030 A 
ATOM     23  C   UNL     1       2.409   0.051  -0.071  0.00  0.00    +0.023 A 
ATOM     24  C   UNL     1       1.219  -0.650  -0.074  0.00  0.00    +0.002 A 
ENDBRANCH  12  22
ENDBRANCH  11  15
ENDBRANCH   1  11
BRANCH   9  25
ATOM     25  C   UNL     1      10.604   3.814   3.545  0.00  0.00    +0.128 C 
BRANCH  25  26
ATOM     26  C   UNL     1      10.036   2.469   3.170  0.00  0.00    +0.219 C 
ATOM     27  O   UNL     1       8.835   2.313   3.109  0.00  0.00    -0.275 OA
ATOM     28  N   UNL     1      10.864   1.439   2.903  0.00  0.00    -0.285 N 
ATOM     29  H   UNL     1      11.951   1.602   2.869  0.00  0.00    +0.155 HD
BRANCH  28  30
ATOM     30  C   UNL     1      10.341   0.166   2.669  0.00  0.00    +0.041 A 
ATOM     31  C   UNL     1       9.113  -0.186   3.184  0.00  0.00    +0.024 A 
ATOM     32  C   UNL     1       8.581  -1.452   2.954  0.00  0.00    +0.002 A 
ATOM     33  C   UNL     1       9.261  -2.377   2.223  0.00  0.00    +0.008 A 
ATOM     34  C   UNL     1      10.519  -2.060   1.684  0.00  0.00    -0.016 A 
ATOM     35  C   UNL     1      11.069  -0.773   1.908  0.00  0.00    +0.003 A 
ATOM     36  C   UNL     1      12.326  -0.458   1.370  0.00  0.00    +0.010 A 
ATOM     37  C   UNL     1      13.001  -1.389   0.641  0.00  0.00    +0.001 A 
ATOM     38  C   UNL     1      12.461  -2.655   0.419  0.00  0.00    +0.001 A 
ATOM     39  C   UNL     1      11.244  -2.996   0.926  0.00  0.00    +0.008 A 
ENDBRANCH  28  30
ENDBRANCH  25  26
ENDBRANCH   9  25
TORSDOF 6
