REMARK  Name = ZINC38886764
REMARK  10 active torsions:
REMARK  status: ('A' for Active; 'I' for Inactive)
REMARK    1  A    between atoms: C_1  and  C_2
REMARK    2  A    between atoms: C_7  and  C_8
REMARK    3  A    between atoms: C_10  and  C_13
REMARK    4  A    between atoms: C_13  and  N_14
REMARK    5  A    between atoms: C_18  and  C_21
REMARK    6  A    between atoms: N_23  and  C_24
REMARK    7  A    between atoms: C_24  and  C_25
REMARK    8  A    between atoms: C_25  and  S_26
REMARK    9  A    between atoms: S_26  and  C_27
REMARK   10  A    between atoms: C_27  and  C_28
REMARK                            x       y       z     vdW  Elec       q    Type
REMARK                         _______ _______ _______ _____ _____    ______ ____
ROOT
ATOM      1  N   UNL     1       1.370  -0.059   6.640  0.00  0.00    +0.386 N 
ATOM      2  C   UNL     1       1.809   1.335   6.500  0.00  0.00    -0.078 C 
ATOM      3  C   UNL     1       3.285   1.450   6.886  0.00  0.00    -0.018 C 
ATOM      4  C   UNL     1       3.464   1.000   8.339  0.00  0.00    +0.009 C 
ATOM      5  C   UNL     1       2.934  -0.429   8.490  0.00  0.00    +0.058 C 
ATOM      6  C   UNL     1       1.471  -0.474   8.045  0.00  0.00    -0.065 C 
ATOM      7  H   UNL     1       1.955  -0.653   6.072  0.00  0.00    -0.081 HD
ENDROOT
BRANCH   5   8
ATOM      8  C   UNL     1       3.035  -0.853   9.932  0.00  0.00    +0.214 C 
ATOM      9  O   UNL     1       2.035  -1.166  10.544  0.00  0.00    -0.276 OA
ATOM     10  N   UNL     1       4.236  -0.886  10.543  0.00  0.00    -0.314 N 
ATOM     11  H   UNL     1       5.036  -0.636  10.053  0.00  0.00    +0.149 HD
BRANCH  10  12
ATOM     12  C   UNL     1       4.335  -1.299  11.945  0.00  0.00    +0.115 C 
BRANCH  12  13
ATOM     13  C   UNL     1       5.798  -1.248  12.390  0.00  0.00    +0.088 C 
BRANCH  13  14
ATOM     14  S   UNL     1       5.920  -1.759  14.126  0.00  0.00    -0.154 S 
BRANCH  14  15
ATOM     15  C   UNL     1       7.692  -1.646  14.494  0.00  0.00    +0.108 C 
BRANCH  15  16
ATOM     16  C   UNL     1       7.935  -2.049  15.925  0.00  0.00    +0.016 A 
ATOM     17  C   UNL     1       7.897  -1.097  16.929  0.00  0.00    +0.129 A 
ATOM     18  C   UNL     1       8.120  -1.468  18.244  0.00  0.00    +0.039 A 
ATOM     19  C   UNL     1       8.382  -2.790  18.554  0.00  0.00    +0.004 A 
ATOM     20  C   UNL     1       8.420  -3.741  17.551  0.00  0.00    +0.020 A 
ATOM     21  C   UNL     1       8.191  -3.372  16.237  0.00  0.00    +0.048 A 
ATOM     22 CL   UNL     1       8.232  -4.568  14.980  0.00  0.00    -0.083 Cl
ATOM     23  F   UNL     1       7.642   0.195  16.626  0.00  0.00    -0.205 F 
ENDBRANCH  15  16
ENDBRANCH  14  15
ENDBRANCH  13  14
ENDBRANCH  12  13
ENDBRANCH  10  12
ENDBRANCH   5   8
BRANCH   1  24
ATOM     24  C   UNL     1      -0.025  -0.178   6.195  0.00  0.00    +0.022 C 
BRANCH  24  27
ATOM     25  C   UNL     1      -0.122  -0.120   2.567  0.00  0.00    +0.202 A 
ATOM     26  N   UNL     1       0.006  -0.736   3.756  0.00  0.00    -0.193 NA
ATOM     27  C   UNL     1      -0.110   0.129   4.722  0.00  0.00    +0.211 A 
ATOM     28  O   UNL     1      -0.317   1.339   4.186  0.00  0.00    -0.340 OA
ATOM     29  N   UNL     1      -0.316   1.159   2.777  0.00  0.00    -0.056 NA
BRANCH  25  36
ATOM     30  C   UNL     1       2.011  -1.993   2.010  0.00  0.00    +0.044 C 
ATOM     31  C   UNL     1       0.975  -1.681   0.961  0.00  0.00    -0.040 A 
ATOM     32  C   UNL     1       1.035  -2.294  -0.274  0.00  0.00    +0.004 A 
ATOM     33  C   UNL     1       0.085  -2.008  -1.238  0.00  0.00    +0.000 A 
ATOM     34  C   UNL     1      -0.930  -1.107  -0.970  0.00  0.00    +0.001 A 
ATOM     35  C   UNL     1      -1.000  -0.489   0.262  0.00  0.00    +0.012 A 
ATOM     36  C   UNL     1      -0.048  -0.777   1.238  0.00  0.00    +0.025 A 
ENDBRANCH  25  36
ENDBRANCH  24  27
ENDBRANCH   1  24
TORSDOF 9
