REMARK  Name = ZINC09292166
REMARK  9 active torsions:
REMARK  status: ('A' for Active; 'I' for Inactive)
REMARK    1  A    between atoms: C_1  and  C_2
REMARK    2  A    between atoms: C_2  and  O_3
REMARK    3  A    between atoms: O_3  and  C_4
REMARK    4  A    between atoms: C_7  and  C_12
REMARK    5  A    between atoms: C_9  and  O_10
REMARK    6  A    between atoms: O_10  and  C_11
REMARK    7  A    between atoms: C_19  and  N_33
REMARK    8  A    between atoms: C_20  and  C_31
REMARK    9  A    between atoms: C_21  and  C_23
REMARK                            x       y       z     vdW  Elec       q    Type
REMARK                         _______ _______ _______ _____ _____    ______ ____
ROOT
ATOM      1  C   UNL     1       0.948  -6.503  -1.857  0.00  0.00    +0.074 A 
ATOM      2  C   UNL     1       1.525  -7.179  -0.834  0.00  0.00    +0.054 A 
ATOM      3  C   UNL     1       1.608  -8.537  -1.199  0.00  0.00    +0.245 A 
ATOM      4  N   UNL     1       1.101  -8.673  -2.392  0.00  0.00    -0.135 NA
ATOM      5  N   UNL     1       0.670  -7.414  -2.837  0.00  0.00    -0.273 N 
ATOM      6  H   UNL     1       0.251  -7.223  -3.691  0.00  0.00    +0.189 HD
ATOM      7  O   UNL     1       2.147  -9.473  -0.372  0.00  0.00    -0.421 OA
ATOM      8  C   UNL     1       2.846  -9.033   0.692  0.00  0.00    +0.201 C 
ATOM      9  C   UNL     1       2.836  -7.761   1.141  0.00  0.00    +0.098 C 
ATOM     10  C   UNL     1       2.022  -6.669   0.494  0.00  0.00    +0.103 C 
ENDROOT
BRANCH  10  11
ATOM     11  C   UNL     1       0.851  -6.317   1.375  0.00  0.00    -0.016 A 
ATOM     12  C   UNL     1      -0.139  -7.252   1.614  0.00  0.00    +0.007 A 
ATOM     13  C   UNL     1      -1.213  -6.931   2.422  0.00  0.00    +0.020 A 
ATOM     14  C   UNL     1      -1.298  -5.673   2.992  0.00  0.00    +0.042 A 
ATOM     15  C   UNL     1      -0.308  -4.737   2.753  0.00  0.00    +0.040 A 
ATOM     16  C   UNL     1       0.769  -5.061   1.948  0.00  0.00    +0.046 A 
ATOM     17 CL   UNL     1       2.016  -3.889   1.653  0.00  0.00    -0.083 Cl
ATOM     18 CL   UNL     1      -2.648  -5.269   4.006  0.00  0.00    -0.083 Cl
ENDBRANCH  10  11
BRANCH   1  22
ATOM     19  C   UNL     1       0.144  -2.329  -1.985  0.00  0.00    +0.162 A 
ATOM     20  C   UNL     1       1.391  -2.783  -1.581  0.00  0.00    +0.050 A 
ATOM     21  C   UNL     1       1.655  -4.136  -1.538  0.00  0.00    +0.014 A 
ATOM     22  C   UNL     1       0.666  -5.051  -1.902  0.00  0.00    +0.004 A 
ATOM     23  C   UNL     1      -0.588  -4.595  -2.308  0.00  0.00    +0.059 A 
ATOM     24  C   UNL     1      -0.848  -3.237  -2.345  0.00  0.00    +0.162 A 
BRANCH  24  25
ATOM     25  O   UNL     1      -2.071  -2.789  -2.735  0.00  0.00    -0.491 OA
ATOM     26  C   UNL     1      -3.041  -3.777  -3.089  0.00  0.00    +0.277 C 
ENDBRANCH  24  25
BRANCH  19  27
ATOM     27  O   UNL     1      -0.111  -0.994  -2.026  0.00  0.00    -0.489 OA
BRANCH  27  29
ATOM     28  C   UNL     1       0.480   1.334  -1.753  0.00  0.00    +0.048 C 
ATOM     29  C   UNL     1       0.952  -0.118  -1.645  0.00  0.00    +0.226 C 
ENDBRANCH  27  29
ENDBRANCH  19  27
ENDBRANCH   1  22
BRANCH   8  30
ATOM     30  N   UNL     1       3.623  -9.942   1.367  0.00  0.00    -0.328 N 
ATOM     31  H   UNL     1       3.655 -10.866   1.072  0.00  0.00    +0.145 HD
ATOM     32  H   UNL     1       4.140  -9.661   2.138  0.00  0.00    +0.145 HD
ENDBRANCH   8  30
BRANCH   9  33
ATOM     33  C   UNL     1       3.634  -7.433   2.284  0.00  0.00    +0.101 C 
ATOM     34  N   UNL     1       4.266  -7.172   3.191  0.00  0.00    -0.191 NA
ENDBRANCH   9  33
TORSDOF 7
