REMARK  Name = ZINC39899145
REMARK  11 active torsions:
REMARK  status: ('A' for Active; 'I' for Inactive)
REMARK    1  A    between atoms: C_1  and  O_2
REMARK    2  A    between atoms: O_2  and  C_3
REMARK    3  A    between atoms: C_6  and  C_9
REMARK    4  A    between atoms: C_9  and  C_10
REMARK    5  A    between atoms: C_10  and  N_11
REMARK    6  A    between atoms: C_12  and  C_30
REMARK    7  A    between atoms: C_15  and  C_22
REMARK    8  A    between atoms: C_27  and  O_28
REMARK    9  A    between atoms: C_33  and  O_38
REMARK   10  A    between atoms: C_34  and  O_36
REMARK   11  A    between atoms: O_36  and  C_37
REMARK                            x       y       z     vdW  Elec       q    Type
REMARK                         _______ _______ _______ _____ _____    ______ ____
ROOT
ATOM      1  N   UNL     1      -7.103  -3.466  -1.525  0.00  0.00    -0.285 N 
ATOM      2  C   UNL     1      -6.886  -4.918  -1.473  0.00  0.00    +0.141 C 
ATOM      3  C   UNL     1      -8.236  -5.531  -1.218  0.00  0.00    +0.035 A 
ATOM      4  C   UNL     1      -8.984  -6.697  -1.027  0.00  0.00    +0.102 A 
ATOM      5  N   UNL     1     -10.239  -6.336  -0.847  0.00  0.00    -0.173 NA
ATOM      6  N   UNL     1     -10.357  -5.057  -0.905  0.00  0.00    -0.272 N 
ATOM      7  H   UNL     1     -11.189  -4.569  -0.799  0.00  0.00    +0.189 HD
ATOM      8  C   UNL     1      -9.138  -4.487  -1.136  0.00  0.00    +0.126 A 
ATOM      9  C   UNL     1      -8.411  -3.227  -1.323  0.00  0.00    +0.265 C 
ATOM     10  O   UNL     1      -8.920  -2.122  -1.301  0.00  0.00    -0.268 OA
ENDROOT
BRANCH   4  11
ATOM     11  C   UNL     1      -8.461  -8.086  -1.029  0.00  0.00    +0.045 A 
ATOM     12  C   UNL     1      -7.089  -8.317  -1.087  0.00  0.00    +0.033 A 
ATOM     13  C   UNL     1      -6.608  -9.612  -1.088  0.00  0.00    +0.042 A 
ATOM     14  C   UNL     1      -7.485 -10.681  -1.030  0.00  0.00    +0.023 A 
ATOM     15  C   UNL     1      -8.848 -10.462  -0.972  0.00  0.00    +0.047 A 
ATOM     16  C   UNL     1      -9.344  -9.168  -0.965  0.00  0.00    +0.126 A 
ATOM     17 CL   UNL     1      -4.897  -9.899  -1.161  0.00  0.00    -0.084 Cl
BRANCH  16  18
ATOM     18  O   UNL     1     -10.684  -8.952  -0.902  0.00  0.00    -0.506 OA
ATOM     19  H   UNL     1     -11.116  -8.905  -1.766  0.00  0.00    +0.292 HD
ENDBRANCH  16  18
ENDBRANCH   4  11
BRANCH   2  20
ATOM     20  C   UNL     1      -6.332  -5.407  -2.786  0.00  0.00    -0.019 A 
ATOM     21  C   UNL     1      -5.246  -6.263  -2.800  0.00  0.00    +0.009 A 
ATOM     22  C   UNL     1      -4.734  -6.715  -4.002  0.00  0.00    +0.049 A 
ATOM     23  C   UNL     1      -5.309  -6.310  -5.196  0.00  0.00    +0.158 A 
ATOM     24  C   UNL     1      -6.402  -5.449  -5.182  0.00  0.00    +0.162 A 
ATOM     25  C   UNL     1      -6.914  -5.004  -3.973  0.00  0.00    +0.055 A 
BRANCH  24  26
ATOM     26  O   UNL     1      -6.970  -5.050  -6.351  0.00  0.00    -0.491 OA
ATOM     27  C   UNL     1      -8.016  -4.080  -6.266  0.00  0.00    +0.277 C 
ENDBRANCH  24  26
BRANCH  23  28
ATOM     28  O   UNL     1      -4.806  -6.753  -6.379  0.00  0.00    -0.503 OA
ATOM     29  H   UNL     1      -5.206  -7.575  -6.693  0.00  0.00    +0.292 HD
ENDBRANCH  23  28
ENDBRANCH   2  20
BRANCH   1  30
ATOM     30  C   UNL     1      -6.070  -2.452  -1.753  0.00  0.00    +0.114 C 
BRANCH  30  31
ATOM     31  C   UNL     1      -5.476  -2.018  -0.411  0.00  0.00    +0.054 C 
BRANCH  31  35
ATOM     32  C   UNL     1      -2.464   0.940  -1.074  0.00  0.00    +0.120 A 
ATOM     33  C   UNL     1      -3.783   1.323  -0.878  0.00  0.00    +0.046 A 
ATOM     34  C   UNL     1      -4.755   0.364  -0.664  0.00  0.00    +0.007 A 
ATOM     35  C   UNL     1      -4.414  -0.975  -0.645  0.00  0.00    -0.046 A 
ATOM     36  C   UNL     1      -3.100  -1.360  -0.839  0.00  0.00    +0.007 A 
ATOM     37  C   UNL     1      -2.126  -0.406  -1.060  0.00  0.00    +0.046 A 
BRANCH  32  39
ATOM     38  C   UNL     1      -1.927   3.246  -1.287  0.00  0.00    +0.277 C 
ATOM     39  O   UNL     1      -1.506   1.880  -1.285  0.00  0.00    -0.495 OA
ENDBRANCH  32  39
ENDBRANCH  31  35
ENDBRANCH  30  31
ENDBRANCH   1  30
TORSDOF 9
