REMARK  Name = ZINC43742677
REMARK  9 active torsions:
REMARK  status: ('A' for Active; 'I' for Inactive)
REMARK    1  A    between atoms: C_1  and  C_2
REMARK    2  A    between atoms: C_5  and  C_8
REMARK    3  A    between atoms: C_8  and  C_10
REMARK    4  A    between atoms: C_8  and  C_35
REMARK    5  A    between atoms: C_10  and  C_11
REMARK    6  A    between atoms: C_11  and  N_12
REMARK    7  A    between atoms: N_12  and  C_13
REMARK    8  A    between atoms: C_13  and  C_14
REMARK    9  A    between atoms: C_21  and  C_34
REMARK                            x       y       z     vdW  Elec       q    Type
REMARK                         _______ _______ _______ _____ _____    ______ ____
ROOT
ATOM      1  N   UNL     1       2.612  -6.774   1.257  0.00  0.00    +0.380 N 
ATOM      2  H   UNL     1       3.426  -6.359   0.829  0.00  0.00    -0.086 HD
ATOM      3  H   UNL     1       2.574  -6.513   2.231  0.00  0.00    -0.086 HD
ENDROOT
BRANCH   1   4
ATOM      4  C   UNL     1       1.403  -6.296   0.573  0.00  0.00    -0.082 C 
BRANCH   4   5
ATOM      5  C   UNL     1       1.319  -4.773   0.690  0.00  0.00    -0.003 C 
BRANCH   5   6
ATOM      6  C   UNL     1       0.059  -4.275  -0.021  0.00  0.00    +0.083 C 
BRANCH   6  11
ATOM      7  C   UNL     1      -0.018   1.503   0.010  0.00  0.00    +0.044 C 
ATOM      8  C   UNL     1       0.002  -0.004   0.002  0.00  0.00    -0.050 A 
ATOM      9  C   UNL     1       0.006  -0.689  -1.199  0.00  0.00    +0.003 A 
ATOM     10  C   UNL     1       0.025  -2.071  -1.206  0.00  0.00    +0.004 A 
ATOM     11  C   UNL     1       0.040  -2.768  -0.013  0.00  0.00    -0.037 A 
ATOM     12  C   UNL     1       0.037  -2.084   1.188  0.00  0.00    +0.004 A 
ATOM     13  C   UNL     1       0.023  -0.702   1.195  0.00  0.00    +0.003 A 
ENDBRANCH   6  11
BRANCH   6  14
ATOM     14  C   UNL     1      -1.161  -4.797   0.693  0.00  0.00    +0.112 A 
ATOM     15  C   UNL     1      -2.108  -5.588   0.157  0.00  0.00    +0.045 A 
ATOM     16  C   UNL     1      -3.060  -5.833   1.173  0.00  0.00    +0.041 A 
ATOM     17  C   UNL     1      -2.637  -5.178   2.269  0.00  0.00    +0.195 A 
ATOM     18  O   UNL     1      -1.483  -4.557   1.974  0.00  0.00    -0.467 OA
ENDBRANCH   6  14
ENDBRANCH   5   6
ENDBRANCH   4   5
ENDBRANCH   1   4
BRANCH   1  19
ATOM     19  C   UNL     1       2.692  -8.237   1.145  0.00  0.00    -0.068 C 
BRANCH  19  20
ATOM     20  C   UNL     1       3.952  -8.734   1.856  0.00  0.00    +0.087 C 
ATOM     21  C   UNL     1       4.099 -10.260   1.699  0.00  0.00    +0.042 C 
ATOM     22  C   UNL     1       5.043 -10.648   0.590  0.00  0.00    +0.014 C 
ATOM     23  C   UNL     1       6.470 -10.176   0.871  0.00  0.00    +0.030 C 
ATOM     24  C   UNL     1       6.926 -10.816   2.190  0.00  0.00    -0.023 C 
ATOM     25  C   UNL     1       8.389 -10.456   2.449  0.00  0.00    +0.007 C 
ATOM     26  C   UNL     1       9.271 -11.044   1.346  0.00  0.00    +0.003 C 
ATOM     27  C   UNL     1       8.891 -10.418   0.001  0.00  0.00    +0.037 C 
ATOM     28  C   UNL     1       7.395 -10.632  -0.258  0.00  0.00    +0.096 C 
ATOM     29  C   UNL     1       6.986 -11.863  -1.065  0.00  0.00    +0.196 C 
ATOM     30  O   UNL     1       6.916 -10.538  -1.598  0.00  0.00    -0.368 OA
ATOM     31  C   UNL     1       6.049 -10.268   3.313  0.00  0.00    +0.052 C 
ATOM     32  C   UNL     1       4.600 -10.664   3.100  0.00  0.00    +0.181 C 
ATOM     33  O   UNL     1       3.824  -9.769   3.946  0.00  0.00    -0.461 OA
ATOM     34  C   UNL     1       3.828  -8.548   3.361  0.00  0.00    +0.309 C 
ATOM     35  O   UNL     1       3.747  -7.488   3.934  0.00  0.00    -0.251 OA
ATOM     36  C   UNL     1       6.779 -12.336   2.102  0.00  0.00    +0.011 C 
ENDBRANCH  19  20
ENDBRANCH   1  19
TORSDOF 7
