REMARK  Name = ZINC29956577
REMARK  6 active torsions:
REMARK  status: ('A' for Active; 'I' for Inactive)
REMARK    1  A    between atoms: C_4  and  C_7
REMARK    2  A    between atoms: C_7  and  C_9
REMARK    3  A    between atoms: C_7  and  N_23
REMARK    4  A    between atoms: C_17  and  C_19
REMARK    5  A    between atoms: C_24  and  C_26
REMARK    6  A    between atoms: C_26  and  C_27
REMARK                            x       y       z     vdW  Elec       q    Type
REMARK                         _______ _______ _______ _____ _____    ______ ____
ROOT
ATOM      1  C   UNL     1      -1.684  -3.380   0.001  0.00  0.00    +0.134 C 
ENDROOT
BRANCH   1   2
ATOM      2  C   UNL     1      -0.619  -2.314  -0.004  0.00  0.00    -0.021 A 
ATOM      3  C   UNL     1       0.720  -2.679  -0.019  0.00  0.00    +0.008 A 
ATOM      4  C   UNL     1       1.701  -1.728  -0.024  0.00  0.00    +0.030 A 
ATOM      5  C   UNL     1       1.358  -0.373  -0.013  0.00  0.00    +0.089 A 
ATOM      6  C   UNL     1       0.002  -0.004   0.002  0.00  0.00    +0.067 A 
ATOM      7  C   UNL     1      -0.981  -0.984   0.006  0.00  0.00    +0.033 A 
ATOM      8  N   UNL     1      -0.017   1.376   0.010  0.00  0.00    -0.335 N 
ATOM      9  H   UNL     1      -0.977   1.913   0.022  0.00  0.00    +0.167 HD
ATOM     10  C   UNL     1       1.276   1.799  -0.001  0.00  0.00    +0.213 A 
ATOM     11  N   UNL     1       2.081   0.776  -0.014  0.00  0.00    -0.224 NA
BRANCH  10  12
ATOM     12  C   UNL     1       1.714   3.241   0.003  0.00  0.00    +0.450 C 
ATOM     13  F   UNL     1       3.065   3.319  -0.351  0.00  0.00    -0.163 F 
ATOM     14  F   UNL     1       0.948   3.963  -0.918  0.00  0.00    -0.163 F 
ATOM     15  F   UNL     1       1.535   3.779   1.282  0.00  0.00    -0.163 F 
ENDBRANCH  10  12
ENDBRANCH   1   2
BRANCH   1  19
ATOM     16  C   UNL     1      -2.236  -4.860  -3.968  0.00  0.00    +0.000 A 
ATOM     17  C   UNL     1      -3.116  -3.930  -3.449  0.00  0.00    +0.000 A 
ATOM     18  C   UNL     1      -2.938  -3.450  -2.165  0.00  0.00    +0.006 A 
ATOM     19  C   UNL     1      -1.879  -3.902  -1.399  0.00  0.00    -0.023 A 
ATOM     20  C   UNL     1      -0.996  -4.829  -1.920  0.00  0.00    +0.006 A 
ATOM     21  C   UNL     1      -1.177  -5.312  -3.203  0.00  0.00    +0.000 A 
ENDBRANCH   1  19
BRANCH   1  22
ATOM     22  N   UNL     1      -1.273  -4.478   0.879  0.00  0.00    -0.304 N 
ATOM     23  C   UNL     1      -2.202  -5.274   1.444  0.00  0.00    +0.218 C 
ATOM     24  O   UNL     1      -3.380  -5.082   1.225  0.00  0.00    -0.276 OA
ATOM     25  H   UNL     1      -0.205  -4.653   1.077  0.00  0.00    +0.150 HD
BRANCH  23  26
ATOM     26  C   UNL     1      -1.779  -6.404   2.347  0.00  0.00    +0.150 C 
BRANCH  26  27
ATOM     27  C   UNL     1      -3.018  -7.146   2.851  0.00  0.00    +0.268 C 
ATOM     28  C   UNL     1      -2.591  -8.348   3.654  0.00  0.00    +0.259 C 
ATOM     29  O   UNL     1      -2.473  -9.429   3.116  0.00  0.00    -0.271 OA
ATOM     30  N   UNL     1      -2.341  -8.217   4.974  0.00  0.00    -0.280 N 
ATOM     31  C   UNL     1      -2.596  -6.990   5.600  0.00  0.00    +0.076 A 
ATOM     32  C   UNL     1      -2.156  -6.751   6.892  0.00  0.00    +0.027 A 
ATOM     33  C   UNL     1      -2.410  -5.531   7.491  0.00  0.00    +0.002 A 
ATOM     34  C   UNL     1      -3.107  -4.552   6.808  0.00  0.00    +0.004 A 
ATOM     35  C   UNL     1      -3.564  -4.790   5.524  0.00  0.00    +0.047 A 
ATOM     36  C   UNL     1      -3.319  -6.011   4.920  0.00  0.00    +0.143 A 
ATOM     37  O   UNL     1      -3.795  -6.271   3.672  0.00  0.00    -0.477 OA
ATOM     38  H   UNL     1      -1.941  -9.068   5.545  0.00  0.00    +0.155 HD
ENDBRANCH  26  27
ENDBRANCH  23  26
ENDBRANCH   1  22
TORSDOF 6
