REMARK  Name = ZINC45623232
REMARK  5 active torsions:
REMARK  status: ('A' for Active; 'I' for Inactive)
REMARK    1  A    between atoms: C_1  and  N_2
REMARK    2  A    between atoms: C_3  and  C_5
REMARK    3  A    between atoms: C_5  and  N_6
REMARK    4  A    between atoms: C_7  and  C_9
REMARK    5  A    between atoms: C_11  and  N_16
REMARK                            x       y       z     vdW  Elec       q    Type
REMARK                         _______ _______ _______ _____ _____    ______ ____
ROOT
ATOM      1  N   UNL     1      -2.510  -2.708   0.011  0.00  0.00    -0.303 N 
ATOM      2  C   UNL     1      -2.738  -4.036   0.006  0.00  0.00    +0.246 C 
ATOM      3  O   UNL     1      -1.804  -4.813  -0.007  0.00  0.00    -0.270 OA
ATOM      4  H   UNL     1      -3.256  -2.087   0.022  0.00  0.00    +0.150 HD
ENDROOT
BRANCH   2   5
ATOM      5  C   UNL     1      -4.125  -4.548   0.017  0.00  0.00    +0.052 A 
ATOM      6  C   UNL     1      -5.199  -3.658   0.026  0.00  0.00    +0.037 A 
ATOM      7  C   UNL     1      -6.497  -4.145   0.035  0.00  0.00    +0.025 A 
ATOM      8  C   UNL     1      -6.725  -5.516   0.036  0.00  0.00    +0.024 A 
ATOM      9  C   UNL     1      -5.661  -6.399   0.028  0.00  0.00    +0.018 A 
ATOM     10  C   UNL     1      -4.364  -5.923   0.012  0.00  0.00    +0.030 A 
ATOM     11 BR   UNL     1      -2.913  -7.136  -0.008  0.00  0.00    -0.050 Br
BRANCH   7  12
ATOM     12  N   UNL     1      -7.576  -3.257   0.045  0.00  0.00    -0.358 N 
ATOM     13  H   UNL     1      -7.417  -2.300   0.045  0.00  0.00    +0.142 HD
ATOM     14  H   UNL     1      -8.484  -3.598   0.051  0.00  0.00    +0.142 HD
ENDBRANCH   7  12
ENDBRANCH   2   5
BRANCH   1  15
ATOM     15  C   UNL     1      -1.135  -2.201   0.001  0.00  0.00    +0.200 C 
BRANCH  15  18
ATOM     16  C   UNL     1      -0.018   1.461   0.010  0.00  0.00    +0.128 C 
ATOM     17  N   UNL     1       0.002  -0.004   0.002  0.00  0.00    -0.317 N 
ATOM     18  C   UNL     1      -1.156  -0.694   0.009  0.00  0.00    +0.230 C 
ATOM     19  O   UNL     1      -2.214  -0.102   0.023  0.00  0.00    -0.274 OA
ATOM     20  H   UNL     1       0.849  -0.478  -0.009  0.00  0.00    +0.148 HD
ENDBRANCH  15  18
ENDBRANCH   1  15
TORSDOF 4
