REMARK  Name = ZINC54620513
REMARK  11 active torsions:
REMARK  status: ('A' for Active; 'I' for Inactive)
REMARK    1  A    between atoms: C_1  and  C_2
REMARK    2  A    between atoms: C_8  and  C_13
REMARK    3  A    between atoms: C_9  and  O_12
REMARK    4  A    between atoms: C_13  and  C_15
REMARK    5  A    between atoms: C_13  and  N_22
REMARK    6  A    between atoms: N_22  and  C_23
REMARK    7  A    between atoms: C_26  and  C_29
REMARK    8  A    between atoms: C_29  and  O_31
REMARK    9  A    between atoms: O_31  and  C_32
REMARK   10  A    between atoms: C_32  and  C_33
REMARK   11  A    between atoms: C_32  and  C_34
REMARK                            x       y       z     vdW  Elec       q    Type
REMARK                         _______ _______ _______ _____ _____    ______ ____
ROOT
ATOM      1  C   UNL     1       0.086  -4.769   3.747  0.00  0.00    +0.135 C 
ENDROOT
BRANCH   1   9
ATOM      2  C   UNL     1       0.245   1.349  -0.235  0.00  0.00    +0.065 C 
ATOM      3  C   UNL     1       0.304  -0.156  -0.178  0.00  0.00    +0.039 A 
ATOM      4  C   UNL     1       0.461  -0.873  -1.362  0.00  0.00    +0.023 A 
ATOM      5  C   UNL     1       0.517  -2.238  -1.330  0.00  0.00    +0.012 A 
ATOM      6  C   UNL     1       0.411  -2.877  -0.080  0.00  0.00    +0.004 A 
ATOM      7  C   UNL     1       0.461  -4.276   0.032  0.00  0.00    +0.010 A 
ATOM      8  C   UNL     1       0.356  -4.860   1.258  0.00  0.00    +0.010 A 
ATOM      9  C   UNL     1       0.199  -4.089   2.406  0.00  0.00    +0.021 A 
ATOM     10  C   UNL     1       0.147  -2.726   2.337  0.00  0.00    +0.148 A 
ATOM     11  C   UNL     1       0.253  -2.087   1.084  0.00  0.00    +0.113 A 
ATOM     12  N   UNL     1       0.211  -0.755   0.984  0.00  0.00    -0.248 NA
BRANCH  10  13
ATOM     13  O   UNL     1      -0.006  -1.990   3.469  0.00  0.00    -0.504 OA
ATOM     14  H   UNL     1       0.827  -1.739   3.890  0.00  0.00    +0.292 HD
ENDBRANCH  10  13
ENDBRANCH   1   9
BRANCH   1  15
ATOM     15  C   UNL     1       1.453  -4.881   4.371  0.00  0.00    -0.023 A 
ATOM     16  C   UNL     1       2.316  -5.883   3.968  0.00  0.00    +0.008 A 
ATOM     17  C   UNL     1       3.570  -5.986   4.539  0.00  0.00    +0.038 A 
ATOM     18  C   UNL     1       3.962  -5.085   5.515  0.00  0.00    +0.123 A 
ATOM     19  C   UNL     1       3.096  -4.082   5.918  0.00  0.00    +0.038 A 
ATOM     20  C   UNL     1       1.845  -3.978   5.341  0.00  0.00    +0.008 A 
ATOM     21  F   UNL     1       5.188  -5.186   6.075  0.00  0.00    -0.205 F 
ENDBRANCH   1  15
BRANCH   1  22
ATOM     22  N   UNL     1      -0.481  -6.108   3.568  0.00  0.00    -0.333 N 
ATOM     23  H   UNL     1      -0.394  -6.562   2.715  0.00  0.00    +0.147 HD
BRANCH  22  24
ATOM     24  C   UNL     1      -1.143  -6.729   4.621  0.00  0.00    +0.028 A 
ATOM     25  C   UNL     1      -1.272  -6.074   5.843  0.00  0.00    +0.024 A 
ATOM     26  C   UNL     1      -1.925  -6.683   6.883  0.00  0.00    +0.017 A 
ATOM     27  C   UNL     1      -2.462  -7.963   6.716  0.00  0.00    +0.059 A 
ATOM     28  C   UNL     1      -2.330  -8.619   5.488  0.00  0.00    +0.017 A 
ATOM     29  C   UNL     1      -1.681  -8.002   4.450  0.00  0.00    +0.024 A 
BRANCH  27  30
ATOM     30  C   UNL     1      -3.164  -8.621   7.833  0.00  0.00    +0.339 C 
ATOM     31  O   UNL     1      -3.277  -8.051   8.900  0.00  0.00    -0.245 OA
BRANCH  30  32
ATOM     32  O   UNL     1      -3.680  -9.855   7.670  0.00  0.00    -0.458 OA
BRANCH  32  33
ATOM     33  C   UNL     1      -4.348 -10.433   8.794  0.00  0.00    +0.171 C 
ATOM     34  C   UNL     1      -5.449 -11.376   8.305  0.00  0.00    +0.052 C 
ATOM     35  C   UNL     1      -3.341 -11.218   9.637  0.00  0.00    +0.052 C 
ENDBRANCH  32  33
ENDBRANCH  30  32
ENDBRANCH  27  30
ENDBRANCH  22  24
ENDBRANCH   1  22
TORSDOF 8
