REMARK  Name = ZINC37604798
REMARK  11 active torsions:
REMARK  status: ('A' for Active; 'I' for Inactive)
REMARK    1  A    between atoms: C_1  and  C_2
REMARK    2  A    between atoms: C_5  and  C_8
REMARK    3  A    between atoms: C_12  and  O_24
REMARK    4  A    between atoms: C_19  and  C_21
REMARK    5  A    between atoms: C_21  and  C_22
REMARK    6  A    between atoms: C_21  and  C_23
REMARK    7  A    between atoms: O_24  and  C_25
REMARK    8  A    between atoms: C_25  and  C_26
REMARK    9  A    between atoms: C_29  and  C_31
REMARK   10  A    between atoms: N_33  and  C_34
REMARK   11  A    between atoms: C_34  and  C_35
REMARK                            x       y       z     vdW  Elec       q    Type
REMARK                         _______ _______ _______ _____ _____    ______ ____
ROOT
ATOM      1  C   UNL     1       0.521  -4.833   0.375  0.00  0.00    +0.137 C 
ATOM      2  C   UNL     1       1.712  -5.759   0.386  0.00  0.00    -0.016 A 
ATOM      3  C   UNL     1       2.636  -5.635  -0.642  0.00  0.00    +0.051 A 
ATOM      4  C   UNL     1       3.755  -6.449  -0.681  0.00  0.00    +0.121 A 
ATOM      5  C   UNL     1       3.951  -7.394   0.317  0.00  0.00    +0.046 A 
ATOM      6  C   UNL     1       3.029  -7.516   1.333  0.00  0.00    +0.007 A 
ATOM      7  C   UNL     1       1.902  -6.703   1.370  0.00  0.00    -0.040 A 
ATOM      8  C   UNL     1       0.926  -6.915   2.498  0.00  0.00    +0.054 C 
ATOM      9  C   UNL     1       0.036  -5.688   2.685  0.00  0.00    +0.113 C 
ATOM     10  N   UNL     1      -0.466  -5.287   1.361  0.00  0.00    -0.290 N 
ATOM     11  C   UNL     1      -1.780  -5.334   1.067  0.00  0.00    +0.219 C 
ATOM     12  O   UNL     1      -2.159  -5.081  -0.057  0.00  0.00    -0.275 OA
ENDROOT
BRANCH   1  17
ATOM     13  C   UNL     1       2.240   0.523   1.695  0.00  0.00    +0.044 C 
ATOM     14  C   UNL     1       1.792  -0.874   1.351  0.00  0.00    -0.050 A 
ATOM     15  C   UNL     1       2.079  -1.922   2.205  0.00  0.00    +0.004 A 
ATOM     16  C   UNL     1       1.667  -3.203   1.889  0.00  0.00    +0.006 A 
ATOM     17  C   UNL     1       0.969  -3.436   0.719  0.00  0.00    -0.023 A 
ATOM     18  C   UNL     1       0.681  -2.388  -0.134  0.00  0.00    +0.006 A 
ATOM     19  C   UNL     1       1.088  -1.106   0.184  0.00  0.00    +0.004 A 
ENDBRANCH   1  17
BRANCH  11  20
ATOM     20  C   UNL     1      -2.778  -5.702   2.134  0.00  0.00    +0.069 C 
ATOM     21  C   UNL     1      -3.116  -4.462   2.965  0.00  0.00    +0.017 C 
ATOM     22  C   UNL     1      -4.052  -6.239   1.478  0.00  0.00    +0.017 C 
ENDBRANCH  11  20
BRANCH   4  23
ATOM     23  O   UNL     1       4.656  -6.324  -1.691  0.00  0.00    -0.484 OA
BRANCH  23  24
ATOM     24  C   UNL     1       5.786  -7.199  -1.664  0.00  0.00    +0.303 C 
BRANCH  24  25
ATOM     25  C   UNL     1       6.668  -6.917  -2.853  0.00  0.00    +0.143 A 
ATOM     26  C   UNL     1       7.690  -6.034  -2.883  0.00  0.00    +0.049 A 
ATOM     27  C   UNL     1       8.242  -6.084  -4.173  0.00  0.00    +0.055 A 
ATOM     28  C   UNL     1       7.519  -7.006  -4.873  0.00  0.00    +0.190 A 
ATOM     29  O   UNL     1       6.571  -7.505  -4.053  0.00  0.00    -0.452 OA
BRANCH  28  30
ATOM     30  C   UNL     1       7.737  -7.391  -6.272  0.00  0.00    +0.280 C 
ATOM     31  O   UNL     1       8.632  -6.872  -6.913  0.00  0.00    -0.267 OA
ATOM     32  N   UNL     1       6.948  -8.320  -6.846  0.00  0.00    -0.302 N 
ATOM     33  H   UNL     1       6.235  -8.734  -6.335  0.00  0.00    +0.150 HD
BRANCH  32  34
ATOM     34  C   UNL     1       7.166  -8.705  -8.243  0.00  0.00    +0.179 C 
BRANCH  34  35
ATOM     35  C   UNL     1       6.157  -9.752  -8.639  0.00  0.00    +0.122 A 
ATOM     36  C   UNL     1       4.946  -9.515  -9.175  0.00  0.00    +0.046 A 
ATOM     37  C   UNL     1       4.339 -10.774  -9.388  0.00  0.00    +0.041 A 
ATOM     38  C   UNL     1       5.216 -11.705  -8.971  0.00  0.00    +0.195 A 
ATOM     39  O   UNL     1       6.317 -11.080  -8.524  0.00  0.00    -0.466 OA
ENDBRANCH  34  35
ENDBRANCH  32  34
ENDBRANCH  28  30
ENDBRANCH  24  25
ENDBRANCH  23  24
ENDBRANCH   4  23
TORSDOF 8
