REMARK  Name = ZINC21239384
REMARK  10 active torsions:
REMARK  status: ('A' for Active; 'I' for Inactive)
REMARK    1  A    between atoms: C_1  and  C_2
REMARK    2  A    between atoms: C_2  and  O_3
REMARK    3  A    between atoms: O_3  and  C_4
REMARK    4  A    between atoms: C_6  and  C_12
REMARK    5  A    between atoms: C_9  and  O_10
REMARK    6  A    between atoms: C_17  and  C_22
REMARK    7  A    between atoms: C_25  and  C_28
REMARK    8  A    between atoms: C_28  and  C_29
REMARK    9  A    between atoms: C_28  and  C_30
REMARK   10  A    between atoms: C_28  and  C_31
REMARK                            x       y       z     vdW  Elec       q    Type
REMARK                         _______ _______ _______ _____ _____    ______ ____
ROOT
ATOM      1  C   UNL     1      -1.371  -0.632  -0.044  0.00  0.00    +0.136 C 
ATOM      2  C   UNL     1      -0.096   0.168   0.079  0.00  0.00    +0.036 C 
ATOM      3  C   UNL     1       1.150  -0.333   0.093  0.00  0.00    +0.017 C 
ATOM      4  C   UNL     1       2.350   0.592   0.218  0.00  0.00    +0.059 C 
ATOM      5  C   UNL     1       2.049   1.929  -0.457  0.00  0.00    +0.032 C 
ATOM      6  C   UNL     1       0.831   2.542   0.244  0.00  0.00    +0.088 C 
ATOM      7  C   UNL     1      -0.304   1.565   0.167  0.00  0.00    +0.163 C 
ATOM      8  O   UNL     1      -1.444   1.988   0.176  0.00  0.00    -0.292 OA
ATOM      9  N   UNL     1       1.461  -1.653   0.017  0.00  0.00    -0.316 N 
ATOM     10  C   UNL     1       0.916  -2.547  -0.899  0.00  0.00    +0.052 A 
ATOM     11  C   UNL     1       1.681  -3.181  -1.862  0.00  0.00    +0.025 A 
ATOM     12  C   UNL     1       1.082  -4.097  -2.709  0.00  0.00    +0.002 A 
ATOM     13  C   UNL     1      -0.268  -4.376  -2.590  0.00  0.00    +0.002 A 
ATOM     14  C   UNL     1      -1.037  -3.728  -1.640  0.00  0.00    +0.025 A 
ATOM     15  C   UNL     1      -0.445  -2.792  -0.805  0.00  0.00    +0.049 A 
ATOM     16  N   UNL     1      -1.197  -2.060   0.110  0.00  0.00    -0.331 N 
ATOM     17  H   UNL     1       2.194  -2.086   0.713  0.00  0.00    +0.152 HD
ATOM     18  H   UNL     1      -1.663  -2.583   0.958  0.00  0.00    +0.147 HD
ENDROOT
BRANCH   1  21
ATOM     19  C   UNL     1      -3.764   0.492  -2.744  0.00  0.00    +0.163 A 
ATOM     20  C   UNL     1      -3.208   0.247  -1.498  0.00  0.00    +0.055 A 
ATOM     21  C   UNL     1      -1.973  -0.366  -1.400  0.00  0.00    -0.018 A 
ATOM     22  C   UNL     1      -1.286  -0.732  -2.543  0.00  0.00    +0.029 A 
ATOM     23  C   UNL     1      -1.837  -0.495  -3.790  0.00  0.00    +0.086 A 
ATOM     24  C   UNL     1      -3.076   0.119  -3.895  0.00  0.00    +0.177 A 
ATOM     25 CL   UNL     1      -0.975  -0.961  -5.223  0.00  0.00    -0.080 Cl
BRANCH  24  26
ATOM     26  O   UNL     1      -3.617   0.357  -5.120  0.00  0.00    -0.502 OA
ATOM     27  H   UNL     1      -3.072   0.062  -6.028  0.00  0.00    +0.292 HD
ENDBRANCH  24  26
BRANCH  19  28
ATOM     28  O   UNL     1      -4.979   1.094  -2.842  0.00  0.00    -0.489 OA
BRANCH  28  30
ATOM     29  C   UNL     1      -6.972   2.110  -1.927  0.00  0.00    +0.048 C 
ATOM     30  C   UNL     1      -5.627   1.448  -1.619  0.00  0.00    +0.226 C 
ENDBRANCH  28  30
ENDBRANCH  19  28
ENDBRANCH   1  21
BRANCH   5  31
ATOM     31  C   UNL     1       3.234   2.850  -0.319  0.00  0.00    -0.043 A 
ATOM     32  C   UNL     1       3.683   3.214   0.937  0.00  0.00    +0.004 A 
ATOM     33  C   UNL     1       4.773   4.055   1.064  0.00  0.00    +0.004 A 
ATOM     34  C   UNL     1       5.408   4.539  -0.065  0.00  0.00    -0.042 A 
ATOM     35  C   UNL     1       4.956   4.178  -1.320  0.00  0.00    +0.004 A 
ATOM     36  C   UNL     1       3.869   3.334  -1.447  0.00  0.00    +0.004 A 
BRANCH  34  37
ATOM     37  C   UNL     1       6.594   5.459   0.074  0.00  0.00    -0.013 C 
ATOM     38  C   UNL     1       6.284   6.795  -0.606  0.00  0.00    +0.015 C 
ATOM     39  C   UNL     1       6.884   5.697   1.557  0.00  0.00    +0.015 C 
ATOM     40  C   UNL     1       7.816   4.820  -0.590  0.00  0.00    +0.015 C 
ENDBRANCH  34  37
ENDBRANCH   5  31
TORSDOF 6
