REMARK  Name = ZINC63526303
REMARK  12 active torsions:
REMARK  status: ('A' for Active; 'I' for Inactive)
REMARK    1  A    between atoms: C_1  and  C_2
REMARK    2  A    between atoms: C_2  and  O_3
REMARK    3  A    between atoms: O_3  and  C_4
REMARK    4  A    between atoms: C_9  and  S_14
REMARK    5  A    between atoms: S_14  and  C_15
REMARK    6  A    between atoms: C_15  and  C_16
REMARK    7  A    between atoms: N_21  and  S_27
REMARK    8  A    between atoms: C_22  and  C_24
REMARK    9  A    between atoms: C_24  and  C_25
REMARK   10  A    between atoms: C_24  and  C_26
REMARK   11  A    between atoms: S_27  and  C_30
REMARK   12  A    between atoms: C_33  and  C_36
REMARK                            x       y       z     vdW  Elec       q    Type
REMARK                         _______ _______ _______ _____ _____    ______ ____
ROOT
ATOM      1  C   UNL     1      -3.974  -8.228  -4.786  0.00  0.00    +0.227 C 
ATOM      2  O   UNL     1      -4.886  -8.814  -5.330  0.00  0.00    -0.275 OA
ATOM      3  N   UNL     1      -3.413  -7.156  -5.378  0.00  0.00    -0.282 N 
ATOM      4  C   UNL     1      -2.345  -6.299  -4.829  0.00  0.00    +0.126 C 
ATOM      5  C   UNL     1      -2.589  -4.926  -5.487  0.00  0.00    +0.130 C 
ATOM      6  N   UNL     1      -3.238  -5.230  -6.773  0.00  0.00    -0.154 NA
ATOM      7  C   UNL     1      -3.738  -6.611  -6.704  0.00  0.00    +0.170 C 
ENDROOT
BRANCH   7   8
ATOM      8  C   UNL     1      -5.254  -6.619  -6.906  0.00  0.00    +0.020 C 
ATOM      9  C   UNL     1      -5.819  -5.232  -6.590  0.00  0.00    +0.010 C 
ATOM     10  C   UNL     1      -5.572  -6.980  -8.359  0.00  0.00    +0.010 C 
ENDBRANCH   7   8
BRANCH   6  11
ATOM     11  S   UNL     1      -3.375  -4.204  -8.066  0.00  0.00    +0.063 S 
ATOM     12  O   UNL     1      -4.511  -4.630  -8.804  0.00  0.00    -0.153 OA
ATOM     13  O   UNL     1      -3.251  -2.885  -7.553  0.00  0.00    -0.153 OA
BRANCH  11  14
ATOM     14  C   UNL     1      -1.973  -4.477  -9.098  0.00  0.00    +0.106 A 
ATOM     15  C   UNL     1      -0.815  -3.749  -8.897  0.00  0.00    +0.029 A 
ATOM     16  C   UNL     1       0.285  -3.963  -9.707  0.00  0.00    +0.005 A 
ATOM     17  C   UNL     1       0.227  -4.905 -10.716  0.00  0.00    -0.050 A 
ATOM     18  C   UNL     1      -0.930  -5.634 -10.916  0.00  0.00    +0.005 A 
ATOM     19  C   UNL     1      -2.029  -5.423 -10.104  0.00  0.00    +0.029 A 
ATOM     20  C   UNL     1       1.426  -5.138 -11.600  0.00  0.00    +0.044 C 
ENDBRANCH  11  14
ENDBRANCH   6  11
BRANCH   1  21
ATOM     21  C   UNL     1      -3.468  -8.700  -3.447  0.00  0.00    +0.168 C 
BRANCH  21  22
ATOM     22  S   UNL     1      -4.419 -10.151  -2.918  0.00  0.00    -0.106 S 
BRANCH  22  28
ATOM     23  C   UNL     1      -0.741  -7.940   1.026  0.00  0.00    +0.123 A 
ATOM     24  C   UNL     1       0.213  -8.814   0.355  0.00  0.00    +0.048 A 
ATOM     25  C   UNL     1      -0.185  -9.796  -0.475  0.00  0.00    +0.031 A 
ATOM     26  C   UNL     1      -1.619 -10.007  -0.724  0.00  0.00    +0.061 A 
ATOM     27  N   UNL     1      -2.262 -10.863  -1.464  0.00  0.00    -0.355 N 
ATOM     28  C   UNL     1      -3.696 -10.589  -1.313  0.00  0.00    +0.236 C 
ATOM     29  N   UNL     1      -3.806  -9.457  -0.385  0.00  0.00    -0.355 N 
ATOM     30  C   UNL     1      -2.594  -9.116  -0.040  0.00  0.00    +0.064 A 
ATOM     31  C   UNL     1      -2.079  -8.075   0.852  0.00  0.00    +0.073 A 
ATOM     32  H   UNL     1      -1.866 -11.556  -2.016  0.00  0.00    +0.162 HD
ATOM     33  H   UNL     1      -4.628  -9.039  -0.083  0.00  0.00    +0.162 HD
BRANCH  23  34
ATOM     34  O   UNL     1      -0.278  -6.968   1.851  0.00  0.00    -0.492 OA
BRANCH  34  36
ATOM     35  C   UNL     1       1.469  -5.722   2.962  0.00  0.00    +0.048 C 
ATOM     36  C   UNL     1       1.139  -6.866   2.001  0.00  0.00    +0.225 C 
ENDBRANCH  34  36
ENDBRANCH  23  34
ENDBRANCH  22  28
ENDBRANCH  21  22
ENDBRANCH   1  21
TORSDOF 8
