REMARK  Name = ZINC18466122
REMARK  13 active torsions:
REMARK  status: ('A' for Active; 'I' for Inactive)
REMARK    1  A    between atoms: C_1  and  C_2
REMARK    2  A    between atoms: C_4  and  C_13
REMARK    3  A    between atoms: C_6  and  S_9
REMARK    4  A    between atoms: C_7  and  C_8
REMARK    5  A    between atoms: S_9  and  N_12
REMARK    6  A    between atoms: C_13  and  O_15
REMARK    7  A    between atoms: O_15  and  C_16
REMARK    8  A    between atoms: C_16  and  C_18
REMARK    9  A    between atoms: C_16  and  C_19
REMARK   10  A    between atoms: N_21  and  C_22
REMARK   11  A    between atoms: C_24  and  C_31
REMARK   12  A    between atoms: C_27  and  O_28
REMARK   13  A    between atoms: O_28  and  C_29
REMARK                            x       y       z     vdW  Elec       q    Type
REMARK                         _______ _______ _______ _____ _____    ______ ____
ROOT
ATOM      1  O   UNL     1      -2.468   1.423   0.005  0.00  0.00    -0.449 OA
ENDROOT
BRANCH   1   2
ATOM      2  C   UNL     1      -1.309   2.109  -0.007  0.00  0.00    +0.340 C 
ATOM      3  O   UNL     1      -1.322   3.324  -0.008  0.00  0.00    -0.245 OA
BRANCH   2   7
ATOM      4  C   UNL     1       1.224  -2.190  -0.036  0.00  0.00    +0.044 C 
ATOM      5  C   UNL     1       1.202  -0.683  -0.037  0.00  0.00    -0.045 A 
ATOM      6  C   UNL     1      -0.004  -0.012  -0.019  0.00  0.00    +0.018 A 
ATOM      7  C   UNL     1      -0.022   1.384  -0.020  0.00  0.00    +0.061 A 
ATOM      8  C   UNL     1       1.182   2.092  -0.038  0.00  0.00    +0.043 A 
ATOM      9  C   UNL     1       2.380   1.408  -0.056  0.00  0.00    +0.109 A 
ATOM     10  C   UNL     1       2.391   0.025  -0.055  0.00  0.00    -0.021 A 
ATOM     11  C   UNL     1       3.703  -0.715  -0.074  0.00  0.00    +0.046 C 
BRANCH   9  12
ATOM     12  S   UNL     1       3.900   2.299  -0.079  0.00  0.00    +0.056 S 
ATOM     13  O   UNL     1       4.688   1.731  -1.115  0.00  0.00    -0.153 OA
ATOM     14  O   UNL     1       3.562   3.679  -0.048  0.00  0.00    -0.153 OA
BRANCH  12  15
ATOM     15  N   UNL     1       4.681   1.971   1.344  0.00  0.00    -0.204 NA
ATOM     16  H   UNL     1       4.274   1.379   1.996  0.00  0.00    +0.144 HD
ATOM     17  H   UNL     1       5.546   2.371   1.526  0.00  0.00    +0.144 HD
ENDBRANCH  12  15
ENDBRANCH   9  12
ENDBRANCH   2   7
ENDBRANCH   1   2
BRANCH   1  18
ATOM     18  C   UNL     1      -3.694   2.201   0.017  0.00  0.00    +0.259 C 
ATOM     19  C   UNL     1      -4.140   2.474  -1.421  0.00  0.00    +0.062 C 
BRANCH  18  20
ATOM     20  C   UNL     1      -4.770   1.432   0.739  0.00  0.00    +0.258 C 
ATOM     21  O   UNL     1      -4.528   0.336   1.199  0.00  0.00    -0.271 OA
ATOM     22  N   UNL     1      -6.002   1.962   0.875  0.00  0.00    -0.280 N 
ATOM     23  H   UNL     1      -6.175   2.870   0.579  0.00  0.00    +0.155 HD
BRANCH  22  24
ATOM     24  C   UNL     1      -7.034   1.201   1.442  0.00  0.00    +0.076 A 
ATOM     25  C   UNL     1      -6.983  -0.184   1.396  0.00  0.00    +0.031 A 
ATOM     26  C   UNL     1      -7.998  -0.932   1.960  0.00  0.00    -0.030 A 
ATOM     27  C   UNL     1      -9.073  -0.302   2.564  0.00  0.00    +0.047 A 
ATOM     28  C   UNL     1      -9.133   1.079   2.609  0.00  0.00    +0.067 A 
ATOM     29  C   UNL     1      -8.115   1.835   2.050  0.00  0.00    +0.143 A 
ATOM     30 CL   UNL     1     -10.348  -1.248   3.266  0.00  0.00    -0.083 Cl
ATOM     31  C   UNL     1      -7.939  -2.437   1.913  0.00  0.00    +0.045 C 
BRANCH  29  32
ATOM     32  O   UNL     1      -8.172   3.193   2.094  0.00  0.00    -0.493 OA
ATOM     33  C   UNL     1      -9.311   3.774   2.733  0.00  0.00    +0.277 C 
ENDBRANCH  29  32
ENDBRANCH  22  24
ENDBRANCH  18  20
ENDBRANCH   1  18
TORSDOF 8
