REMARK  Name = ZINC37542847
REMARK  5 active torsions:
REMARK  status: ('A' for Active; 'I' for Inactive)
REMARK    1  A    between atoms: C_8  and  C_11
REMARK    2  A    between atoms: C_11  and  N_12
REMARK    3  A    between atoms: N_12  and  C_13
REMARK    4  A    between atoms: N_12  and  C_17
REMARK    5  A    between atoms: C_13  and  C_14
REMARK                            x       y       z     vdW  Elec       q    Type
REMARK                         _______ _______ _______ _____ _____    ______ ____
ROOT
ATOM      1  N   UNL     1       2.973  -4.016   1.869  0.00  0.00    +0.389 N 
ATOM      2  H   UNL     1       3.902  -3.623   1.901  0.00  0.00    -0.081 HD
ENDROOT
BRANCH   1   3
ATOM      3  C   UNL     1       3.037  -5.448   2.191  0.00  0.00    -0.065 C 
ATOM      4  C   UNL     1       3.611  -5.631   3.598  0.00  0.00    -0.000 C 
ATOM      5  C   UNL     1       3.732  -7.126   3.903  0.00  0.00    +0.079 C 
ATOM      6  N   UNL     1       4.608  -7.761   2.911  0.00  0.00    -0.316 NA
ATOM      7  C   UNL     1       4.053  -7.638   1.557  0.00  0.00    +0.079 C 
ATOM      8  C   UNL     1       3.942  -6.159   1.181  0.00  0.00    -0.000 C 
ATOM      9  H   UNL     1       5.541  -7.378   2.955  0.00  0.00    +0.122 HD
ENDBRANCH   1   3
BRANCH   1  10
ATOM     10  C   UNL     1       2.412  -3.840   0.523  0.00  0.00    -0.043 C 
BRANCH  10  18
ATOM     11  C   UNL     1      -0.257   1.492  -0.044  0.00  0.00    +0.005 C 
ATOM     12  C   UNL     1       1.215   1.939  -0.165  0.00  0.00    +0.005 C 
ATOM     13  C   UNL     1       2.023   0.759   0.432  0.00  0.00    +0.065 C 
ATOM     14  C   UNL     1       1.230  -0.474  -0.050  0.00  0.00    +0.170 C 
ATOM     15  C   UNL     1      -0.244  -0.047   0.021  0.00  0.00    +0.065 C 
ATOM     16  O   UNL     1       1.597  -0.812  -1.387  0.00  0.00    -0.346 OA
ATOM     17  C   UNL     1       2.091  -2.168  -1.358  0.00  0.00    +0.193 C 
ATOM     18  C   UNL     1       2.489  -2.365   0.127  0.00  0.00    +0.131 C 
ATOM     19  O   UNL     1       1.475  -1.589   0.812  0.00  0.00    -0.345 OA
ENDBRANCH  10  18
ENDBRANCH   1  10
BRANCH   1  20
ATOM     20  C   UNL     1       2.119  -3.332   2.849  0.00  0.00    +0.019 C 
BRANCH  20  21
ATOM     21  C   UNL     1       0.718  -3.880   2.764  0.00  0.00    +0.194 C 
ATOM     22  O   UNL     1       0.480  -4.827   2.045  0.00  0.00    -0.278 OA
ATOM     23  N   UNL     1      -0.271  -3.318   3.487  0.00  0.00    -0.331 N 
ATOM     24  H   UNL     1      -0.081  -2.561   4.062  0.00  0.00    +0.145 HD
ATOM     25  H   UNL     1      -1.173  -3.671   3.432  0.00  0.00    +0.145 HD
ENDBRANCH  20  21
ENDBRANCH   1  20
TORSDOF 5
