REMARK  Name = ZINC36046201
REMARK  11 active torsions:
REMARK  status: ('A' for Active; 'I' for Inactive)
REMARK    1  A    between atoms: C_1  and  C_2
REMARK    2  A    between atoms: C_2  and  C_3
REMARK    3  A    between atoms: C_2  and  C_4
REMARK    4  A    between atoms: C_7  and  C_10
REMARK    5  A    between atoms: N_11  and  N_12
REMARK    6  A    between atoms: C_13  and  C_15
REMARK    7  A    between atoms: C_18  and  C_20
REMARK    8  A    between atoms: C_23  and  C_26
REMARK    9  A    between atoms: C_26  and  C_27
REMARK   10  A    between atoms: C_26  and  C_28
REMARK   11  A    between atoms: C_26  and  C_29
REMARK                            x       y       z     vdW  Elec       q    Type
REMARK                         _______ _______ _______ _____ _____    ______ ____
ROOT
ATOM      1  N   UNL     1      -4.990  -2.992  -2.032  0.00  0.00    -0.207 N 
ATOM      2  C   UNL     1      -5.481  -3.598  -3.131  0.00  0.00    +0.236 C 
ATOM      3  O   UNL     1      -6.664  -3.860  -3.203  0.00  0.00    -0.274 OA
ATOM      4  H   UNL     1      -4.045  -2.783  -1.975  0.00  0.00    +0.177 HD
ENDROOT
BRANCH   2   5
ATOM      5  C   UNL     1      -4.562  -3.950  -4.272  0.00  0.00    +0.085 C 
ATOM      6  C   UNL     1      -4.729  -3.175  -5.580  0.00  0.00    +0.022 C 
ATOM      7  C   UNL     1      -5.180  -4.635  -5.493  0.00  0.00    +0.032 C 
BRANCH   7   8
ATOM      8  C   UNL     1      -4.345  -5.665  -6.210  0.00  0.00    -0.044 A 
ATOM      9  C   UNL     1      -3.127  -5.308  -6.756  0.00  0.00    +0.004 A 
ATOM     10  C   UNL     1      -2.361  -6.252  -7.415  0.00  0.00    +0.004 A 
ATOM     11  C   UNL     1      -2.814  -7.554  -7.526  0.00  0.00    -0.042 A 
ATOM     12  C   UNL     1      -4.032  -7.911  -6.979  0.00  0.00    +0.004 A 
ATOM     13  C   UNL     1      -4.796  -6.967  -6.317  0.00  0.00    +0.004 A 
BRANCH  11  14
ATOM     14  C   UNL     1      -1.980  -8.583  -8.244  0.00  0.00    -0.013 C 
ATOM     15  C   UNL     1      -0.627  -8.721  -7.544  0.00  0.00    +0.015 C 
ATOM     16  C   UNL     1      -2.705  -9.931  -8.224  0.00  0.00    +0.015 C 
ATOM     17  C   UNL     1      -1.762  -8.142  -9.693  0.00  0.00    +0.015 C 
ENDBRANCH  11  14
ENDBRANCH   7   8
ENDBRANCH   2   5
BRANCH   1  19
ATOM     18  C   UNL     1      -5.401  -1.971   0.030  0.00  0.00    +0.138 C 
ATOM     19  N   UNL     1      -5.846  -2.665  -0.972  0.00  0.00    -0.188 NA
BRANCH  18  23
ATOM     20  C   UNL     1      -2.095   0.639  -0.499  0.00  0.00    -0.045 A 
ATOM     21  C   UNL     1      -2.759   0.136  -1.604  0.00  0.00    +0.004 A 
ATOM     22  C   UNL     1      -3.834  -0.712  -1.440  0.00  0.00    +0.010 A 
ATOM     23  C   UNL     1      -4.252  -1.064  -0.154  0.00  0.00    -0.005 A 
ATOM     24  C   UNL     1      -3.576  -0.553   0.957  0.00  0.00    +0.010 A 
ATOM     25  C   UNL     1      -2.500   0.290   0.778  0.00  0.00    +0.004 A 
BRANCH  20  27
ATOM     26  C   UNL     1       0.168   0.853  -1.489  0.00  0.00    +0.012 C 
ATOM     27  C   UNL     1      -0.922   1.566  -0.686  0.00  0.00    +0.013 C 
ATOM     28  C   UNL     1      -1.376   2.817  -1.442  0.00  0.00    +0.012 C 
ENDBRANCH  20  27
ENDBRANCH  18  23
ENDBRANCH   1  19
TORSDOF 6
