REMARK  Name = ZINC29888532
REMARK  5 active torsions:
REMARK  status: ('A' for Active; 'I' for Inactive)
REMARK    1  A    between atoms: C_1  and  C_2
REMARK    2  A    between atoms: C_9  and  C_11
REMARK    3  A    between atoms: C_11  and  N_12
REMARK    4  A    between atoms: N_15  and  C_18
REMARK    5  A    between atoms: C_18  and  N_19
REMARK                            x       y       z     vdW  Elec       q    Type
REMARK                         _______ _______ _______ _____ _____    ______ ____
ROOT
ATOM      1  N   UNL     1       3.048   0.974   3.675  0.00  0.00    -0.298 NA
ATOM      2  C   UNL     1       3.959   1.697   2.777  0.00  0.00    +0.066 C 
ATOM      3  C   UNL     1       4.554   2.897   3.518  0.00  0.00    -0.061 C 
ATOM      4  N   UNL     1       5.279   2.429   4.706  0.00  0.00    +0.394 N 
ATOM      5  C   UNL     1       4.350   1.731   5.605  0.00  0.00    -0.061 C 
ATOM      6  C   UNL     1       3.754   0.521   4.882  0.00  0.00    +0.066 C 
ATOM      7  H   UNL     1       6.014   1.797   4.425  0.00  0.00    -0.079 HD
ENDROOT
BRANCH   1   8
ATOM      8  C   UNL     1       2.412  -0.154   2.982  0.00  0.00    +0.180 C 
BRANCH   8  16
ATOM      9  C   UNL     1      -0.017   1.526   0.009  0.00  0.00    +0.028 C 
ATOM     10  C   UNL     1       0.003  -0.004   0.001  0.00  0.00    +0.073 C 
ATOM     11  C   UNL     1      -1.426  -0.537   0.144  0.00  0.00    +0.022 C 
ATOM     12  C   UNL     1      -1.387  -2.061   0.276  0.00  0.00    +0.003 C 
ATOM     13  C   UNL     1      -0.600  -2.447   1.530  0.00  0.00    +0.019 C 
ATOM     14  C   UNL     1       0.838  -1.935   1.403  0.00  0.00    +0.108 C 
ATOM     15  N   UNL     1       0.808  -0.492   1.130  0.00  0.00    -0.298 N 
ATOM     16  C   UNL     1       1.502   0.368   1.901  0.00  0.00    +0.230 C 
ATOM     17  O   UNL     1       1.393   1.563   1.725  0.00  0.00    -0.274 OA
ENDBRANCH   8  16
ENDBRANCH   1   8
BRANCH   4  18
ATOM     18  C   UNL     1       5.865   3.580   5.407  0.00  0.00    +0.073 C 
BRANCH  18  19
ATOM     19  N   UNL     1       6.686   3.106   6.523  0.00  0.00    -0.245 N 
ATOM     20  C   UNL     1       6.215   3.220   7.779  0.00  0.00    +0.285 A 
ATOM     21  O   UNL     1       5.116   3.713   7.983  0.00  0.00    -0.265 OA
ATOM     22  C   UNL     1       7.003   2.764   8.858  0.00  0.00    +0.126 A 
ATOM     23  C   UNL     1       8.225   2.220   8.569  0.00  0.00    +0.084 A 
ATOM     24  C   UNL     1       8.620   2.148   7.222  0.00  0.00    +0.154 A 
ATOM     25  N   UNL     1       7.835   2.587   6.278  0.00  0.00    -0.177 NA
ATOM     26 CL   UNL     1       9.260   1.633   9.834  0.00  0.00    -0.080 Cl
ATOM     27 CL   UNL     1       6.441   2.889  10.496  0.00  0.00    -0.076 Cl
ENDBRANCH  18  19
ENDBRANCH   4  18
TORSDOF 4
