REMARK  Name = ZINC05759936
REMARK  12 active torsions:
REMARK  status: ('A' for Active; 'I' for Inactive)
REMARK    1  A    between atoms: C_1  and  O_2
REMARK    2  A    between atoms: O_2  and  C_3
REMARK    3  A    between atoms: C_5  and  N_33
REMARK    4  A    between atoms: C_7  and  O_24
REMARK    5  A    between atoms: C_11  and  C_14
REMARK    6  A    between atoms: C_14  and  O_15
REMARK    7  A    between atoms: O_15  and  C_16
REMARK    8  A    between atoms: C_16  and  C_18
REMARK    9  A    between atoms: O_24  and  C_25
REMARK   10  A    between atoms: C_25  and  C_27
REMARK   11  A    between atoms: N_33  and  C_34
REMARK   12  A    between atoms: N_33  and  O_40
REMARK                            x       y       z     vdW  Elec       q    Type
REMARK                         _______ _______ _______ _____ _____    ______ ____
ROOT
ATOM      1  C   UNL     1       2.244   1.387  -1.235  0.00  0.00    +0.280 C 
ATOM      2  C   UNL     1       1.515   2.000  -0.037  0.00  0.00    +0.216 C 
ATOM      3  C   UNL     1       0.091   1.434   0.026  0.00  0.00    +0.275 C 
ATOM      4  C   UNL     1       0.186  -0.077  -0.021  0.00  0.00    +0.208 C 
ATOM      5  O   UNL     1      -0.416  -0.765   0.768  0.00  0.00    -0.290 OA
ATOM      6  C   UNL     1       1.061  -0.696  -1.090  0.00  0.00    +0.228 C 
ATOM      7  O   UNL     1       2.328  -0.030  -1.077  0.00  0.00    -0.335 OA
ENDROOT
BRANCH   1   9
ATOM      8  C   UNL     1       4.246   1.611  -2.533  0.00  0.00    +0.197 C 
ATOM      9  O   UNL     1       3.561   1.934  -1.322  0.00  0.00    -0.352 OA
ENDBRANCH   1   9
BRANCH   6  10
ATOM     10  C   UNL     1       1.257  -2.185  -0.798  0.00  0.00    +0.272 C 
BRANCH  10  11
ATOM     11  O   UNL     1       1.996  -2.798  -1.887  0.00  0.00    -0.458 OA
BRANCH  11  12
ATOM     12  C   UNL     1       2.255  -4.116  -1.784  0.00  0.00    +0.339 C 
ATOM     13  O   UNL     1       1.873  -4.736  -0.812  0.00  0.00    -0.245 OA
BRANCH  12  14
ATOM     14  C   UNL     1       3.002  -4.808  -2.854  0.00  0.00    +0.059 A 
ATOM     15  C   UNL     1       3.437  -4.100  -3.976  0.00  0.00    +0.015 A 
ATOM     16  C   UNL     1       4.139  -4.751  -4.969  0.00  0.00    +0.001 A 
ATOM     17  C   UNL     1       4.403  -6.105  -4.860  0.00  0.00    +0.000 A 
ATOM     18  C   UNL     1       3.970  -6.814  -3.754  0.00  0.00    +0.001 A 
ATOM     19  C   UNL     1       3.272  -6.174  -2.751  0.00  0.00    +0.015 A 
ENDBRANCH  12  14
ENDBRANCH  11  12
ENDBRANCH  10  11
ENDBRANCH   6  10
BRANCH   3  20
ATOM     20  O   UNL     1      -0.547   1.847   1.264  0.00  0.00    -0.448 OA
BRANCH  20  21
ATOM     21  C   UNL     1      -1.889   1.970   1.248  0.00  0.00    +0.340 C 
ATOM     22  O   UNL     1      -2.509   1.739   0.229  0.00  0.00    -0.245 OA
BRANCH  21  23
ATOM     23  C   UNL     1      -2.606   2.387   2.471  0.00  0.00    +0.059 A 
ATOM     24  C   UNL     1      -1.898   2.648   3.645  0.00  0.00    +0.015 A 
ATOM     25  C   UNL     1      -2.574   3.042   4.781  0.00  0.00    +0.001 A 
ATOM     26  C   UNL     1      -3.951   3.168   4.762  0.00  0.00    +0.000 A 
ATOM     27  C   UNL     1      -4.660   2.905   3.603  0.00  0.00    +0.001 A 
ATOM     28  C   UNL     1      -3.997   2.516   2.458  0.00  0.00    +0.015 A 
ENDBRANCH  21  23
ENDBRANCH  20  21
ENDBRANCH   3  20
BRANCH   2  29
ATOM     29  N   UNL     1       1.458   3.456  -0.191  0.00  0.00    -0.244 N 
BRANCH  29  30
ATOM     30  C   UNL     1       1.940   4.286   0.824  0.00  0.00    +0.065 A 
ATOM     31  C   UNL     1       1.114   5.253   1.384  0.00  0.00    +0.028 A 
ATOM     32  C   UNL     1       1.592   6.068   2.391  0.00  0.00    +0.002 A 
ATOM     33  C   UNL     1       2.895   5.929   2.835  0.00  0.00    +0.000 A 
ATOM     34  C   UNL     1       3.721   4.971   2.276  0.00  0.00    +0.002 A 
ATOM     35  C   UNL     1       3.247   4.149   1.273  0.00  0.00    +0.028 A 
ENDBRANCH  29  30
BRANCH  29  36
ATOM     36  O   UNL     1       0.914   4.022  -1.369  0.00  0.00    -0.286 OA
ATOM     37  H   UNL     1       0.918   4.989  -1.379  0.00  0.00    +0.244 HD
ENDBRANCH  29  36
ENDBRANCH   2  29
TORSDOF 11
