REMARK  Name = ZINC65198966
REMARK  7 active torsions:
REMARK  status: ('A' for Active; 'I' for Inactive)
REMARK    1  A    between atoms: C_1  and  C_2
REMARK    2  A    between atoms: C_5  and  N_8
REMARK    3  A    between atoms: N_8  and  C_9
REMARK    4  A    between atoms: N_8  and  S_17
REMARK    5  A    between atoms: C_9  and  C_10
REMARK    6  A    between atoms: S_17  and  C_20
REMARK    7  A    between atoms: C_26  and  C_29
REMARK                            x       y       z     vdW  Elec       q    Type
REMARK                         _______ _______ _______ _____ _____    ______ ____
ROOT
ATOM      1  N   UNL     1      -0.009  -4.197  -0.046  0.00  0.00    -0.199 N 
ENDROOT
BRANCH   1   6
ATOM      2  C   UNL     1       1.189   1.341   0.196  0.00  0.00    +0.044 C 
ATOM      3  C   UNL     1       0.871  -0.131   0.132  0.00  0.00    -0.050 A 
ATOM      4  C   UNL     1       0.804  -0.769  -1.093  0.00  0.00    +0.005 A 
ATOM      5  C   UNL     1       0.512  -2.117  -1.156  0.00  0.00    +0.025 A 
ATOM      6  C   UNL     1       0.287  -2.833   0.014  0.00  0.00    +0.052 A 
ATOM      7  C   UNL     1       0.355  -2.188   1.242  0.00  0.00    +0.025 A 
ATOM      8  C   UNL     1       0.652  -0.841   1.298  0.00  0.00    +0.005 A 
ENDBRANCH   1   6
BRANCH   1   9
ATOM      9  S   UNL     1      -0.881  -4.909   1.168  0.00  0.00    +0.076 S 
ATOM     10  O   UNL     1      -1.728  -3.901   1.704  0.00  0.00    -0.150 OA
ATOM     11  O   UNL     1      -1.387  -6.128   0.643  0.00  0.00    -0.150 OA
BRANCH   9  12
ATOM     12  C   UNL     1       0.256  -5.342   2.442  0.00  0.00    +0.125 A 
ATOM     13  C   UNL     1       1.181  -6.379   2.230  0.00  0.00    +0.034 A 
ATOM     14  C   UNL     1       2.058  -6.712   3.214  0.00  0.00    +0.050 A 
ATOM     15  C   UNL     1       2.024  -6.009   4.434  0.00  0.00    +0.161 A 
ATOM     16  N   UNL     1       2.724  -6.092   5.553  0.00  0.00    -0.129 NA
ATOM     17  N   UNL     1       2.301  -5.212   6.391  0.00  0.00    -0.134 NA
ATOM     18  C   UNL     1       1.320  -4.522   5.867  0.00  0.00    +0.135 A 
ATOM     19  N   UNL     1       1.109  -5.000   4.611  0.00  0.00    -0.285 N 
ATOM     20  C   UNL     1       0.238  -4.673   3.614  0.00  0.00    +0.123 A 
ATOM     21  C   UNL     1       0.563  -3.403   6.535  0.00  0.00    +0.088 C 
ENDBRANCH   9  12
ENDBRANCH   1   9
BRANCH   1  22
ATOM     22  C   UNL     1       0.454  -4.997  -1.183  0.00  0.00    +0.169 C 
BRANCH  22  23
ATOM     23  C   UNL     1       1.906  -5.349  -0.991  0.00  0.00    +0.007 A 
ATOM     24  C   UNL     1       2.615  -4.810   0.066  0.00  0.00    +0.008 A 
ATOM     25  C   UNL     1       3.947  -5.133   0.242  0.00  0.00    +0.000 A 
ATOM     26  C   UNL     1       4.573  -5.995  -0.639  0.00  0.00    +0.003 A 
ATOM     27  C   UNL     1       3.867  -6.536  -1.696  0.00  0.00    +0.038 A 
ATOM     28  C   UNL     1       2.530  -6.218  -1.870  0.00  0.00    +0.128 A 
ATOM     29  F   UNL     1       1.837  -6.750  -2.901  0.00  0.00    -0.205 F 
ENDBRANCH  22  23
ENDBRANCH   1  22
TORSDOF 5
