REMARK  Name = ZINC54616615
REMARK  14 active torsions:
REMARK  status: ('A' for Active; 'I' for Inactive)
REMARK    1  A    between atoms: C_1  and  C_2
REMARK    2  A    between atoms: C_2  and  C_3
REMARK    3  A    between atoms: C_3  and  C_4
REMARK    4  A    between atoms: C_4  and  S_5
REMARK    5  A    between atoms: S_5  and  C_6
REMARK    6  A    between atoms: C_11  and  C_29
REMARK    7  A    between atoms: C_13  and  C_17
REMARK    8  A    between atoms: C_14  and  C_16
REMARK    9  A    between atoms: N_19  and  C_20
REMARK   10  A    between atoms: C_25  and  O_26
REMARK   11  A    between atoms: O_26  and  C_27
REMARK   12  A    between atoms: C_27  and  C_28
REMARK   13  A    between atoms: C_34  and  O_35
REMARK   14  A    between atoms: O_35  and  C_36
REMARK                            x       y       z     vdW  Elec       q    Type
REMARK                         _______ _______ _______ _____ _____    ______ ____
ROOT
ATOM      1  C   UNL     1      -3.453  -3.946   0.014  0.00  0.00    +0.210 A 
ATOM      2  N   UNL     1      -2.367  -4.727   0.118  0.00  0.00    -0.187 NA
ATOM      3  C   UNL     1      -2.731  -5.980   0.129  0.00  0.00    +0.219 A 
ATOM      4  N   UNL     1      -4.083  -6.027   0.036  0.00  0.00    -0.220 N 
ATOM      5  N   UNL     1      -4.525  -4.707  -0.035  0.00  0.00    -0.141 NA
ATOM      6  C   UNL     1      -4.849  -7.270   0.028  0.00  0.00    +0.181 C 
ATOM      7  C   UNL     1      -3.915  -8.435  -0.162  0.00  0.00    +0.060 C 
ATOM      8  C   UNL     1      -2.582  -8.328  -0.061  0.00  0.00    +0.018 C 
ATOM      9  N   UNL     1      -1.963  -7.133   0.215  0.00  0.00    -0.287 N 
ATOM     10  C   UNL     1      -1.735  -9.559  -0.256  0.00  0.00    +0.061 C 
ATOM     11  H   UNL     1      -1.025  -7.096   0.460  0.00  0.00    +0.155 HD
ENDROOT
BRANCH   6  12
ATOM     12  C   UNL     1      -5.578  -7.420   1.339  0.00  0.00    +0.023 A 
ATOM     13  C   UNL     1      -4.869  -7.447   2.525  0.00  0.00    +0.009 A 
ATOM     14  C   UNL     1      -5.536  -7.584   3.728  0.00  0.00    +0.001 A 
ATOM     15  C   UNL     1      -6.915  -7.694   3.748  0.00  0.00    +0.004 A 
ATOM     16  C   UNL     1      -7.628  -7.667   2.565  0.00  0.00    +0.046 A 
ATOM     17  C   UNL     1      -6.961  -7.524   1.357  0.00  0.00    +0.126 A 
BRANCH  17  18
ATOM     18  O   UNL     1      -7.661  -7.491   0.193  0.00  0.00    -0.495 OA
ATOM     19  C   UNL     1      -9.086  -7.533   0.291  0.00  0.00    +0.277 C 
ENDBRANCH  17  18
ENDBRANCH   6  12
BRANCH   7  20
ATOM     20  C   UNL     1      -4.468  -9.702  -0.461  0.00  0.00    +0.248 C 
ATOM     21  O   UNL     1      -4.836  -9.954  -1.594  0.00  0.00    -0.270 OA
ATOM     22  N   UNL     1      -4.589 -10.631   0.508  0.00  0.00    -0.279 N 
ATOM     23  H   UNL     1      -4.221 -10.462   1.390  0.00  0.00    +0.155 HD
BRANCH  22  24
ATOM     24  C   UNL     1      -5.245 -11.839   0.243  0.00  0.00    +0.076 A 
ATOM     25  C   UNL     1      -5.194 -12.394  -1.028  0.00  0.00    +0.027 A 
ATOM     26  C   UNL     1      -5.842 -13.587  -1.287  0.00  0.00    +0.002 A 
ATOM     27  C   UNL     1      -6.543 -14.229  -0.283  0.00  0.00    +0.004 A 
ATOM     28  C   UNL     1      -6.599 -13.682   0.986  0.00  0.00    +0.047 A 
ATOM     29  C   UNL     1      -5.947 -12.490   1.255  0.00  0.00    +0.142 A 
BRANCH  29  30
ATOM     30  O   UNL     1      -5.996 -11.953   2.504  0.00  0.00    -0.490 OA
BRANCH  30  31
ATOM     31  C   UNL     1      -6.691 -12.701   3.504  0.00  0.00    +0.226 C 
ATOM     32  C   UNL     1      -6.612 -11.960   4.841  0.00  0.00    +0.048 C 
ENDBRANCH  30  31
ENDBRANCH  29  30
ENDBRANCH  22  24
ENDBRANCH   7  20
BRANCH   1  33
ATOM     33  S   UNL     1      -3.445  -2.185  -0.041  0.00  0.00    -0.084 S 
BRANCH  33  34
ATOM     34  C   UNL     1      -1.687  -1.750   0.065  0.00  0.00    +0.077 C 
BRANCH  34  35
ATOM     35  C   UNL     1      -1.534  -0.229   0.027  0.00  0.00    +0.011 C 
BRANCH  35  37
ATOM     36  C   UNL     1       0.101   1.660   0.079  0.00  0.00    +0.004 C 
ATOM     37  C   UNL     1      -0.051   0.138   0.116  0.00  0.00    -0.003 C 
ENDBRANCH  35  37
ENDBRANCH  34  35
ENDBRANCH  33  34
ENDBRANCH   1  33
TORSDOF 10
