REMARK  Name = ZINC09125669
REMARK  8 active torsions:
REMARK  status: ('A' for Active; 'I' for Inactive)
REMARK    1  A    between atoms: C_1  and  C_2
REMARK    2  A    between atoms: C_2  and  C_3
REMARK    3  A    between atoms: C_2  and  C_5
REMARK    4  A    between atoms: C_2  and  N_8
REMARK    5  A    between atoms: C_9  and  C_11
REMARK    6  A    between atoms: C_11  and  N_50
REMARK    7  A    between atoms: N_14  and  S_17
REMARK    8  A    between atoms: S_17  and  C_20
REMARK                            x       y       z     vdW  Elec       q    Type
REMARK                         _______ _______ _______ _____ _____    ______ ____
ROOT
ATOM      1  C   UNL     1      -0.553   0.664   5.098  0.00  0.00    -0.061 C 
ATOM      2  C   UNL     1       0.370  -0.071   6.075  0.00  0.00    +0.091 C 
ATOM      3  N   UNL     1       0.208   0.526   7.410  0.00  0.00    -0.180 NA
ATOM      4  C   UNL     1       0.324   1.987   7.537  0.00  0.00    +0.091 C 
ATOM      5  C   UNL     1      -0.598   2.641   6.502  0.00  0.00    -0.061 C 
ATOM      6  N   UNL     1      -0.259   2.112   5.163  0.00  0.00    +0.387 N 
ATOM      7  H   UNL     1       0.744   2.255   4.993  0.00  0.00    -0.081 HD
ENDROOT
BRANCH   3   8
ATOM      8  S   UNL     1      -0.098  -0.421   8.733  0.00  0.00    +0.062 S 
ATOM      9  O   UNL     1      -0.885   0.362   9.620  0.00  0.00    -0.153 OA
ATOM     10  O   UNL     1      -0.532  -1.681   8.239  0.00  0.00    -0.153 OA
BRANCH   8  11
ATOM     11  C   UNL     1       1.443  -0.701   9.540  0.00  0.00    +0.124 A 
ATOM     12  C   UNL     1       1.664  -0.187  10.805  0.00  0.00    +0.031 A 
ATOM     13  C   UNL     1       2.873  -0.406  11.438  0.00  0.00    +0.017 A 
ATOM     14  C   UNL     1       3.862  -1.140  10.808  0.00  0.00    +0.019 A 
ATOM     15  C   UNL     1       3.641  -1.654   9.544  0.00  0.00    +0.037 A 
ATOM     16  C   UNL     1       2.429  -1.439   8.912  0.00  0.00    +0.068 A 
ATOM     17 CL   UNL     1       2.149  -2.091   7.327  0.00  0.00    -0.081 Cl
ATOM     18 BR   UNL     1       5.515  -1.439  11.676  0.00  0.00    -0.050 Br
ENDBRANCH   8  11
ENDBRANCH   3   8
BRANCH   6  19
ATOM     19  C   UNL     1      -1.029   2.830   4.127  0.00  0.00    +0.019 C 
BRANCH  19  21
ATOM     20  N   UNL     1      -1.043   2.970   1.657  0.00  0.00    -0.299 N 
ATOM     21  C   UNL     1      -0.509   2.429   2.771  0.00  0.00    +0.198 C 
ATOM     22  O   UNL     1       0.390   1.621   2.681  0.00  0.00    -0.278 OA
ATOM     23  H   UNL     1      -1.762   3.617   1.729  0.00  0.00    +0.150 HD
BRANCH  20  25
ATOM     24  C   UNL     1       0.950   2.925   0.240  0.00  0.00    +0.048 C 
ATOM     25  C   UNL     1      -0.537   2.580   0.339  0.00  0.00    +0.121 C 
BRANCH  25  26
ATOM     26  C   UNL     1      -1.309   3.333  -0.747  0.00  0.00    +0.026 C 
ATOM     27  C   UNL     1      -2.155   2.505  -1.716  0.00  0.00    +0.007 C 
ATOM     28  C   UNL     1      -0.851   3.150  -2.195  0.00  0.00    +0.007 C 
ENDBRANCH  25  26
BRANCH  25  29
ATOM     29  C   UNL     1      -0.718   1.131   0.153  0.00  0.00    +0.088 C 
ATOM     30  N   UNL     1      -0.858   0.013   0.009  0.00  0.00    -0.194 NA
ENDBRANCH  25  29
ENDBRANCH  20  25
ENDBRANCH  19  21
ENDBRANCH   6  19
TORSDOF 7
