REMARK  Name = ZINC04800772
REMARK  7 active torsions:
REMARK  status: ('A' for Active; 'I' for Inactive)
REMARK    1  A    between atoms: C_4  and  N_22
REMARK    2  A    between atoms: C_6  and  C_7
REMARK    3  A    between atoms: C_7  and  O_9
REMARK    4  A    between atoms: O_9  and  C_10
REMARK    5  A    between atoms: C_10  and  C_11
REMARK    6  A    between atoms: N_13  and  C_14
REMARK    7  A    between atoms: C_14  and  C_20
REMARK                            x       y       z     vdW  Elec       q    Type
REMARK                         _______ _______ _______ _____ _____    ______ ____
ROOT
ATOM      1  O   UNL     1       4.316   1.696   2.167  0.00  0.00    -0.452 OA
ENDROOT
BRANCH   1   2
ATOM      2  C   UNL     1       5.601   2.075   2.309  0.00  0.00    +0.340 C 
ATOM      3  O   UNL     1       6.121   2.787   1.474  0.00  0.00    -0.245 OA
BRANCH   2   9
ATOM      4  C   UNL     1       5.782   0.809   4.446  0.00  0.00    +0.016 A 
ATOM      5  C   UNL     1       6.515   0.386   5.536  0.00  0.00    +0.018 A 
ATOM      6  C   UNL     1       7.835   0.778   5.679  0.00  0.00    +0.048 A 
ATOM      7  C   UNL     1       8.431   1.590   4.729  0.00  0.00    +0.141 A 
ATOM      8  C   UNL     1       7.711   2.014   3.632  0.00  0.00    +0.048 A 
ATOM      9  C   UNL     1       6.378   1.623   3.481  0.00  0.00    +0.061 A 
ATOM     10 BR   UNL     1       8.830   0.200   7.180  0.00  0.00    -0.048 Br
BRANCH   7  11
ATOM     11  N   UNL     1       9.843   2.003   4.890  0.00  0.00    +0.058 N 
ATOM     12  O   UNL     1      10.368   2.717   4.054  0.00  0.00    -0.126 OA
ATOM     13  O   UNL     1      10.480   1.629   5.858  0.00  0.00    -0.126 OA
ENDBRANCH   7  11
ENDBRANCH   2   9
ENDBRANCH   1   2
BRANCH   1  14
ATOM     14  C   UNL     1       3.614   2.177   0.990  0.00  0.00    +0.328 C 
BRANCH  14  15
ATOM     15  C   UNL     1       2.200   1.655   1.001  0.00  0.00    +0.252 C 
ATOM     16  O   UNL     1       1.822   0.948   1.910  0.00  0.00    -0.272 OA
ATOM     17  N   UNL     1       1.357   1.975  -0.000  0.00  0.00    -0.295 N 
ATOM     18  H   UNL     1       1.659   2.541  -0.728  0.00  0.00    +0.150 HD
BRANCH  17  19
ATOM     19  C   UNL     1      -0.018   1.468   0.010  0.00  0.00    +0.121 C 
ATOM     20  C   UNL     1      -0.734   1.961   1.269  0.00  0.00    +0.041 C 
ATOM     21  C   UNL     1      -2.169   1.432   1.280  0.00  0.00    +0.003 C 
ATOM     22  C   UNL     1      -2.909   1.938   0.040  0.00  0.00    +0.000 C 
ATOM     23  C   UNL     1      -2.193   1.445  -1.219  0.00  0.00    +0.003 C 
ATOM     24  C   UNL     1      -0.758   1.975  -1.229  0.00  0.00    +0.041 C 
BRANCH  19  25
ATOM     25  C   UNL     1       0.002  -0.004   0.002  0.00  0.00    +0.088 C 
ATOM     26  N   UNL     1       0.018  -1.140  -0.004  0.00  0.00    -0.194 NA
ENDBRANCH  19  25
ENDBRANCH  17  19
ENDBRANCH  14  15
ENDBRANCH   1  14
TORSDOF 7
