REMARK  Name = ZINC38979512
REMARK  8 active torsions:
REMARK  status: ('A' for Active; 'I' for Inactive)
REMARK    1  A    between atoms: C_1  and  C_2
REMARK    2  A    between atoms: C_5  and  C_33
REMARK    3  A    between atoms: C_6  and  S_8
REMARK    4  A    between atoms: S_8  and  N_11
REMARK    5  A    between atoms: C_13  and  N_23
REMARK    6  A    between atoms: N_23  and  C_24
REMARK    7  A    between atoms: C_27  and  C_30
REMARK    8  A    between atoms: C_30  and  C_32
REMARK                            x       y       z     vdW  Elec       q    Type
REMARK                         _______ _______ _______ _____ _____    ______ ____
ROOT
ATOM      1  N   UNL     1      -1.236  -3.947   2.337  0.00  0.00    -0.110 NA
ATOM      2  C   UNL     1      -1.503  -4.474   3.495  0.00  0.00    +0.192 C 
ATOM      3  C   UNL     1      -2.834  -5.147   3.744  0.00  0.00    +0.237 C 
ATOM      4  N   UNL     1      -3.075  -5.725   5.075  0.00  0.00    -0.359 N 
ATOM      5  C   UNL     1      -2.134  -5.630   5.973  0.00  0.00    +0.063 A 
ATOM      6  C   UNL     1      -2.325  -6.191   7.319  0.00  0.00    +0.027 A 
ATOM      7  C   UNL     1      -1.327  -6.074   8.223  0.00  0.00    +0.002 A 
ATOM      8  C   UNL     1      -0.117  -5.432   7.909  0.00  0.00    +0.002 A 
ATOM      9  C   UNL     1       0.130  -4.893   6.695  0.00  0.00    +0.030 A 
ATOM     10  C   UNL     1      -0.847  -4.958   5.669  0.00  0.00    +0.089 A 
ATOM     11  N   UNL     1      -0.599  -4.435   4.487  0.00  0.00    -0.226 NA
ATOM     12  H   UNL     1      -3.914  -6.166   5.280  0.00  0.00    +0.162 HD
ENDROOT
BRANCH   1  13
ATOM     13  S   UNL     1       0.229  -3.219   2.077  0.00  0.00    +0.101 S 
ATOM     14  O   UNL     1       1.210  -4.245   2.143  0.00  0.00    -0.146 OA
ATOM     15  O   UNL     1       0.268  -2.073   2.916  0.00  0.00    -0.146 OA
BRANCH  13  21
ATOM     16  C   UNL     1       0.348   0.673  -1.409  0.00  0.00    +0.044 C 
ATOM     17  C   UNL     1       0.286  -0.807  -1.136  0.00  0.00    -0.049 A 
ATOM     18  C   UNL     1       0.229  -1.703  -2.188  0.00  0.00    +0.004 A 
ATOM     19  C   UNL     1       0.172  -3.061  -1.938  0.00  0.00    +0.005 A 
ATOM     20  C   UNL     1       0.172  -3.524  -0.635  0.00  0.00    -0.024 A 
ATOM     21  C   UNL     1       0.229  -2.629   0.417  0.00  0.00    +0.116 A 
ATOM     22  C   UNL     1       0.291  -1.271   0.166  0.00  0.00    +0.032 A 
ATOM     23  C   UNL     1       0.108  -5.005  -0.362  0.00  0.00    +0.046 C 
ENDBRANCH  13  21
ENDBRANCH   1  13
BRANCH   3  24
ATOM     24  N   UNL     1      -2.983  -6.220   2.758  0.00  0.00    -0.318 N 
ATOM     25  H   UNL     1      -2.235  -6.805   2.561  0.00  0.00    +0.148 HD
BRANCH  24  26
ATOM     26  C   UNL     1      -4.196  -6.401   2.105  0.00  0.00    +0.029 A 
ATOM     27  C   UNL     1      -5.311  -5.663   2.497  0.00  0.00    +0.023 A 
ATOM     28  C   UNL     1      -6.506  -5.838   1.858  0.00  0.00    +0.013 A 
ATOM     29  C   UNL     1      -6.609  -6.759   0.808  0.00  0.00    +0.017 A 
ATOM     30  C   UNL     1      -5.484  -7.498   0.417  0.00  0.00    +0.013 A 
ATOM     31  C   UNL     1      -4.292  -7.314   1.058  0.00  0.00    +0.023 A 
BRANCH  29  32
ATOM     32  C   UNL     1      -7.890  -6.950   0.119  0.00  0.00    +0.160 C 
ATOM     33  O   UNL     1      -8.863  -6.310   0.459  0.00  0.00    -0.292 OA
ATOM     34  C   UNL     1      -7.998  -7.942  -1.010  0.00  0.00    +0.091 C 
ENDBRANCH  29  32
ENDBRANCH  24  26
ENDBRANCH   3  24
TORSDOF 5
