REMARK  Name = ZINC62248740
REMARK  6 active torsions:
REMARK  status: ('A' for Active; 'I' for Inactive)
REMARK    1  A    between atoms: C_1  and  C_2
REMARK    2  A    between atoms: C_2  and  C_3
REMARK    3  A    between atoms: C_6  and  C_8
REMARK    4  A    between atoms: C_8  and  C_10
REMARK    5  A    between atoms: C_8  and  N_12
REMARK    6  A    between atoms: C_10  and  N_11
REMARK                            x       y       z     vdW  Elec       q    Type
REMARK                         _______ _______ _______ _____ _____    ______ ____
ROOT
ATOM      1  C   UNL     1       0.818  -1.550  -4.730  0.00  0.00    +0.106 C 
ENDROOT
BRANCH   1   2
ATOM      2  N   UNL     1      -0.425  -2.288  -4.995  0.00  0.00    -0.286 NA
ATOM      3  C   UNL     1      -1.602  -1.448  -4.732  0.00  0.00    +0.107 C 
ATOM      4  C   UNL     1      -2.846  -2.092  -5.357  0.00  0.00    +0.138 C 
ATOM      5  N   UNL     1      -2.890  -3.498  -4.945  0.00  0.00    -0.334 N 
ATOM      6  C   UNL     1      -3.936  -4.366  -4.997  0.00  0.00    +0.105 A 
ATOM      7  C   UNL     1      -3.489  -5.540  -4.504  0.00  0.00    +0.101 A 
ATOM      8  N   UNL     1      -2.199  -5.384  -4.162  0.00  0.00    -0.349 N 
ATOM      9  C   UNL     1      -1.831  -4.166  -4.424  0.00  0.00    +0.101 A 
ATOM     10  C   UNL     1      -0.476  -3.535  -4.213  0.00  0.00    +0.157 C 
ATOM     11  H   UNL     1      -1.631  -6.072  -3.781  0.00  0.00    +0.166 HD
ENDBRANCH   1   2
BRANCH   1  15
ATOM     12  C   UNL     1       0.221  -0.418  -1.310  0.00  0.00    +0.105 A 
ATOM     13  C   UNL     1       1.533  -0.697  -1.217  0.00  0.00    +0.045 A 
ATOM     14  C   UNL     1       1.945  -1.162  -2.487  0.00  0.00    +0.046 A 
ATOM     15  C   UNL     1       0.859  -1.139  -3.281  0.00  0.00    +0.120 A 
ATOM     16  O   UNL     1      -0.184  -0.694  -2.561  0.00  0.00    -0.463 OA
BRANCH  12  18
ATOM     17  C   UNL     1      -0.635   1.638  -0.219  0.00  0.00    +0.012 C 
ATOM     18  C   UNL     1      -0.650   0.108  -0.199  0.00  0.00    +0.071 C 
ENDBRANCH  12  18
ENDBRANCH   1  15
BRANCH   1  19
ATOM     19  C   UNL     1       0.869  -0.304  -5.615  0.00  0.00    -0.059 C 
BRANCH  19  20
ATOM     20  N   UNL     1       0.698  -0.694  -7.021  0.00  0.00    +0.379 N 
ATOM     21  H   UNL     1       0.819   0.115  -7.612  0.00  0.00    -0.090 HD
ATOM     22  H   UNL     1       1.386  -1.392  -7.263  0.00  0.00    -0.090 HD
ATOM     23  H   UNL     1      -0.227  -1.073  -7.155  0.00  0.00    -0.090 HD
ENDBRANCH  19  20
ENDBRANCH   1  19
TORSDOF 5
