REMARK  Name = ZINC05581611
REMARK  10 active torsions:
REMARK  status: ('A' for Active; 'I' for Inactive)
REMARK    1  A    between atoms: C_1  and  C_2
REMARK    2  A    between atoms: C_4  and  C_28
REMARK    3  A    between atoms: C_5  and  N_9
REMARK    4  A    between atoms: C_6  and  C_8
REMARK    5  A    between atoms: C_10  and  C_12
REMARK    6  A    between atoms: C_12  and  C_14
REMARK    7  A    between atoms: C_12  and  S_15
REMARK    8  A    between atoms: S_15  and  C_16
REMARK    9  A    between atoms: C_19  and  C_22
REMARK   10  A    between atoms: N_20  and  N_21
REMARK                            x       y       z     vdW  Elec       q    Type
REMARK                         _______ _______ _______ _____ _____    ______ ____
ROOT
ATOM      1  C   UNL     1       5.925  -1.065   0.561  0.00  0.00    +0.137 C 
ATOM      2  C   UNL     1       6.390  -1.723  -0.740  0.00  0.00    +0.029 C 
ENDROOT
BRANCH   1   4
ATOM      3  N   UNL     1       3.472  -0.860   0.322  0.00  0.00    -0.284 N 
ATOM      4  C   UNL     1       4.678  -0.260   0.299  0.00  0.00    +0.230 C 
ATOM      5  O   UNL     1       4.761   0.927   0.067  0.00  0.00    -0.274 OA
ATOM      6  H   UNL     1       3.410  -1.821   0.443  0.00  0.00    +0.155 HD
BRANCH   3  11
ATOM      7  C   UNL     1      -1.243   2.236  -0.284  0.00  0.00    +0.044 C 
ATOM      8  C   UNL     1       0.007   1.410  -0.125  0.00  0.00    -0.050 A 
ATOM      9  C   UNL     1       0.186   0.641   1.010  0.00  0.00    +0.008 A 
ATOM     10  C   UNL     1       1.334  -0.113   1.162  0.00  0.00    -0.029 A 
ATOM     11  C   UNL     1       2.308  -0.098   0.172  0.00  0.00    +0.039 A 
ATOM     12  C   UNL     1       2.125   0.676  -0.967  0.00  0.00    -0.029 A 
ATOM     13  C   UNL     1       0.976   1.427  -1.112  0.00  0.00    +0.008 A 
ATOM     14  C   UNL     1       3.180   0.695  -2.043  0.00  0.00    +0.045 C 
ATOM     15  C   UNL     1       1.528  -0.951   2.399  0.00  0.00    +0.045 C 
ENDBRANCH   3  11
ENDBRANCH   1   4
BRANCH   1  16
ATOM     16  S   UNL     1       7.228   0.026   1.184  0.00  0.00    -0.072 S 
BRANCH  16  17
ATOM     17  C   UNL     1       8.479  -1.163   1.540  0.00  0.00    +0.209 A 
ATOM     18  N   UNL     1       8.392  -2.462   1.371  0.00  0.00    -0.121 NA
ATOM     19  N   UNL     1       9.491  -3.024   1.730  0.00  0.00    -0.132 NA
ATOM     20  C   UNL     1      10.334  -2.126   2.154  0.00  0.00    +0.154 A 
ATOM     21  N   UNL     1       9.720  -0.908   2.048  0.00  0.00    -0.228 N 
BRANCH  20  22
ATOM     22  C   UNL     1      11.728  -2.381   2.667  0.00  0.00    +0.059 C 
ATOM     23  C   UNL     1      12.560  -3.049   1.570  0.00  0.00    +0.011 C 
ATOM     24  C   UNL     1      13.975  -3.309   2.091  0.00  0.00    +0.001 C 
ATOM     25  C   UNL     1      13.909  -4.228   3.312  0.00  0.00    +0.000 C 
ATOM     26  C   UNL     1      13.077  -3.560   4.409  0.00  0.00    +0.001 C 
ATOM     27  C   UNL     1      11.662  -3.300   3.888  0.00  0.00    +0.011 C 
ENDBRANCH  20  22
BRANCH  21  28
ATOM     28  N   UNL     1      10.241   0.310   2.382  0.00  0.00    -0.295 N 
ATOM     29  H   UNL     1      10.039   0.538   3.344  0.00  0.00    +0.163 HD
ATOM     30  H   UNL     1      11.233   0.340   2.203  0.00  0.00    +0.163 HD
ENDBRANCH  21  28
ENDBRANCH  16  17
ENDBRANCH   1  16
TORSDOF 6
