REMARK  Name = ZINC13297903
REMARK  9 active torsions:
REMARK  status: ('A' for Active; 'I' for Inactive)
REMARK    1  A    between atoms: C_1  and  C_2
REMARK    2  A    between atoms: C_7  and  N_8
REMARK    3  A    between atoms: C_9  and  C_11
REMARK    4  A    between atoms: C_11  and  S_12
REMARK    5  A    between atoms: S_12  and  C_13
REMARK    6  A    between atoms: C_14  and  C_34
REMARK    7  A    between atoms: C_15  and  C_27
REMARK    8  A    between atoms: C_20  and  C_24
REMARK    9  A    between atoms: C_20  and  C_25
REMARK                            x       y       z     vdW  Elec       q    Type
REMARK                         _______ _______ _______ _____ _____    ______ ____
ROOT
ATOM      1  C   UNL     1      -0.384  -0.118   7.687  0.00  0.00    +0.112 C 
ATOM      2  C   UNL     1      -0.467  -0.725   8.929  0.00  0.00    +0.073 C 
ATOM      3  C   UNL     1      -0.573   0.184  10.140  0.00  0.00    +0.097 C 
ATOM      4  C   UNL     1      -0.575   1.673   9.851  0.00  0.00    +0.029 C 
ATOM      5  C   UNL     1      -0.662   2.553  10.863  0.00  0.00    +0.162 C 
ATOM      6  C   UNL     1      -0.668   4.037  10.611  0.00  0.00    +0.086 C 
ATOM      7  C   UNL     1       0.130   4.337   9.339  0.00  0.00    -0.023 C 
ATOM      8  C   UNL     1      -0.483   3.556   8.174  0.00  0.00    +0.062 C 
ATOM      9  C   UNL     1      -0.482   2.083   8.509  0.00  0.00    +0.050 C 
ATOM     10  N   UNL     1      -0.390   1.208   7.539  0.00  0.00    -0.244 NA
ATOM     11  C   UNL     1       0.071   5.836   9.039  0.00  0.00    +0.011 C 
ATOM     12  C   UNL     1       1.585   3.908   9.534  0.00  0.00    +0.011 C 
ATOM     13  O   UNL     1      -0.746   2.097  12.129  0.00  0.00    -0.292 OA
ENDROOT
BRANCH   3  14
ATOM     14  C   UNL     1      -1.848  -0.151  10.871  0.00  0.00    -0.035 A 
ATOM     15  C   UNL     1      -3.065  -0.032  10.227  0.00  0.00    +0.006 A 
ATOM     16  C   UNL     1      -4.234  -0.340  10.896  0.00  0.00    +0.020 A 
ATOM     17  C   UNL     1      -4.186  -0.768  12.211  0.00  0.00    +0.041 A 
ATOM     18  C   UNL     1      -2.968  -0.887  12.855  0.00  0.00    +0.020 A 
ATOM     19  C   UNL     1      -1.798  -0.584  12.183  0.00  0.00    +0.006 A 
ATOM     20 CL   UNL     1      -5.655  -1.154  13.053  0.00  0.00    -0.084 Cl
ENDBRANCH   3  14
BRANCH   2  21
ATOM     21  C   UNL     1      -0.454  -2.150   9.065  0.00  0.00    +0.098 C 
ATOM     22  N   UNL     1      -0.444  -3.281   9.173  0.00  0.00    -0.191 NA
ENDBRANCH   2  21
BRANCH   1  23
ATOM     23  S   UNL     1      -0.259  -1.133   6.252  0.00  0.00    -0.096 S 
BRANCH  23  24
ATOM     24  C   UNL     1      -0.168   0.052   4.882  0.00  0.00    +0.172 C 
BRANCH  24  26
ATOM     25  N   UNL     1       0.025  -0.015   2.417  0.00  0.00    -0.285 N 
ATOM     26  C   UNL     1      -0.056  -0.694   3.578  0.00  0.00    +0.227 C 
ATOM     27  O   UNL     1      -0.040  -1.907   3.573  0.00  0.00    -0.275 OA
ATOM     28  H   UNL     1       0.078   0.954   2.425  0.00  0.00    +0.155 HD
BRANCH  25  35
ATOM     29  C   UNL     1      -1.264   1.184   0.181  0.00  0.00    +0.045 C 
ATOM     30  C   UNL     1      -0.584  -0.158   0.084  0.00  0.00    -0.029 A 
ATOM     31  C   UNL     1      -0.568  -0.840  -1.117  0.00  0.00    +0.005 A 
ATOM     32  C   UNL     1       0.055  -2.071  -1.206  0.00  0.00    +0.000 A 
ATOM     33  C   UNL     1       0.666  -2.622  -0.095  0.00  0.00    +0.002 A 
ATOM     34  C   UNL     1       0.655  -1.945   1.108  0.00  0.00    +0.023 A 
ATOM     35  C   UNL     1       0.034  -0.706   1.201  0.00  0.00    +0.036 A 
ENDBRANCH  25  35
ENDBRANCH  24  26
ENDBRANCH  23  24
ENDBRANCH   1  23
TORSDOF 6
