REMARK  Name = ZINC64040405
REMARK  7 active torsions:
REMARK  status: ('A' for Active; 'I' for Inactive)
REMARK    1  A    between atoms: C_1  and  C_2
REMARK    2  A    between atoms: C_4  and  C_33
REMARK    3  A    between atoms: N_5  and  C_7
REMARK    4  A    between atoms: C_7  and  C_8
REMARK    5  A    between atoms: C_23  and  C_25
REMARK    6  A    between atoms: C_28  and  S_31
REMARK    7  A    between atoms: S_31  and  C_32
REMARK                            x       y       z     vdW  Elec       q    Type
REMARK                         _______ _______ _______ _____ _____    ______ ____
ROOT
ATOM      1  C   UNL     1       1.528  -3.659   1.693  0.00  0.00    +0.238 C 
ATOM      2  O   UNL     1       2.461  -3.026   1.243  0.00  0.00    -0.274 OA
ATOM      3  N   UNL     1       1.757  -4.756   2.441  0.00  0.00    -0.290 N 
ATOM      4  C   UNL     1       0.625  -5.518   2.976  0.00  0.00    +0.113 C 
ATOM      5  C   UNL     1       0.711  -6.976   2.486  0.00  0.00    +0.052 C 
ATOM      6  C   UNL     1       2.142  -7.412   2.675  0.00  0.00    -0.035 C 
ATOM      7  C   UNL     1       2.665  -8.472   3.279  0.00  0.00    -0.001 A 
ATOM      8  C   UNL     1       2.042  -9.658   3.888  0.00  0.00    +0.010 A 
ATOM      9  C   UNL     1       2.891 -10.560   4.448  0.00  0.00    +0.001 A 
ATOM     10  C   UNL     1       4.280 -10.401   4.464  0.00  0.00    +0.002 A 
ATOM     11  C   UNL     1       4.938  -9.346   3.921  0.00  0.00    +0.026 A 
ATOM     12  C   UNL     1       4.153  -8.335   3.295  0.00  0.00    +0.043 A 
ATOM     13  N   UNL     1       4.516  -7.246   2.684  0.00  0.00    -0.375 N 
ATOM     14  C   UNL     1       3.318  -6.592   2.155  0.00  0.00    +0.131 C 
ATOM     15  C   UNL     1       3.141  -5.179   2.708  0.00  0.00    +0.133 C 
ATOM     16  H   UNL     1       5.426  -6.921   2.595  0.00  0.00    +0.160 HD
ENDROOT
BRANCH  15  17
ATOM     17  C   UNL     1       3.397  -5.180   4.193  0.00  0.00    -0.025 A 
ATOM     18  C   UNL     1       2.601  -5.941   5.030  0.00  0.00    +0.006 A 
ATOM     19  C   UNL     1       2.833  -5.943   6.391  0.00  0.00    +0.015 A 
ATOM     20  C   UNL     1       3.867  -5.181   6.920  0.00  0.00    +0.008 A 
ATOM     21  C   UNL     1       4.666  -4.419   6.076  0.00  0.00    +0.015 A 
ATOM     22  C   UNL     1       4.432  -4.425   4.715  0.00  0.00    +0.006 A 
BRANCH  20  23
ATOM     23  S   UNL     1       4.166  -5.181   8.657  0.00  0.00    -0.129 S 
ATOM     24  C   UNL     1       5.582  -4.066   8.858  0.00  0.00    +0.090 C 
ENDBRANCH  20  23
ENDBRANCH  15  17
BRANCH   1  25
ATOM     25  C   UNL     1       0.115  -3.218   1.415  0.00  0.00    +0.241 C 
BRANCH  25  30
ATOM     26  C   UNL     1       0.199   1.586  -0.027  0.00  0.00    +0.090 C 
ATOM     27  C   UNL     1       0.170   0.079  -0.027  0.00  0.00    +0.148 A 
ATOM     28  N   UNL     1       0.151  -0.695  -1.111  0.00  0.00    -0.217 NA
ATOM     29  C   UNL     1       0.129  -1.954  -0.757  0.00  0.00    +0.125 A 
ATOM     30  N   UNL     1       0.134  -2.010   0.586  0.00  0.00    -0.240 N 
ATOM     31  N   UNL     1       0.166  -0.680   1.037  0.00  0.00    -0.155 NA
ATOM     32  C   UNL     1       0.103  -3.136  -1.692  0.00  0.00    +0.088 C 
ENDBRANCH  25  30
ENDBRANCH   1  25
TORSDOF 4
