REMARK  Name = ZINC36991701
REMARK  9 active torsions:
REMARK  status: ('A' for Active; 'I' for Inactive)
REMARK    1  A    between atoms: C_1  and  C_2
REMARK    2  A    between atoms: C_2  and  C_3
REMARK    3  A    between atoms: C_3  and  C_5
REMARK    4  A    between atoms: C_3  and  N_12
REMARK    5  A    between atoms: N_12  and  C_13
REMARK    6  A    between atoms: C_13  and  C_15
REMARK    7  A    between atoms: C_13  and  C_16
REMARK    8  A    between atoms: C_19  and  O_23
REMARK    9  A    between atoms: C_21  and  O_22
REMARK                            x       y       z     vdW  Elec       q    Type
REMARK                         _______ _______ _______ _____ _____    ______ ____
ROOT
ATOM      1  N   UNL     1       2.097   0.119   1.264  0.00  0.00    +0.388 N 
ATOM      2  H   UNL     1       2.534  -0.280   2.081  0.00  0.00    -0.084 HD
ATOM      3  H   UNL     1       2.622  -0.140   0.442  0.00  0.00    -0.084 HD
ENDROOT
BRANCH   1   4
ATOM      4  C   UNL     1       2.073   1.583   1.388  0.00  0.00    -0.040 C 
ATOM      5  C   UNL     1       1.410   1.971   2.711  0.00  0.00    -0.009 C 
BRANCH   4   6
ATOM      6  C   UNL     1       3.483   2.113   1.358  0.00  0.00    -0.020 A 
ATOM      7  C   UNL     1       4.543   1.272   1.637  0.00  0.00    +0.009 A 
ATOM      8  C   UNL     1       5.837   1.755   1.611  0.00  0.00    +0.046 A 
ATOM      9  C   UNL     1       6.075   3.088   1.303  0.00  0.00    +0.120 A 
ATOM     10  C   UNL     1       5.013   3.933   1.022  0.00  0.00    +0.091 A 
ATOM     11  C   UNL     1       3.716   3.445   1.044  0.00  0.00    +0.122 A 
BRANCH  11  12
ATOM     12  O   UNL     1       2.674   4.270   0.764  0.00  0.00    -0.506 OA
ATOM     13  H   UNL     1       2.310   4.721   1.538  0.00  0.00    +0.292 HD
ENDBRANCH  11  12
BRANCH   9  14
ATOM     14  O   UNL     1       7.348   3.563   1.277  0.00  0.00    -0.507 OA
ATOM     15  H   UNL     1       7.777   3.492   0.414  0.00  0.00    +0.292 HD
ENDBRANCH   9  14
ENDBRANCH   4   6
ENDBRANCH   1   4
BRANCH   1  16
ATOM     16  C   UNL     1       0.723  -0.385   1.146  0.00  0.00    -0.040 C 
BRANCH  16  17
ATOM     17  C   UNL     1       0.737  -1.892   1.169  0.00  0.00    -0.061 A 
ATOM     18  C   UNL     1       1.730  -2.584   0.501  0.00  0.00    +0.003 A 
ATOM     19  C   UNL     1       1.744  -3.966   0.522  0.00  0.00    +0.015 A 
ATOM     20  C   UNL     1       0.764  -4.657   1.212  0.00  0.00    +0.018 A 
ATOM     21  C   UNL     1      -0.229  -3.964   1.881  0.00  0.00    +0.015 A 
ATOM     22  C   UNL     1      -0.239  -2.582   1.863  0.00  0.00    +0.003 A 
ATOM     23 BR   UNL     1       0.782  -6.547   1.241  0.00  0.00    -0.050 Br
ENDBRANCH  16  17
BRANCH  16  25
ATOM     24  C   UNL     1      -1.352  -0.339  -0.246  0.00  0.00    +0.002 C 
ATOM     25  C   UNL     1       0.113   0.099  -0.171  0.00  0.00    -0.015 C 
ENDBRANCH  16  25
ENDBRANCH   1  16
TORSDOF 7
