REMARK  Name = ZINC34831300
REMARK  12 active torsions:
REMARK  status: ('A' for Active; 'I' for Inactive)
REMARK    1  A    between atoms: C_1  and  C_2
REMARK    2  A    between atoms: C_2  and  N_3
REMARK    3  A    between atoms: N_6  and  C_9
REMARK    4  A    between atoms: C_10  and  C_22
REMARK    5  A    between atoms: C_11  and  C_21
REMARK    6  A    between atoms: N_13  and  C_14
REMARK    7  A    between atoms: C_22  and  N_23
REMARK    8  A    between atoms: N_23  and  C_24
REMARK    9  A    between atoms: C_24  and  C_25
REMARK   10  A    between atoms: C_24  and  C_26
REMARK   11  A    between atoms: C_27  and  C_29
REMARK   12  A    between atoms: C_29  and  C_30
REMARK                            x       y       z     vdW  Elec       q    Type
REMARK                         _______ _______ _______ _____ _____    ______ ____
ROOT
ATOM      1  C   UNL     1       3.521  -3.284  -2.178  0.00  0.00    +0.130 A 
ATOM      2  C   UNL     1       3.631  -4.476  -2.828  0.00  0.00    +0.032 A 
ATOM      3  C   UNL     1       4.775  -4.423  -3.630  0.00  0.00    +0.067 A 
ATOM      4  N   UNL     1       5.336  -3.251  -3.475  0.00  0.00    -0.170 NA
ATOM      5  N   UNL     1       4.567  -2.507  -2.571  0.00  0.00    -0.218 N 
ATOM      6  C   UNL     1       5.277  -5.528  -4.523  0.00  0.00    +0.068 C 
ENDROOT
BRANCH   1  10
ATOM      7  N   UNL     1       1.079  -1.426   0.587  0.00  0.00    +0.382 N 
ATOM      8  C   UNL     1       1.142  -0.971  -0.808  0.00  0.00    -0.060 C 
ATOM      9  C   UNL     1       1.334  -2.179  -1.730  0.00  0.00    +0.088 C 
ATOM     10  N   UNL     1       2.519  -2.925  -1.281  0.00  0.00    -0.318 N 
ATOM     11  C   UNL     1       2.616  -3.281   0.143  0.00  0.00    +0.088 C 
ATOM     12  C   UNL     1       2.364  -2.021   0.977  0.00  0.00    -0.060 C 
ATOM     13  H   UNL     1       0.348  -2.115   0.680  0.00  0.00    -0.082 HD
BRANCH   7  15
ATOM     14  C   UNL     1      -0.607   0.262   1.138  0.00  0.00    -0.017 C 
ATOM     15  C   UNL     1       0.786  -0.282   1.460  0.00  0.00    -0.082 C 
ENDBRANCH   7  15
ENDBRANCH   1  10
BRANCH   5  16
ATOM     16  C   UNL     1       4.830  -1.199  -2.144  0.00  0.00    +0.070 A 
ATOM     17  C   UNL     1       3.798  -0.273  -2.064  0.00  0.00    +0.028 A 
ATOM     18  C   UNL     1       4.058   1.016  -1.643  0.00  0.00    +0.005 A 
ATOM     19  C   UNL     1       5.345   1.387  -1.300  0.00  0.00    +0.038 A 
ATOM     20  C   UNL     1       6.378   0.467  -1.379  0.00  0.00    +0.125 A 
ATOM     21  C   UNL     1       6.121  -0.827  -1.795  0.00  0.00    +0.066 A 
ATOM     22  F   UNL     1       7.635   0.832  -1.044  0.00  0.00    -0.205 F 
ENDBRANCH   5  16
BRANCH   2  23
ATOM     23  C   UNL     1       2.688  -5.644  -2.705  0.00  0.00    +0.148 C 
BRANCH  23  24
ATOM     24  N   UNL     1       1.761  -5.646  -3.840  0.00  0.00    -0.294 N 
ATOM     25  C   UNL     1       0.535  -5.102  -3.709  0.00  0.00    +0.221 C 
ATOM     26  O   UNL     1       0.235  -4.520  -2.688  0.00  0.00    -0.275 OA
BRANCH  24  27
ATOM     27  C   UNL     1       2.167  -6.239  -5.116  0.00  0.00    +0.070 C 
ATOM     28  C   UNL     1       1.113  -7.252  -5.567  0.00  0.00    +0.028 C 
ATOM     29  C   UNL     1       2.300  -5.138  -6.170  0.00  0.00    +0.028 C 
ENDBRANCH  24  27
BRANCH  25  30
ATOM     30  C   UNL     1      -0.464  -5.217  -4.832  0.00  0.00    +0.138 C 
BRANCH  30  31
ATOM     31  C   UNL     1      -1.677  -4.381  -4.513  0.00  0.00    -0.001 A 
ATOM     32  C   UNL     1      -1.922  -3.083  -4.816  0.00  0.00    +0.011 A 
ATOM     33  C   UNL     1      -3.119  -2.517  -4.418  0.00  0.00    +0.008 A 
ATOM     34  C   UNL     1      -4.011  -3.276  -3.737  0.00  0.00    +0.045 A 
ATOM     35  S   UNL     1      -3.166  -4.846  -3.644  0.00  0.00    -0.101 S 
ENDBRANCH  30  31
ENDBRANCH  25  30
ENDBRANCH  23  24
ENDBRANCH   2  23
TORSDOF 8
