REMARK  Name = ZINC38089285
REMARK  8 active torsions:
REMARK  status: ('A' for Active; 'I' for Inactive)
REMARK    1  A    between atoms: C_1  and  C_2
REMARK    2  A    between atoms: C_2  and  C_4
REMARK    3  A    between atoms: C_2  and  N_20
REMARK    4  A    between atoms: C_4  and  N_5
REMARK    5  A    between atoms: C_6  and  C_8
REMARK    6  A    between atoms: N_13  and  C_14
REMARK    7  A    between atoms: N_20  and  C_21
REMARK    8  A    between atoms: N_20  and  C_22
REMARK                            x       y       z     vdW  Elec       q    Type
REMARK                         _______ _______ _______ _____ _____    ______ ____
ROOT
ATOM      1  C   UNL     1      -1.338  -4.344  -0.574  0.00  0.00    +0.143 C 
ATOM      2  C   UNL     1      -0.719  -4.544  -1.970  0.00  0.00    +0.029 C 
ATOM      3  C   UNL     1      -1.732  -5.425  -2.738  0.00  0.00    +0.017 C 
ATOM      4  C   UNL     1      -2.526  -6.113  -1.600  0.00  0.00    +0.085 C 
ATOM      5  N   UNL     1      -2.639  -5.048  -0.567  0.00  0.00    -0.289 NA
ENDROOT
BRANCH   5   6
ATOM      6  C   UNL     1      -2.921  -5.620   0.756  0.00  0.00    +0.054 C 
ATOM      7  C   UNL     1      -4.286  -6.313   0.735  0.00  0.00    -0.000 C 
ATOM      8  C   UNL     1      -4.609  -6.836   2.136  0.00  0.00    -0.081 C 
ATOM      9  N   UNL     1      -4.641  -5.717   3.085  0.00  0.00    +0.379 N 
ATOM     10  C   UNL     1      -3.315  -5.093   3.165  0.00  0.00    -0.081 C 
ATOM     11  C   UNL     1      -2.943  -4.502   1.803  0.00  0.00    -0.000 C 
ATOM     12  H   UNL     1      -5.315  -5.034   2.775  0.00  0.00    -0.086 HD
ATOM     13  H   UNL     1      -4.906  -6.059   3.997  0.00  0.00    -0.086 HD
ENDBRANCH   5   6
BRANCH   1  15
ATOM     14  N   UNL     1      -0.492  -2.038  -0.282  0.00  0.00    -0.316 N 
ATOM     15  C   UNL     1      -1.548  -2.875  -0.311  0.00  0.00    +0.230 C 
ATOM     16  O   UNL     1      -2.667  -2.446  -0.127  0.00  0.00    -0.274 OA
ATOM     17  H   UNL     1       0.403  -2.382  -0.430  0.00  0.00    +0.149 HD
BRANCH  14  18
ATOM     18  C   UNL     1      -0.696  -0.610  -0.026  0.00  0.00    +0.089 C 
BRANCH  18  20
ATOM     19  C   UNL     1       0.440   1.605   0.189  0.00  0.00    -0.012 C 
ATOM     20  C   UNL     1       0.641   0.124  -0.142  0.00  0.00    -0.055 C 
BRANCH  20  21
ATOM     21  N   UNL     1       1.605  -0.461   0.799  0.00  0.00    +0.379 N 
ATOM     22  C   UNL     1       2.923   0.155   0.598  0.00  0.00    -0.096 C 
ATOM     23  C   UNL     1       1.155  -0.216   2.176  0.00  0.00    -0.096 C 
ATOM     24  H   UNL     1       1.671  -1.455   0.639  0.00  0.00    -0.082 HD
ENDBRANCH  20  21
ENDBRANCH  18  20
ENDBRANCH  14  18
ENDBRANCH   1  15
TORSDOF 5
