REMARK  Name = ZINC66677855
REMARK  6 active torsions:
REMARK  status: ('A' for Active; 'I' for Inactive)
REMARK    1  A    between atoms: C_1  and  C_2
REMARK    2  A    between atoms: C_2  and  C_3
REMARK    3  A    between atoms: C_3  and  C_4
REMARK    4  A    between atoms: C_4  and  C_6
REMARK    5  A    between atoms: C_4  and  N_17
REMARK    6  A    between atoms: N_8  and  C_9
REMARK                            x       y       z     vdW  Elec       q    Type
REMARK                         _______ _______ _______ _____ _____    ______ ____
ROOT
ATOM      1  C   UNL     1       1.333  -2.521  -2.560  0.00  0.00    +0.238 C 
ATOM      2  O   UNL     1       2.492  -2.876  -2.600  0.00  0.00    -0.273 OA
ATOM      3  N   UNL     1       0.579  -2.552  -3.677  0.00  0.00    -0.283 N 
ATOM      4  H   UNL     1      -0.364  -2.331  -3.632  0.00  0.00    +0.155 HD
ENDROOT
BRANCH   3   5
ATOM      5  C   UNL     1       1.158  -2.904  -4.902  0.00  0.00    +0.053 A 
ATOM      6  C   UNL     1       2.170  -3.853  -4.946  0.00  0.00    +0.040 A 
ATOM      7  C   UNL     1       2.739  -4.199  -6.157  0.00  0.00    +0.020 A 
ATOM      8  C   UNL     1       2.301  -3.601  -7.325  0.00  0.00    +0.017 A 
ATOM      9  C   UNL     1       1.293  -2.656  -7.285  0.00  0.00    +0.023 A 
ATOM     10  C   UNL     1       0.716  -2.309  -6.077  0.00  0.00    +0.062 A 
ATOM     11 CL   UNL     1      -0.555  -1.128  -6.029  0.00  0.00    -0.082 Cl
ATOM     12 BR   UNL     1       4.119  -5.491  -6.217  0.00  0.00    -0.050 Br
ENDBRANCH   3   5
BRANCH   1  13
ATOM     13  C   UNL     1       0.735  -2.045  -1.261  0.00  0.00    +0.161 C 
BRANCH  13  14
ATOM     14  N   UNL     1       1.544  -2.534  -0.143  0.00  0.00    -0.288 N 
ATOM     15  C   UNL     1       2.844  -2.188  -0.049  0.00  0.00    +0.298 C 
ATOM     16  O   UNL     1       3.344  -1.470  -0.893  0.00  0.00    -0.253 OA
ATOM     17  N   UNL     1       3.588  -2.639   0.980  0.00  0.00    -0.313 N 
ATOM     18  H   UNL     1       1.145  -3.107   0.531  0.00  0.00    +0.151 HD
ATOM     19  H   UNL     1       3.189  -3.212   1.653  0.00  0.00    +0.146 HD
ATOM     20  H   UNL     1       4.524  -2.390   1.047  0.00  0.00    +0.146 HD
ENDBRANCH  13  14
BRANCH  13  21
ATOM     21  C   UNL     1       0.710  -0.515  -1.242  0.00  0.00    +0.031 C 
BRANCH  21  23
ATOM     22  C   UNL     1      -0.034   1.497   0.039  0.00  0.00    +0.004 C 
ATOM     23  C   UNL     1      -0.009  -0.033   0.020  0.00  0.00    -0.001 C 
ENDBRANCH  21  23
ENDBRANCH  13  21
ENDBRANCH   1  13
TORSDOF 5
