REMARK  Name = ZINC40814676
REMARK  9 active torsions:
REMARK  status: ('A' for Active; 'I' for Inactive)
REMARK    1  A    between atoms: C_1  and  C_2
REMARK    2  A    between atoms: C_6  and  C_7
REMARK    3  A    between atoms: N_9  and  C_10
REMARK    4  A    between atoms: C_10  and  C_11
REMARK    5  A    between atoms: C_11  and  C_12
REMARK    6  A    between atoms: C_12  and  N_13
REMARK    7  A    between atoms: N_22  and  N_23
REMARK    8  A    between atoms: N_23  and  C_24
REMARK    9  A    between atoms: C_27  and  N_30
REMARK                            x       y       z     vdW  Elec       q    Type
REMARK                         _______ _______ _______ _____ _____    ______ ____
ROOT
ATOM      1  C   UNL     1      -0.018   1.503   0.010  0.00  0.00    +0.048 C 
ATOM      2  C   UNL     1       0.002  -0.004   0.002  0.00  0.00    +0.009 A 
ATOM      3  C   UNL     1       0.009  -0.838  -1.123  0.00  0.00    +0.042 A 
ATOM      4  C   UNL     1       0.027  -2.137  -0.673  0.00  0.00    +0.115 A 
ATOM      5  O   UNL     1       0.035  -2.112   0.658  0.00  0.00    -0.454 OA
ATOM      6  C   UNL     1       0.024  -0.830   1.091  0.00  0.00    +0.193 A 
ATOM      7  C   UNL     1       0.034  -3.326  -1.600  0.00  0.00    +0.075 C 
ATOM      8  C   UNL     1      -0.491  -2.902  -2.974  0.00  0.00    +0.014 C 
ATOM      9  C   UNL     1       0.279  -1.684  -3.495  0.00  0.00    +0.058 C 
ATOM     10  C   UNL     1       0.000  -0.511  -2.566  0.00  0.00    +0.070 C 
ATOM     11  N   UNL     1      -0.228   0.687  -3.008  0.00  0.00    -0.186 NA
ENDROOT
BRANCH   6  12
ATOM     12  C   UNL     1       0.032  -0.400   2.494  0.00  0.00    +0.280 C 
ATOM     13  O   UNL     1       0.018   0.786   2.766  0.00  0.00    -0.267 OA
ATOM     14  N   UNL     1       0.054  -1.317   3.480  0.00  0.00    -0.309 N 
ATOM     15  H   UNL     1       0.065  -2.263   3.263  0.00  0.00    +0.149 HD
BRANCH  14  16
ATOM     16  C   UNL     1       0.061  -0.887   4.881  0.00  0.00    +0.106 C 
BRANCH  16  17
ATOM     17  C   UNL     1       0.087  -2.116   5.792  0.00  0.00    +0.040 C 
BRANCH  17  18
ATOM     18  C   UNL     1       0.095  -1.667   7.254  0.00  0.00    +0.124 C 
BRANCH  18  19
ATOM     19  N   UNL     1       0.120  -2.844   8.126  0.00  0.00    -0.338 N 
ATOM     20  C   UNL     1      -0.968  -3.515   8.616  0.00  0.00    +0.104 A 
ATOM     21  C   UNL     1      -0.495  -4.527   9.368  0.00  0.00    +0.101 A 
ATOM     22  N   UNL     1       0.845  -4.475   9.339  0.00  0.00    -0.352 N 
ATOM     23  C   UNL     1       1.220  -3.472   8.593  0.00  0.00    +0.173 A 
ATOM     24  H   UNL     1       1.441  -5.088   9.797  0.00  0.00    +0.166 HD
ENDBRANCH  18  19
ENDBRANCH  17  18
ENDBRANCH  16  17
ENDBRANCH  14  16
ENDBRANCH   6  12
BRANCH  11  25
ATOM     25  N   UNL     1      -0.224   0.939  -4.386  0.00  0.00    -0.238 N 
ATOM     26  H   UNL     1      -0.050   0.217  -5.010  0.00  0.00    +0.174 HD
BRANCH  25  27
ATOM     27  C   UNL     1      -0.469   2.227  -4.860  0.00  0.00    +0.048 A 
ATOM     28  C   UNL     1      -0.713   3.264  -3.967  0.00  0.00    +0.027 A 
ATOM     29  C   UNL     1      -0.956   4.538  -4.441  0.00  0.00    +0.034 A 
ATOM     30  C   UNL     1      -0.956   4.784  -5.802  0.00  0.00    +0.126 A 
ATOM     31  C   UNL     1      -0.714   3.755  -6.694  0.00  0.00    +0.034 A 
ATOM     32  C   UNL     1      -0.466   2.479  -6.228  0.00  0.00    +0.027 A 
BRANCH  30  33
ATOM     33  N   UNL     1      -1.218   6.154  -6.306  0.00  0.00    +0.056 N 
ATOM     34  O   UNL     1      -1.431   7.055  -5.528  0.00  0.00    -0.126 OA
ATOM     35  O   UNL     1      -1.219   6.371  -7.496  0.00  0.00    -0.126 OA
ENDBRANCH  30  33
ENDBRANCH  25  27
ENDBRANCH  11  25
TORSDOF 8
