REMARK  Name = ZINC10059704
REMARK  5 active torsions:
REMARK  status: ('A' for Active; 'I' for Inactive)
REMARK    1  A    between atoms: C_1  and  C_2
REMARK    2  A    between atoms: C_6  and  C_8
REMARK    3  A    between atoms: C_8  and  O_10
REMARK    4  A    between atoms: O_10  and  C_11
REMARK    5  A    between atoms: C_14  and  C_17
REMARK                            x       y       z     vdW  Elec       q    Type
REMARK                         _______ _______ _______ _____ _____    ______ ____
ROOT
ATOM      1  C   UNL     1       0.305  11.586   0.204  0.00  0.00    +0.117 C 
ATOM      2  C   UNL     1      -0.399  11.947   1.497  0.00  0.00    +0.039 C 
ATOM      3  C   UNL     1      -1.473  12.738   1.739  0.00  0.00    +0.048 C 
ATOM      4  C   UNL     1      -1.815  12.663   3.180  0.00  0.00    +0.007 A 
ATOM      5  C   UNL     1      -2.845  13.243   3.902  0.00  0.00    +0.010 A 
ATOM      6  C   UNL     1      -2.878  12.973   5.274  0.00  0.00    +0.001 A 
ATOM      7  C   UNL     1      -1.936  12.175   5.880  0.00  0.00    +0.001 A 
ATOM      8  C   UNL     1      -0.892  11.585   5.160  0.00  0.00    +0.012 A 
ATOM      9  C   UNL     1      -0.850  11.842   3.801  0.00  0.00    +0.031 A 
ATOM     10  C   UNL     1       0.067  11.402   2.737  0.00  0.00    +0.193 C 
ATOM     11  O   UNL     1       1.049  10.699   2.884  0.00  0.00    -0.287 OA
ATOM     12  N   UNL     1      -2.135  13.552   0.867  0.00  0.00    -0.313 N 
ATOM     13  C   UNL     1      -1.503  14.395  -0.041  0.00  0.00    +0.045 A 
ATOM     14  C   UNL     1      -1.584  15.775   0.105  0.00  0.00    +0.024 A 
ATOM     15  C   UNL     1      -0.971  16.592  -0.828  0.00  0.00    +0.002 A 
ATOM     16  C   UNL     1      -0.288  16.038  -1.895  0.00  0.00    +0.001 A 
ATOM     17  C   UNL     1      -0.201  14.665  -2.034  0.00  0.00    +0.016 A 
ATOM     18  C   UNL     1      -0.805  13.840  -1.089  0.00  0.00    +0.030 A 
ATOM     19  S   UNL     1      -0.656  12.094  -1.238  0.00  0.00    -0.110 S 
ATOM     20  H   UNL     1      -3.104  13.542   0.881  0.00  0.00    +0.152 HD
ENDROOT
BRANCH   1  24
ATOM     21  C   UNL     1       0.899   7.357   0.068  0.00  0.00    +0.132 A 
ATOM     22  C   UNL     1      -0.385   7.876   0.151  0.00  0.00    +0.047 A 
ATOM     23  C   UNL     1      -0.574   9.243   0.200  0.00  0.00    +0.008 A 
ATOM     24  C   UNL     1       0.515  10.095   0.156  0.00  0.00    -0.029 A 
ATOM     25  C   UNL     1       1.795   9.580   0.069  0.00  0.00    +0.008 A 
ATOM     26  C   UNL     1       1.989   8.213   0.025  0.00  0.00    +0.047 A 
BRANCH  21  27
ATOM     27  O   UNL     1       1.087   6.011   0.025  0.00  0.00    -0.422 OA
BRANCH  27  28
ATOM     28  C   UNL     1       1.506   5.415   1.158  0.00  0.00    +0.344 C 
ATOM     29  O   UNL     1       1.784   6.088   2.131  0.00  0.00    -0.245 OA
BRANCH  28  35
ATOM     30  C   UNL     1       2.635   1.278   3.707  0.00  0.00    +0.044 C 
ATOM     31  C   UNL     1       2.171   1.950   2.441  0.00  0.00    -0.050 A 
ATOM     32  C   UNL     1       1.859   1.187   1.329  0.00  0.00    +0.003 A 
ATOM     33  C   UNL     1       1.428   1.796   0.164  0.00  0.00    +0.001 A 
ATOM     34  C   UNL     1       1.311   3.169   0.101  0.00  0.00    +0.015 A 
ATOM     35  C   UNL     1       1.629   3.945   1.218  0.00  0.00    +0.060 A 
ATOM     36  C   UNL     1       2.063   3.324   2.391  0.00  0.00    +0.018 A 
ENDBRANCH  28  35
ENDBRANCH  27  28
ENDBRANCH  21  27
ENDBRANCH   1  24
TORSDOF 4
