REMARK  Name = ZINC14855044
REMARK  7 active torsions:
REMARK  status: ('A' for Active; 'I' for Inactive)
REMARK    1  A    between atoms: C_1  and  C_2
REMARK    2  A    between atoms: N_10  and  N_14
REMARK    3  A    between atoms: C_15  and  C_17
REMARK    4  A    between atoms: C_17  and  O_18
REMARK    5  A    between atoms: O_18  and  C_19
REMARK    6  A    between atoms: C_19  and  C_21
REMARK    7  A    between atoms: C_22  and  C_23
REMARK                            x       y       z     vdW  Elec       q    Type
REMARK                         _______ _______ _______ _____ _____    ______ ____
ROOT
ATOM      1  N   UNL     1       3.288   6.415   0.005  0.00  0.00    -0.221 N 
ATOM      2  C   UNL     1       2.230   5.580   0.011  0.00  0.00    +0.267 C 
ATOM      3  O   UNL     1       1.103   6.028   0.024  0.00  0.00    -0.271 OA
ATOM      4  H   UNL     1       4.189   6.057  -0.005  0.00  0.00    +0.174 HD
ENDROOT
BRANCH   1  14
ATOM      5  C   UNL     1       2.300  14.267   0.616  0.00  0.00    +0.007 C 
ATOM      6  C   UNL     1       2.644  12.857   1.101  0.00  0.00    -0.014 C 
ATOM      7  C   UNL     1       1.422  11.950   0.941  0.00  0.00    +0.006 C 
ATOM      8  C   UNL     1       1.763  10.543   1.438  0.00  0.00    +0.035 C 
ATOM      9  C   UNL     1       2.937   9.989   0.637  0.00  0.00    +0.114 C 
ATOM     10  C   UNL     1       4.155  10.896   0.767  0.00  0.00    +0.035 C 
ATOM     11  C   UNL     1       3.804  12.302   0.273  0.00  0.00    +0.006 C 
ATOM     12  C   UNL     1       3.272   8.588   1.095  0.00  0.00    +0.263 C 
ATOM     13  O   UNL     1       3.631   8.243   2.200  0.00  0.00    -0.271 OA
ATOM     14  N   UNL     1       3.085   7.802   0.015  0.00  0.00    -0.137 N 
ATOM     15  C   UNL     1       2.688   8.511  -1.049  0.00  0.00    +0.326 C 
ATOM     16  O   UNL     1       2.461   8.025  -2.139  0.00  0.00    -0.251 OA
ATOM     17  N   UNL     1       2.566   9.824  -0.774  0.00  0.00    -0.284 N 
ATOM     18  H   UNL     1       2.291  10.523  -1.388  0.00  0.00    +0.151 HD
ENDBRANCH   1  14
BRANCH   2  19
ATOM     19  C   UNL     1       2.448   4.089   0.001  0.00  0.00    +0.329 C 
BRANCH  19  20
ATOM     20  O   UNL     1       1.183   3.423   0.009  0.00  0.00    -0.452 OA
BRANCH  20  21
ATOM     21  C   UNL     1       1.202   2.074   0.002  0.00  0.00    +0.332 C 
ATOM     22  O   UNL     1       2.263   1.480  -0.012  0.00  0.00    -0.246 OA
BRANCH  21  23
ATOM     23  C   UNL     1      -0.016   1.348   0.009  0.00  0.00    +0.092 C 
ATOM     24  C   UNL     1       0.002  -0.004   0.002  0.00  0.00    +0.017 C 
BRANCH  24  25
ATOM     25  C   UNL     1      -1.258  -0.755   0.010  0.00  0.00    +0.001 A 
ATOM     26  C   UNL     1      -2.481  -0.089   0.031  0.00  0.00    +0.010 A 
ATOM     27  C   UNL     1      -3.672  -0.800   0.035  0.00  0.00    +0.001 A 
ATOM     28  C   UNL     1      -3.693  -2.163   0.027  0.00  0.00    +0.010 A 
ATOM     29  C   UNL     1      -2.498  -2.898   0.011  0.00  0.00    +0.001 A 
ATOM     30  C   UNL     1      -1.256  -2.218   0.002  0.00  0.00    +0.078 A 
ATOM     31  N   UNL     1      -0.117  -2.908  -0.012  0.00  0.00    -0.254 NA
ATOM     32  C   UNL     1      -0.115  -4.221  -0.019  0.00  0.00    +0.111 A 
ATOM     33  C   UNL     1      -1.299  -4.954  -0.012  0.00  0.00    +0.020 A 
ATOM     34  C   UNL     1      -2.502  -4.306   0.003  0.00  0.00    +0.011 A 
ENDBRANCH  24  25
ENDBRANCH  21  23
ENDBRANCH  20  21
ENDBRANCH  19  20
ENDBRANCH   2  19
TORSDOF 6
