REMARK  Name = ZINC67542180
REMARK  8 active torsions:
REMARK  status: ('A' for Active; 'I' for Inactive)
REMARK    1  A    between atoms: C_1  and  C_2
REMARK    2  A    between atoms: C_2  and  C_3
REMARK    3  A    between atoms: C_3  and  C_4
REMARK    4  A    between atoms: C_4  and  N_5
REMARK    5  A    between atoms: C_6  and  C_8
REMARK    6  A    between atoms: C_12  and  C_28
REMARK    7  A    between atoms: N_18  and  C_19
REMARK    8  A    between atoms: C_24  and  N_25
REMARK                            x       y       z     vdW  Elec       q    Type
REMARK                         _______ _______ _______ _____ _____    ______ ____
ROOT
ATOM      1  C   UNL     1      -4.412  -4.517  -0.009  0.00  0.00    +0.092 C 
ATOM      2  C   UNL     1      -4.350  -6.046  -0.018  0.00  0.00    +0.016 C 
ATOM      3  C   UNL     1      -5.771  -6.615  -0.055  0.00  0.00    +0.023 C 
ATOM      4  C   UNL     1      -6.528  -6.169   1.200  0.00  0.00    +0.074 C 
ATOM      5  N   UNL     1      -6.467  -4.704   1.293  0.00  0.00    -0.282 N 
ATOM      6  C   UNL     1      -5.154  -4.046   1.245  0.00  0.00    +0.122 C 
ATOM      7  C   UNL     1      -7.594  -3.977   1.419  0.00  0.00    +0.307 C 
ATOM      8  O   UNL     1      -8.665  -4.534   1.564  0.00  0.00    -0.252 OA
ATOM      9  N   UNL     1      -7.535  -2.631   1.383  0.00  0.00    -0.267 N 
ATOM     10  C   UNL     1      -7.987  -6.620   1.105  0.00  0.00    +0.028 C 
ATOM     11  H   UNL     1      -6.693  -2.187   1.199  0.00  0.00    +0.156 HD
ENDROOT
BRANCH   9  12
ATOM     12  C   UNL     1      -8.690  -1.873   1.613  0.00  0.00    +0.065 A 
ATOM     13  C   UNL     1      -9.923  -2.333   1.170  0.00  0.00    +0.025 A 
ATOM     14  C   UNL     1     -11.060  -1.584   1.399  0.00  0.00    +0.002 A 
ATOM     15  C   UNL     1     -10.972  -0.376   2.067  0.00  0.00    +0.002 A 
ATOM     16  C   UNL     1      -9.745   0.085   2.509  0.00  0.00    +0.034 A 
ATOM     17  C   UNL     1      -8.605  -0.663   2.289  0.00  0.00    +0.147 A 
BRANCH  17  18
ATOM     18  N   UNL     1      -7.293  -0.172   2.767  0.00  0.00    +0.058 N 
ATOM     19  O   UNL     1      -7.231   0.836   3.432  0.00  0.00    -0.126 OA
ATOM     20  O   UNL     1      -6.284  -0.779   2.494  0.00  0.00    -0.126 OA
ENDBRANCH  17  18
ENDBRANCH   9  12
BRANCH   1  22
ATOM     21  N   UNL     1      -2.820  -2.624   0.004  0.00  0.00    -0.315 N 
ATOM     22  C   UNL     1      -3.012  -3.958  -0.006  0.00  0.00    +0.218 C 
ATOM     23  O   UNL     1      -2.059  -4.708  -0.011  0.00  0.00    -0.275 OA
ATOM     24  H   UNL     1      -3.582  -2.024   0.008  0.00  0.00    +0.149 HD
BRANCH  21  25
ATOM     25  C   UNL     1      -1.460  -2.080   0.007  0.00  0.00    +0.104 C 
BRANCH  25  26
ATOM     26  C   UNL     1      -1.522  -0.551   0.018  0.00  0.00    +0.018 C 
BRANCH  26  28
ATOM     27  C   UNL     1      -0.163   1.546   0.032  0.00  0.00    +0.004 C 
ATOM     28  C   UNL     1      -0.101   0.017   0.021  0.00  0.00    -0.002 C 
ENDBRANCH  26  28
ENDBRANCH  25  26
ENDBRANCH  21  25
ENDBRANCH   1  22
TORSDOF 6
