REMARK  Name = ZINC11614636
REMARK  7 active torsions:
REMARK  status: ('A' for Active; 'I' for Inactive)
REMARK    1  A    between atoms: C_1  and  N_52
REMARK    2  A    between atoms: C_2  and  N_52
REMARK    3  A    between atoms: C_3  and  C_4
REMARK    4  A    between atoms: C_3  and  N_52
REMARK    5  A    between atoms: C_4  and  C_5
REMARK    6  A    between atoms: C_5  and  N_6
REMARK    7  A    between atoms: C_7  and  C_26
REMARK                            x       y       z     vdW  Elec       q    Type
REMARK                         _______ _______ _______ _____ _____    ______ ____
ROOT
ATOM      1  N   UNL     1      -0.018   1.461   0.010  0.00  0.00    -0.283 N 
ATOM      2  C   UNL     1       1.158   2.340   0.004  0.00  0.00    +0.151 C 
ATOM      3  C   UNL     1       0.623   3.748   0.016  0.00  0.00    +0.073 A 
ATOM      4  C   UNL     1       1.274   5.060   0.017  0.00  0.00    +0.199 A 
ATOM      5  O   UNL     1       2.488   5.170   0.006  0.00  0.00    -0.287 OA
ATOM      6  C   UNL     1       0.390   6.240   0.030  0.00  0.00    +0.065 A 
ATOM      7  C   UNL     1       0.920   7.542   0.029  0.00  0.00    +0.016 A 
ATOM      8  C   UNL     1       0.102   8.621   0.043  0.00  0.00    +0.009 A 
ATOM      9  C   UNL     1      -1.299   8.450   0.056  0.00  0.00    -0.014 A 
ATOM     10  C   UNL     1      -2.159   9.560   0.069  0.00  0.00    +0.008 A 
ATOM     11  C   UNL     1      -3.508   9.371   0.080  0.00  0.00    +0.001 A 
ATOM     12  C   UNL     1      -4.051   8.089   0.079  0.00  0.00    +0.001 A 
ATOM     13  C   UNL     1      -3.246   6.989   0.067  0.00  0.00    +0.012 A 
ATOM     14  C   UNL     1      -1.853   7.148   0.055  0.00  0.00    +0.025 A 
ATOM     15  C   UNL     1      -0.992   6.026   0.042  0.00  0.00    +0.147 A 
ATOM     16  O   UNL     1      -1.492   4.781   0.041  0.00  0.00    -0.449 OA
ATOM     17  C   UNL     1      -0.731   3.669   0.029  0.00  0.00    +0.199 A 
ATOM     18  C   UNL     1      -1.116   2.236   0.019  0.00  0.00    +0.283 C 
ATOM     19  O   UNL     1      -2.258   1.823   0.021  0.00  0.00    -0.267 OA
ENDROOT
BRANCH   2  20
ATOM     20  C   UNL     1       1.998   2.093   1.230  0.00  0.00    +0.015 A 
ATOM     21  C   UNL     1       3.347   2.039   1.344  0.00  0.00    +0.013 A 
ATOM     22  C   UNL     1       3.906   1.800   2.585  0.00  0.00    +0.008 A 
ATOM     23  C   UNL     1       3.088   1.616   3.650  0.00  0.00    +0.045 A 
ATOM     24  S   UNL     1       1.473   1.788   2.909  0.00  0.00    -0.099 S 
ENDBRANCH   2  20
BRANCH   1  25
ATOM     25  C   UNL     1       0.002  -0.004   0.002  0.00  0.00    +0.107 C 
BRANCH  25  26
ATOM     26  C   UNL     1       0.023  -0.522   1.442  0.00  0.00    +0.000 C 
BRANCH  26  27
ATOM     27  C   UNL     1       0.043  -2.052   1.433  0.00  0.00    -0.078 C 
BRANCH  27  30
ATOM     28  C   UNL     1      -0.155  -4.001   2.856  0.00  0.00    -0.097 C 
ATOM     29  C   UNL     1       1.318  -2.186   3.487  0.00  0.00    -0.097 C 
ATOM     30  N   UNL     1       0.042  -2.536   2.830  0.00  0.00    +0.376 N 
ATOM     31  H   UNL     1      -0.729  -2.087   3.337  0.00  0.00    -0.083 HD
ENDBRANCH  27  30
ENDBRANCH  26  27
ENDBRANCH  25  26
ENDBRANCH   1  25
TORSDOF 5
