REMARK  Name = ZINC09359097
REMARK  4 active torsions:
REMARK  status: ('A' for Active; 'I' for Inactive)
REMARK    1  A    between atoms: C_15  and  C_17
REMARK    2  A    between atoms: C_17  and  C_19
REMARK    3  A    between atoms: C_23  and  N_25
REMARK    4  A    between atoms: N_30  and  C_33
REMARK                            x       y       z     vdW  Elec       q    Type
REMARK                         _______ _______ _______ _____ _____    ______ ____
ROOT
ATOM      1  C   UNL     1      -2.557  -3.674  -2.349  0.00  0.00    +0.001 A 
ATOM      2  C   UNL     1      -1.854  -3.635  -1.157  0.00  0.00    +0.000 A 
ATOM      3  C   UNL     1      -1.023  -2.566  -0.871  0.00  0.00    +0.006 A 
ATOM      4  C   UNL     1      -0.876  -1.550  -1.771  0.00  0.00    -0.021 A 
ATOM      5  C   UNL     1      -1.596  -1.567  -2.985  0.00  0.00    -0.019 A 
ATOM      6  C   UNL     1      -2.434  -2.648  -3.263  0.00  0.00    +0.008 A 
ATOM      7  C   UNL     1      -1.453  -0.466  -3.958  0.00  0.00    +0.022 C 
ATOM      8  C   UNL     1      -0.940   0.714  -3.554  0.00  0.00    +0.054 C 
ATOM      9  C   UNL     1       0.001  -0.357  -1.491  0.00  0.00    +0.100 C 
ATOM     10  C   UNL     1       0.002  -0.004   0.002  0.00  0.00    +0.113 C 
ATOM     11  C   UNL     1      -0.019   1.555   0.011  0.00  0.00    +0.116 C 
ATOM     12  C   UNL     1      -0.666   1.933  -1.329  0.00  0.00    +0.141 C 
ATOM     13  C   UNL     1       1.457   1.889  -0.002  0.00  0.00    +0.232 C 
ATOM     14  O   UNL     1       1.944   2.945  -0.343  0.00  0.00    -0.274 OA
ATOM     15  N   UNL     1       2.135   0.812   0.430  0.00  0.00    -0.208 N 
ATOM     16  C   UNL     1       1.380  -0.287   0.581  0.00  0.00    +0.232 C 
ATOM     17  O   UNL     1       1.735  -1.327   1.093  0.00  0.00    -0.274 OA
ATOM     18  N   UNL     1      -0.203   0.861  -2.236  0.00  0.00    -0.384 NA
ATOM     19  H   UNL     1       0.741   1.150  -2.516  0.00  0.00    +0.127 HD
ENDROOT
BRANCH  15  20
ATOM     20  C   UNL     1       3.511   0.835   0.698  0.00  0.00    +0.062 A 
ATOM     21  C   UNL     1       4.420   0.527  -0.305  0.00  0.00    +0.025 A 
ATOM     22  C   UNL     1       5.775   0.556  -0.040  0.00  0.00    +0.002 A 
ATOM     23  C   UNL     1       6.227   0.879   1.227  0.00  0.00    +0.002 A 
ATOM     24  C   UNL     1       5.325   1.180   2.230  0.00  0.00    +0.022 A 
ATOM     25  C   UNL     1       3.967   1.159   1.969  0.00  0.00    +0.063 A 
ATOM     26 CL   UNL     1       2.834   1.537   3.229  0.00  0.00    -0.082 Cl
ENDBRANCH  15  20
BRANCH  12  27
ATOM     27  C   UNL     1       0.029   3.136  -1.911  0.00  0.00    +0.183 C 
ATOM     28  O   UNL     1       0.791   3.004  -2.845  0.00  0.00    -0.290 OA
BRANCH  27  29
ATOM     29  C   UNL     1      -0.217   4.473  -1.345  0.00  0.00    +0.021 A 
ATOM     30  C   UNL     1      -1.099   4.631  -0.272  0.00  0.00    +0.011 A 
ATOM     31  C   UNL     1      -1.321   5.885   0.255  0.00  0.00    +0.003 A 
ATOM     32  C   UNL     1      -0.680   6.989  -0.282  0.00  0.00    +0.033 A 
ATOM     33  C   UNL     1       0.191   6.841  -1.348  0.00  0.00    +0.127 A 
ATOM     34  C   UNL     1       0.427   5.592  -1.883  0.00  0.00    +0.044 A 
BRANCH  33  35
ATOM     35  N   UNL     1       0.871   8.028  -1.915  0.00  0.00    +0.056 N 
ATOM     36  O   UNL     1       1.637   7.900  -2.852  0.00  0.00    -0.126 OA
ATOM     37  O   UNL     1       0.663   9.131  -1.443  0.00  0.00    -0.126 OA
ENDBRANCH  33  35
ENDBRANCH  27  29
ENDBRANCH  12  27
TORSDOF 4
