REMARK  Name = ZINC39228615
REMARK  7 active torsions:
REMARK  status: ('A' for Active; 'I' for Inactive)
REMARK    1  A    between atoms: C_1  and  C_2
REMARK    2  A    between atoms: C_2  and  O_3
REMARK    3  A    between atoms: O_3  and  C_4
REMARK    4  A    between atoms: C_4  and  C_6
REMARK    5  A    between atoms: C_9  and  C_11
REMARK    6  A    between atoms: C_11  and  N_12
REMARK    7  A    between atoms: C_25  and  C_27
REMARK                            x       y       z     vdW  Elec       q    Type
REMARK                         _______ _______ _______ _____ _____    ______ ____
ROOT
ATOM      1  N   UNL     1       2.246  -1.939  -6.801  0.00  0.00    +0.393 N 
ATOM      2  C   UNL     1       1.652  -3.243  -7.125  0.00  0.00    -0.072 C 
ATOM      3  C   UNL     1       0.440  -3.041  -8.045  0.00  0.00    +0.019 C 
ATOM      4  C   UNL     1       0.866  -2.139  -9.177  0.00  0.00    -0.022 A 
ATOM      5  C   UNL     1       0.218  -1.884 -10.443  0.00  0.00    +0.003 A 
ATOM      6  C   UNL     1      -0.963  -2.359 -11.021  0.00  0.00    +0.010 A 
ATOM      7  C   UNL     1      -1.276  -1.888 -12.272  0.00  0.00    +0.001 A 
ATOM      8  C   UNL     1      -0.468  -0.985 -12.942  0.00  0.00    +0.002 A 
ATOM      9  C   UNL     1       0.707  -0.498 -12.395  0.00  0.00    +0.026 A 
ATOM     10  C   UNL     1       1.050  -0.958 -11.126  0.00  0.00    +0.047 A 
ATOM     11  N   UNL     1       2.115  -0.690 -10.313  0.00  0.00    -0.359 N 
ATOM     12  C   UNL     1       1.998  -1.399  -9.149  0.00  0.00    +0.011 A 
ATOM     13  H   UNL     1       2.844  -0.087 -10.529  0.00  0.00    +0.166 HD
ATOM     14  C   UNL     1       2.947  -1.396  -7.975  0.00  0.00    +0.015 C 
ATOM     15  H   UNL     1       1.515  -1.301  -6.524  0.00  0.00    -0.080 HD
ENDROOT
BRANCH  14  16
ATOM     16  C   UNL     1       4.145  -2.255  -8.291  0.00  0.00    -0.008 A 
ATOM     17  C   UNL     1       4.063  -3.217  -9.280  0.00  0.00    +0.026 A 
ATOM     18  C   UNL     1       5.160  -4.007  -9.573  0.00  0.00    +0.045 A 
ATOM     19  C   UNL     1       6.344  -3.836  -8.877  0.00  0.00    +0.069 A 
ATOM     20  C   UNL     1       6.432  -2.874  -7.885  0.00  0.00    +0.168 A 
ATOM     21  C   UNL     1       5.328  -2.076  -7.594  0.00  0.00    +0.168 A 
ATOM     22  O   UNL     1       5.668  -1.210  -6.594  0.00  0.00    -0.452 OA
ATOM     23  C   UNL     1       6.860  -1.757  -6.001  0.00  0.00    +0.466 C 
ATOM     24  O   UNL     1       7.461  -2.511  -7.066  0.00  0.00    -0.453 OA
ATOM     25 CL   UNL     1       5.052  -5.214 -10.816  0.00  0.00    -0.083 Cl
ENDBRANCH  14  16
BRANCH   1  26
ATOM     26  C   UNL     1       3.199  -2.100  -5.695  0.00  0.00    -0.002 C 
BRANCH  26  30
ATOM     27  C   UNL     1       1.350  -2.464  -2.567  0.00  0.00    +0.211 A 
ATOM     28  C   UNL     1       1.517  -3.783  -2.884  0.00  0.00    +0.057 A 
ATOM     29  C   UNL     1       2.228  -3.820  -4.093  0.00  0.00    +0.043 A 
ATOM     30  C   UNL     1       2.462  -2.539  -4.457  0.00  0.00    +0.090 A 
ATOM     31  O   UNL     1       1.927  -1.726  -3.538  0.00  0.00    -0.455 OA
BRANCH  27  32
ATOM     32  C   UNL     1       0.660  -1.944  -1.384  0.00  0.00    +0.375 C 
ATOM     33  O   UNL     1       0.177  -2.712  -0.575  0.00  0.00    -0.241 OA
BRANCH  32  34
ATOM     34  O   UNL     1       0.560  -0.612  -1.193  0.00  0.00    -0.459 OA
BRANCH  34  36
ATOM     35  C   UNL     1      -0.138   1.354   0.026  0.00  0.00    +0.048 C 
ATOM     36  C   UNL     1      -0.126  -0.175  -0.018  0.00  0.00    +0.229 C 
ENDBRANCH  34  36
ENDBRANCH  32  34
ENDBRANCH  27  32
ENDBRANCH  26  30
ENDBRANCH   1  26
TORSDOF 6
