REMARK  Name = ZINC44905557
REMARK  12 active torsions:
REMARK  status: ('A' for Active; 'I' for Inactive)
REMARK    1  A    between atoms: C_1  and  C_2
REMARK    2  A    between atoms: C_2  and  O_3
REMARK    3  A    between atoms: O_3  and  C_4
REMARK    4  A    between atoms: C_7  and  C_13
REMARK    5  A    between atoms: C_9  and  O_10
REMARK    6  A    between atoms: O_10  and  C_11
REMARK    7  A    between atoms: C_11  and  C_12
REMARK    8  A    between atoms: C_13  and  C_15
REMARK    9  A    between atoms: C_13  and  N_16
REMARK   10  A    between atoms: C_17  and  C_19
REMARK   11  A    between atoms: N_24  and  C_26
REMARK   12  A    between atoms: C_26  and  C_27
REMARK                            x       y       z     vdW  Elec       q    Type
REMARK                         _______ _______ _______ _____ _____    ______ ____
ROOT
ATOM      1  N   UNL     1      -1.006  -6.699  -0.906  0.00  0.00    -0.309 N 
ATOM      2  C   UNL     1      -1.249  -7.899  -1.471  0.00  0.00    +0.215 C 
ATOM      3  O   UNL     1      -2.288  -8.479  -1.237  0.00  0.00    -0.276 OA
ATOM      4  H   UNL     1      -0.175  -6.235  -1.093  0.00  0.00    +0.149 HD
ENDROOT
BRANCH   2   5
ATOM      5  C   UNL     1      -0.230  -8.518  -2.392  0.00  0.00    +0.058 C 
ATOM      6  C   UNL     1       0.010  -7.592  -3.587  0.00  0.00    +0.009 C 
ATOM      7  C   UNL     1       0.987  -8.265  -4.555  0.00  0.00    -0.018 C 
ATOM      8  C   UNL     1       0.422  -9.623  -4.978  0.00  0.00    -0.078 C 
ATOM      9  N   UNL     1       0.241 -10.472  -3.794  0.00  0.00    +0.383 N 
ATOM     10  C   UNL     1      -0.749  -9.868  -2.894  0.00  0.00    -0.066 C 
ATOM     11  H   UNL     1       1.121 -10.565  -3.310  0.00  0.00    -0.081 HD
BRANCH   9  12
ATOM     12  C   UNL     1      -0.227 -11.800  -4.213  0.00  0.00    -0.043 C 
BRANCH  12  13
ATOM     13  C   UNL     1       0.844 -12.476  -5.029  0.00  0.00    -0.063 A 
ATOM     14  C   UNL     1       0.880 -12.305  -6.400  0.00  0.00    +0.002 A 
ATOM     15  C   UNL     1       1.863 -12.925  -7.149  0.00  0.00    +0.001 A 
ATOM     16  C   UNL     1       2.810 -13.716  -6.527  0.00  0.00    +0.015 A 
ATOM     17  C   UNL     1       2.775 -13.887  -5.154  0.00  0.00    +0.018 A 
ATOM     18  C   UNL     1       1.794 -13.262  -4.405  0.00  0.00    +0.017 A 
ATOM     19 BR   UNL     1       4.071 -14.970  -4.303  0.00  0.00    -0.050 Br
ENDBRANCH  12  13
ENDBRANCH   9  12
ENDBRANCH   2   5
BRANCH   1  20
ATOM     20  C   UNL     1      -1.996  -6.097  -0.011  0.00  0.00    +0.100 C 
ATOM     21  C   UNL     1      -1.800  -6.639   1.406  0.00  0.00    +0.033 C 
BRANCH  20  25
ATOM     22  C   UNL     1      -1.498  -1.849   0.006  0.00  0.00    +0.162 A 
ATOM     23  C   UNL     1      -0.389  -2.680  -0.003  0.00  0.00    +0.050 A 
ATOM     24  C   UNL     1      -0.553  -4.052  -0.008  0.00  0.00    +0.009 A 
ATOM     25  C   UNL     1      -1.823  -4.600  -0.005  0.00  0.00    -0.024 A 
ATOM     26  C   UNL     1      -2.934  -3.777   0.004  0.00  0.00    +0.055 A 
ATOM     27  C   UNL     1      -2.776  -2.400   0.016  0.00  0.00    +0.162 A 
BRANCH  22  28
ATOM     28  O   UNL     1      -1.339  -0.499   0.012  0.00  0.00    -0.489 OA
BRANCH  28  30
ATOM     29  C   UNL     1      -0.019   1.526   0.010  0.00  0.00    +0.048 C 
ATOM     30  C   UNL     1       0.002  -0.004   0.002  0.00  0.00    +0.226 C 
ENDBRANCH  28  30
ENDBRANCH  22  28
BRANCH  27  31
ATOM     31  O   UNL     1      -3.868  -1.589   0.030  0.00  0.00    -0.489 OA
BRANCH  31  32
ATOM     32  C   UNL     1      -5.148  -2.225   0.039  0.00  0.00    +0.226 C 
ATOM     33  C   UNL     1      -6.246  -1.159   0.055  0.00  0.00    +0.048 C 
ENDBRANCH  31  32
ENDBRANCH  27  31
ENDBRANCH  20  25
ENDBRANCH   1  20
TORSDOF 9
