REMARK  Name = ZINC24950915
REMARK  8 active torsions:
REMARK  status: ('A' for Active; 'I' for Inactive)
REMARK    1  A    between atoms: C_1  and  C_2
REMARK    2  A    between atoms: C_2  and  C_3
REMARK    3  A    between atoms: C_3  and  C_4
REMARK    4  A    between atoms: C_4  and  N_5
REMARK    5  A    between atoms: C_9  and  S_11
REMARK    6  A    between atoms: S_11  and  C_12
REMARK    7  A    between atoms: C_12  and  C_13
REMARK    8  A    between atoms: C_26  and  C_28
REMARK                            x       y       z     vdW  Elec       q    Type
REMARK                         _______ _______ _______ _____ _____    ______ ____
ROOT
ATOM      1  C   UNL     1      -0.418   5.963   1.044  0.00  0.00    +0.231 C 
ATOM      2  O   UNL     1      -0.422   7.175   0.995  0.00  0.00    -0.274 OA
ATOM      3  N   UNL     1      -0.071   5.246  -0.043  0.00  0.00    -0.257 N 
ATOM      4  C   UNL     1      -0.062   3.845  -0.002  0.00  0.00    +0.058 A 
ATOM      5  C   UNL     1      -1.249   3.131   0.020  0.00  0.00    +0.025 A 
ATOM      6  C   UNL     1      -1.221   1.748   0.017  0.00  0.00    +0.002 A 
ATOM      7  C   UNL     1      -0.013   1.076   0.008  0.00  0.00    +0.002 A 
ATOM      8  C   UNL     1       1.177   1.781   0.000  0.00  0.00    +0.025 A 
ATOM      9  C   UNL     1       1.157   3.166  -0.000  0.00  0.00    +0.055 A 
ATOM     10  N   UNL     1       2.347   3.902   0.025  0.00  0.00    -0.284 N 
ATOM     11  C   UNL     1       2.540   4.924  -0.837  0.00  0.00    +0.219 C 
ATOM     12  O   UNL     1       3.541   5.604  -0.751  0.00  0.00    -0.275 OA
ATOM     13  C   UNL     1       1.522   5.225  -1.905  0.00  0.00    +0.128 C 
ATOM     14  C   UNL     1       0.304   5.916  -1.290  0.00  0.00    +0.194 C 
ATOM     15  H   UNL     1       3.134   3.650   0.751  0.00  0.00    +0.155 HD
ENDROOT
BRANCH  14  16
ATOM     16  C   UNL     1      -0.868   5.851  -2.272  0.00  0.00    +0.409 C 
ATOM     17  F   UNL     1      -1.176   4.513  -2.542  0.00  0.00    -0.169 F 
ATOM     18  F   UNL     1      -1.982   6.483  -1.711  0.00  0.00    -0.169 F 
ATOM     19  F   UNL     1      -0.515   6.497  -3.462  0.00  0.00    -0.169 F 
ENDBRANCH  14  16
BRANCH   1  20
ATOM     20  C   UNL     1      -0.801   5.259   2.320  0.00  0.00    +0.172 C 
BRANCH  20  21
ATOM     21  S   UNL     1      -1.212   6.489   3.589  0.00  0.00    -0.088 S 
BRANCH  21  26
ATOM     22  N   UNL     1      -2.735   4.089   8.642  0.00  0.00    -0.322 N 
ATOM     23  C   UNL     1      -2.343   4.434   7.354  0.00  0.00    +0.182 A 
ATOM     24  N   UNL     1      -2.018   3.653   6.342  0.00  0.00    -0.125 NA
ATOM     25  N   UNL     1      -1.655   4.209   5.137  0.00  0.00    -0.133 NA
ATOM     26  C   UNL     1      -1.633   5.521   5.000  0.00  0.00    +0.160 A 
ATOM     27  S   UNL     1      -2.137   6.053   6.629  0.00  0.00    -0.025 S 
ATOM     28  H   UNL     1      -2.972   4.876   9.374  0.00  0.00    +0.148 HD
BRANCH  22  29
ATOM     29  C   UNL     1      -2.831   2.679   9.026  0.00  0.00    +0.103 C 
BRANCH  29  30
ATOM     30  C   UNL     1      -3.280   2.576  10.485  0.00  0.00    +0.018 C 
BRANCH  30  32
ATOM     31  C   UNL     1      -3.829   1.001  12.345  0.00  0.00    +0.004 C 
ATOM     32  C   UNL     1      -3.381   1.103  10.886  0.00  0.00    -0.002 C 
ENDBRANCH  30  32
ENDBRANCH  29  30
ENDBRANCH  22  29
ENDBRANCH  21  26
ENDBRANCH  20  21
ENDBRANCH   1  20
TORSDOF 7
