REMARK  Name = ZINC37452442
REMARK  10 active torsions:
REMARK  status: ('A' for Active; 'I' for Inactive)
REMARK    1  A    between atoms: C_1  and  C_2
REMARK    2  A    between atoms: C_7  and  N_12
REMARK    3  A    between atoms: C_9  and  C_11
REMARK    4  A    between atoms: C_13  and  C_15
REMARK    5  A    between atoms: N_19  and  C_20
REMARK    6  A    between atoms: C_23  and  C_26
REMARK    7  A    between atoms: C_27  and  O_34
REMARK    8  A    between atoms: C_31  and  O_32
REMARK    9  A    between atoms: O_32  and  C_33
REMARK   10  A    between atoms: O_34  and  C_35
REMARK                            x       y       z     vdW  Elec       q    Type
REMARK                         _______ _______ _______ _____ _____    ______ ____
ROOT
ATOM      1  C   UNL     1       1.678  -4.114   4.290  0.00  0.00    +0.128 A 
ATOM      2  C   UNL     1       1.584  -5.357   4.850  0.00  0.00    +0.143 A 
ATOM      3  N   UNL     1       2.518  -5.450   5.797  0.00  0.00    -0.243 NA
ATOM      4  C   UNL     1       3.194  -4.332   5.863  0.00  0.00    +0.204 A 
ATOM      5  N   UNL     1       2.715  -3.471   4.944  0.00  0.00    -0.295 N 
ENDROOT
BRANCH   5   6
ATOM      6  C   UNL     1       3.177  -2.172   4.698  0.00  0.00    +0.048 A 
ATOM      7  C   UNL     1       3.591  -1.813   3.421  0.00  0.00    +0.027 A 
ATOM      8  C   UNL     1       4.045  -0.535   3.176  0.00  0.00    +0.011 A 
ATOM      9  C   UNL     1       4.089   0.398   4.212  0.00  0.00    -0.011 A 
ATOM     10  C   UNL     1       3.673   0.035   5.492  0.00  0.00    +0.011 A 
ATOM     11  C   UNL     1       3.215  -1.243   5.730  0.00  0.00    +0.027 A 
BRANCH   9  12
ATOM     12  C   UNL     1       4.578   1.774   3.951  0.00  0.00    +0.065 A 
ATOM     13  C   UNL     1       5.907   1.987   3.575  0.00  0.00    +0.131 A 
ATOM     14  C   UNL     1       6.356   3.276   3.333  0.00  0.00    +0.046 A 
ATOM     15  C   UNL     1       5.493   4.348   3.463  0.00  0.00    +0.007 A 
ATOM     16  C   UNL     1       4.177   4.145   3.836  0.00  0.00    +0.046 A 
ATOM     17  C   UNL     1       3.711   2.863   4.076  0.00  0.00    +0.131 A 
BRANCH  17  18
ATOM     18  O   UNL     1       2.417   2.665   4.437  0.00  0.00    -0.494 OA
ATOM     19  C   UNL     1       1.589   3.825   4.544  0.00  0.00    +0.277 C 
ENDBRANCH  17  18
BRANCH  13  20
ATOM     20  O   UNL     1       6.756   0.935   3.446  0.00  0.00    -0.494 OA
ATOM     21  C   UNL     1       8.100   1.229   3.058  0.00  0.00    +0.277 C 
ENDBRANCH  13  20
ENDBRANCH   9  12
ENDBRANCH   5   6
BRANCH   1  23
ATOM     22  N   UNL     1      -0.155  -4.307   2.695  0.00  0.00    -0.307 N 
ATOM     23  C   UNL     1       0.850  -3.570   3.208  0.00  0.00    +0.263 C 
ATOM     24  O   UNL     1       1.069  -2.455   2.775  0.00  0.00    -0.269 OA
ATOM     25  H   UNL     1      -0.288  -5.221   2.993  0.00  0.00    +0.149 HD
BRANCH  22  31
ATOM     26  C   UNL     1      -3.187  -5.364  -1.065  0.00  0.00    +0.008 C 
ATOM     27  C   UNL     1      -2.582  -4.244  -0.216  0.00  0.00    -0.009 C 
ATOM     28  C   UNL     1      -3.703  -3.468   0.478  0.00  0.00    +0.003 C 
ATOM     29  C   UNL     1      -3.097  -2.348   1.327  0.00  0.00    +0.002 C 
ATOM     30  C   UNL     1      -2.167  -2.952   2.380  0.00  0.00    +0.022 C 
ATOM     31  C   UNL     1      -1.046  -3.729   1.686  0.00  0.00    +0.076 C 
ATOM     32  C   UNL     1      -1.651  -4.849   0.837  0.00  0.00    +0.009 C 
ATOM     33  C   UNL     1      -0.531  -5.625   0.143  0.00  0.00    +0.009 C 
ENDBRANCH  22  31
ENDBRANCH   1  23
TORSDOF 6
