REMARK  Name = ZINC40095787
REMARK  9 active torsions:
REMARK  status: ('A' for Active; 'I' for Inactive)
REMARK    1  A    between atoms: C_1  and  C_2
REMARK    2  A    between atoms: C_2  and  C_3
REMARK    3  A    between atoms: C_3  and  C_4
REMARK    4  A    between atoms: C_4  and  N_5
REMARK    5  A    between atoms: C_6  and  C_26
REMARK    6  A    between atoms: C_8  and  C_13
REMARK    7  A    between atoms: C_13  and  C_15
REMARK    8  A    between atoms: C_22  and  C_25
REMARK    9  A    between atoms: C_30  and  N_32
REMARK                            x       y       z     vdW  Elec       q    Type
REMARK                         _______ _______ _______ _____ _____    ______ ____
ROOT
ATOM      1  N   UNL     1      -2.921  -2.494  -0.020  0.00  0.00    -0.284 N 
ATOM      2  C   UNL     1      -3.673  -2.901   1.173  0.00  0.00    +0.145 C 
ATOM      3  C   UNL     1      -5.010  -3.401   0.677  0.00  0.00    +0.076 C 
ATOM      4  C   UNL     1      -4.997  -3.280  -0.671  0.00  0.00    +0.249 C 
ATOM      5  C   UNL     1      -3.700  -2.712  -1.095  0.00  0.00    +0.288 C 
ATOM      6  O   UNL     1      -3.383  -2.478  -2.244  0.00  0.00    -0.266 OA
ATOM      7  O   UNL     1      -6.011  -3.621  -1.498  0.00  0.00    -0.282 OA
ENDROOT
BRANCH   2   8
ATOM      8  C   UNL     1      -2.943  -4.003   1.896  0.00  0.00    -0.020 A 
ATOM      9  C   UNL     1      -2.410  -5.062   1.184  0.00  0.00    +0.006 A 
ATOM     10  C   UNL     1      -1.740  -6.073   1.847  0.00  0.00    +0.003 A 
ATOM     11  C   UNL     1      -1.602  -6.024   3.222  0.00  0.00    +0.033 A 
ATOM     12  C   UNL     1      -2.133  -4.965   3.933  0.00  0.00    +0.127 A 
ATOM     13  C   UNL     1      -2.800  -3.952   3.270  0.00  0.00    +0.038 A 
BRANCH  12  14
ATOM     14  N   UNL     1      -1.985  -4.913   5.405  0.00  0.00    +0.056 N 
ATOM     15  O   UNL     1      -1.482  -5.841   5.995  0.00  0.00    -0.126 OA
ATOM     16  O   UNL     1      -2.367  -3.943   6.018  0.00  0.00    -0.126 OA
ENDBRANCH  12  14
ENDBRANCH   2   8
BRANCH   3  17
ATOM     17  C   UNL     1      -6.110  -3.916   1.498  0.00  0.00    +0.195 C 
ATOM     18  O   UNL     1      -6.442  -5.084   1.407  0.00  0.00    -0.287 OA
BRANCH  17  19
ATOM     19  C   UNL     1      -6.816  -3.020   2.435  0.00  0.00    +0.023 A 
ATOM     20  C   UNL     1      -6.525  -1.652   2.455  0.00  0.00    +0.015 A 
ATOM     21  C   UNL     1      -7.186  -0.818   3.325  0.00  0.00    +0.046 A 
ATOM     22  C   UNL     1      -8.151  -1.326   4.197  0.00  0.00    +0.124 A 
ATOM     23  C   UNL     1      -8.431  -2.690   4.177  0.00  0.00    -0.002 A 
ATOM     24  C   UNL     1      -7.785  -3.530   3.305  0.00  0.00    +0.019 A 
ATOM     25  C   UNL     1      -9.487  -2.941   5.236  0.00  0.00    +0.083 C 
ATOM     26  C   UNL     1      -9.427  -1.635   6.063  0.00  0.00    +0.175 C 
ATOM     27  O   UNL     1      -8.918  -0.681   5.115  0.00  0.00    -0.488 OA
ATOM     28  C   UNL     1     -10.823  -1.234   6.544  0.00  0.00    +0.052 C 
ENDBRANCH  17  19
ENDBRANCH   3  17
BRANCH   1  29
ATOM     29  C   UNL     1      -1.564  -1.942  -0.036  0.00  0.00    +0.109 C 
BRANCH  29  30
ATOM     30  C   UNL     1      -1.631  -0.418   0.079  0.00  0.00    +0.019 C 
BRANCH  30  32
ATOM     31  C   UNL     1      -0.281   1.682   0.177  0.00  0.00    +0.004 C 
ATOM     32  C   UNL     1      -0.214   0.158   0.062  0.00  0.00    -0.002 C 
ENDBRANCH  30  32
ENDBRANCH  29  30
ENDBRANCH   1  29
TORSDOF 7
