REMARK  Name = ZINC33033646
REMARK  12 active torsions:
REMARK  status: ('A' for Active; 'I' for Inactive)
REMARK    1  A    between atoms: C_1  and  C_2
REMARK    2  A    between atoms: C_4  and  C_34
REMARK    3  A    between atoms: C_5  and  S_9
REMARK    4  A    between atoms: C_6  and  C_8
REMARK    5  A    between atoms: S_9  and  N_12
REMARK    6  A    between atoms: N_12  and  C_13
REMARK    7  A    between atoms: C_15  and  C_25
REMARK    8  A    between atoms: C_18  and  N_19
REMARK    9  A    between atoms: N_27  and  C_28
REMARK   10  A    between atoms: N_27  and  C_29
REMARK   11  A    between atoms: C_29  and  C_30
REMARK   12  A    between atoms: N_32  and  C_33
REMARK                            x       y       z     vdW  Elec       q    Type
REMARK                         _______ _______ _______ _____ _____    ______ ____
ROOT
ATOM      1  C   UNL     1       5.157  -0.292  -2.503  0.00  0.00    +0.070 A 
ATOM      2  C   UNL     1       5.897   0.613  -1.766  0.00  0.00    +0.039 A 
ATOM      3  C   UNL     1       6.709   1.544  -2.421  0.00  0.00    +0.039 A 
ATOM      4  C   UNL     1       6.761   1.563  -3.817  0.00  0.00    +0.015 A 
ATOM      5  C   UNL     1       6.017   0.662  -4.548  0.00  0.00    +0.026 A 
ATOM      6  C   UNL     1       5.213  -0.268  -3.899  0.00  0.00    +0.052 A 
ENDROOT
BRANCH   6   7
ATOM      7  N   UNL     1       4.462  -1.176  -4.642  0.00  0.00    -0.332 N 
ATOM      8  C   UNL     1       4.466  -0.821  -6.068  0.00  0.00    +0.086 C 
ATOM      9  C   UNL     1       3.568  -1.794  -6.836  0.00  0.00    -0.063 C 
ATOM     10  N   UNL     1       4.055  -3.167  -6.637  0.00  0.00    +0.381 N 
ATOM     11  C   UNL     1       4.051  -3.522  -5.211  0.00  0.00    -0.063 C 
ATOM     12  C   UNL     1       4.949  -2.549  -4.443  0.00  0.00    +0.086 C 
ATOM     13  H   UNL     1       3.403  -3.869  -7.178  0.00  0.00    -0.086 HD
ATOM     14  H   UNL     1       5.082  -3.251  -7.020  0.00  0.00    -0.086 HD
ENDBRANCH   6   7
BRANCH   3  15
ATOM     15  C   UNL     1       7.505   2.508  -1.639  0.00  0.00    +0.247 C 
ATOM     16  O   UNL     1       7.065   2.959  -0.599  0.00  0.00    -0.270 OA
ATOM     17  N   UNL     1       8.721   2.890  -2.077  0.00  0.00    -0.292 N 
ATOM     18  C   UNL     1       9.213   2.421  -3.375  0.00  0.00    +0.133 C 
BRANCH  17  19
ATOM     19  C   UNL     1       9.551   3.775  -1.256  0.00  0.00    +0.203 C 
BRANCH  19  20
ATOM     20  C   UNL     1      10.419   2.947  -0.344  0.00  0.00    +0.230 C 
ATOM     21  O   UNL     1      10.351   1.736  -0.376  0.00  0.00    -0.274 OA
ATOM     22  N   UNL     1      11.270   3.551   0.508  0.00  0.00    -0.317 N 
ATOM     23  C   UNL     1      12.114   2.746   1.395  0.00  0.00    +0.128 C 
ATOM     24  H   UNL     1      11.332   4.649   0.538  0.00  0.00    +0.148 HD
ENDBRANCH  19  20
ENDBRANCH  17  19
ENDBRANCH   3  15
BRANCH   1  25
ATOM     25  N   UNL     1       4.347  -1.230  -1.851  0.00  0.00    -0.214 N 
ATOM     26  H   UNL     1       4.733  -2.238  -1.639  0.00  0.00    +0.174 HD
BRANCH  25  27
ATOM     27  S   UNL     1       2.806  -0.822  -1.400  0.00  0.00    +0.073 S 
ATOM     28  O   UNL     1       2.899   0.418  -0.713  0.00  0.00    -0.150 OA
ATOM     29  O   UNL     1       2.236  -1.981  -0.807  0.00  0.00    -0.150 OA
BRANCH  27  34
ATOM     30  C   UNL     1      -0.316   0.238  -6.453  0.00  0.00    +0.044 C 
ATOM     31  C   UNL     1       0.468  -0.028  -5.194  0.00  0.00    -0.050 A 
ATOM     32  C   UNL     1       0.499  -1.300  -4.655  0.00  0.00    +0.008 A 
ATOM     33  C   UNL     1       1.213  -1.543  -3.496  0.00  0.00    -0.023 A 
ATOM     34  C   UNL     1       1.896  -0.513  -2.877  0.00  0.00    +0.114 A 
ATOM     35  C   UNL     1       1.865   0.759  -3.416  0.00  0.00    -0.023 A 
ATOM     36  C   UNL     1       1.151   1.002  -4.575  0.00  0.00    +0.008 A 
ATOM     37  C   UNL     1       2.610   1.882  -2.741  0.00  0.00    +0.046 C 
ATOM     38  C   UNL     1       1.247  -2.930  -2.909  0.00  0.00    +0.046 C 
ENDBRANCH  27  34
ENDBRANCH  25  27
ENDBRANCH   1  25
TORSDOF 7
