REMARK  Name = ZINC12104353
REMARK  9 active torsions:
REMARK  status: ('A' for Active; 'I' for Inactive)
REMARK    1  A    between atoms: C_1  and  C_2
REMARK    2  A    between atoms: C_2  and  O_3
REMARK    3  A    between atoms: O_3  and  C_4
REMARK    4  A    between atoms: C_4  and  C_6
REMARK    5  A    between atoms: C_7  and  C_21
REMARK    6  A    between atoms: C_12  and  C_14
REMARK    7  A    between atoms: C_21  and  S_22
REMARK    8  A    between atoms: S_22  and  C_23
REMARK    9  A    between atoms: C_27  and  C_29
REMARK                            x       y       z     vdW  Elec       q    Type
REMARK                         _______ _______ _______ _____ _____    ______ ____
ROOT
ATOM      1  C   UNL     1       1.567  -2.363   2.371  0.00  0.00    +0.079 C 
ATOM      2  C   UNL     1       1.513  -3.685   2.645  0.00  0.00    +0.034 C 
ATOM      3  N   UNL     1       2.067  -4.192   3.786  0.00  0.00    -0.272 N 
ATOM      4  C   UNL     1       2.692  -3.443   4.704  0.00  0.00    +0.304 C 
ATOM      5  O   UNL     1       3.153  -3.986   5.689  0.00  0.00    -0.252 OA
ATOM      6  N   UNL     1       2.826  -2.109   4.571  0.00  0.00    -0.288 N 
ATOM      7  C   UNL     1       2.268  -1.465   3.370  0.00  0.00    +0.144 C 
ATOM      8  H   UNL     1       2.003  -5.147   3.940  0.00  0.00    +0.156 HD
ATOM      9  H   UNL     1       3.282  -1.586   5.248  0.00  0.00    +0.151 HD
ENDROOT
BRANCH   7  10
ATOM     10  C   UNL     1       3.389  -0.758   2.653  0.00  0.00    -0.022 A 
ATOM     11  C   UNL     1       4.583  -1.415   2.421  0.00  0.00    +0.007 A 
ATOM     12  C   UNL     1       5.612  -0.767   1.763  0.00  0.00    +0.020 A 
ATOM     13  C   UNL     1       5.446   0.538   1.336  0.00  0.00    +0.041 A 
ATOM     14  C   UNL     1       4.251   1.195   1.568  0.00  0.00    +0.020 A 
ATOM     15  C   UNL     1       3.221   0.545   2.221  0.00  0.00    +0.007 A 
ATOM     16 CL   UNL     1       6.738   1.353   0.510  0.00  0.00    -0.084 Cl
ENDBRANCH   7  10
BRANCH   1  17
ATOM     17  C   UNL     1       0.995  -1.837   1.190  0.00  0.00    +0.339 C 
ATOM     18  O   UNL     1      -0.085  -1.277   1.234  0.00  0.00    -0.245 OA
BRANCH  17  19
ATOM     19  O   UNL     1       1.646  -1.956   0.014  0.00  0.00    -0.462 OA
BRANCH  19  21
ATOM     20  C   UNL     1       1.890  -1.631  -2.369  0.00  0.00    +0.048 C 
ATOM     21  C   UNL     1       1.009  -1.401  -1.139  0.00  0.00    +0.229 C 
ENDBRANCH  19  21
ENDBRANCH  17  19
ENDBRANCH   1  17
BRANCH   2  22
ATOM     22  C   UNL     1       0.830  -4.615   1.676  0.00  0.00    +0.128 C 
BRANCH  22  23
ATOM     23  S   UNL     1       2.081  -5.546   0.748  0.00  0.00    -0.081 S 
BRANCH  23  24
ATOM     24  C   UNL     1       1.136  -6.574  -0.327  0.00  0.00    +0.185 A 
ATOM     25  N   UNL     1       1.631  -7.461  -1.217  0.00  0.00    -0.254 N 
ATOM     26  H   UNL     1       2.566  -7.654  -1.387  0.00  0.00    +0.191 HD
ATOM     27  N   UNL     1       0.522  -8.048  -1.848  0.00  0.00    -0.157 NA
ATOM     28  C   UNL     1      -0.546  -7.506  -1.326  0.00  0.00    +0.155 A 
ATOM     29  N   UNL     1      -0.178  -6.618  -0.401  0.00  0.00    -0.205 NA
BRANCH  28  30
ATOM     30  C   UNL     1      -1.967  -7.836  -1.703  0.00  0.00    +0.059 C 
ATOM     31  C   UNL     1      -2.229  -9.344  -1.508  0.00  0.00    +0.011 C 
ATOM     32  C   UNL     1      -3.158  -9.724  -2.687  0.00  0.00    +0.001 C 
ATOM     33  C   UNL     1      -2.593  -8.877  -3.854  0.00  0.00    +0.001 C 
ATOM     34  C   UNL     1      -2.199  -7.540  -3.195  0.00  0.00    +0.011 C 
ENDBRANCH  28  30
ENDBRANCH  23  24
ENDBRANCH  22  23
ENDBRANCH   2  22
TORSDOF 8
