REMARK  Name = ZINC29189989
REMARK  11 active torsions:
REMARK  status: ('A' for Active; 'I' for Inactive)
REMARK    1  A    between atoms: C_1  and  C_2
REMARK    2  A    between atoms: C_2  and  C_3
REMARK    3  A    between atoms: C_2  and  C_4
REMARK    4  A    between atoms: C_4  and  C_6
REMARK    5  A    between atoms: C_4  and  N_11
REMARK    6  A    between atoms: N_11  and  C_12
REMARK    7  A    between atoms: C_12  and  C_13
REMARK    8  A    between atoms: C_16  and  C_29
REMARK    9  A    between atoms: C_19  and  C_21
REMARK   10  A    between atoms: C_24  and  O_27
REMARK   11  A    between atoms: O_27  and  C_28
REMARK                            x       y       z     vdW  Elec       q    Type
REMARK                         _______ _______ _______ _____ _____    ______ ____
ROOT
ATOM      1  C   UNL     1      -0.742   1.585  -1.213  0.00  0.00    +0.218 C 
ATOM      2  O   UNL     1      -1.736   2.268  -1.088  0.00  0.00    -0.276 OA
ATOM      3  N   UNL     1      -0.288   1.272  -2.443  0.00  0.00    -0.184 N 
ATOM      4  C   UNL     1      -0.901   1.692  -3.713  0.00  0.00    +0.172 C 
ATOM      5  C   UNL     1       0.014   1.062  -4.782  0.00  0.00    +0.090 C 
ATOM      6  C   UNL     1       1.069   0.338  -3.977  0.00  0.00    +0.069 C 
ATOM      7  N   UNL     1       0.840   0.504  -2.720  0.00  0.00    -0.181 NA
ENDROOT
BRANCH   6   8
ATOM      8  C   UNL     1       2.191  -0.433  -4.543  0.00  0.00    -0.002 A 
ATOM      9  C   UNL     1       2.337  -0.543  -5.928  0.00  0.00    +0.013 A 
ATOM     10  C   UNL     1       3.390  -1.260  -6.453  0.00  0.00    +0.046 A 
ATOM     11  C   UNL     1       4.299  -1.883  -5.607  0.00  0.00    +0.120 A 
ATOM     12  C   UNL     1       4.154  -1.782  -4.230  0.00  0.00    +0.046 A 
ATOM     13  C   UNL     1       3.107  -1.062  -3.696  0.00  0.00    +0.013 A 
BRANCH  11  14
ATOM     14  O   UNL     1       5.333  -2.593  -6.129  0.00  0.00    -0.495 OA
ATOM     15  C   UNL     1       5.423  -2.657  -7.554  0.00  0.00    +0.277 C 
ENDBRANCH  11  14
ENDBRANCH   6   8
BRANCH   4  16
ATOM     16  C   UNL     1      -2.305   1.154  -3.828  0.00  0.00    +0.128 A 
ATOM     17  C   UNL     1      -3.358   1.809  -4.350  0.00  0.00    +0.046 A 
ATOM     18  C   UNL     1      -4.468   0.938  -4.258  0.00  0.00    +0.041 A 
ATOM     19  C   UNL     1      -4.027  -0.197  -3.685  0.00  0.00    +0.195 A 
ATOM     20  O   UNL     1      -2.714  -0.062  -3.432  0.00  0.00    -0.466 OA
ENDBRANCH   4  16
BRANCH   1  21
ATOM     21  C   UNL     1      -0.013   1.086   0.008  0.00  0.00    +0.018 C 
BRANCH  21  22
ATOM     22  N   UNL     1      -0.700   1.560   1.217  0.00  0.00    +0.390 N 
ATOM     23  H   UNL     1      -1.732   1.179   1.208  0.00  0.00    -0.084 HD
ATOM     24  H   UNL     1      -0.715   2.659   1.206  0.00  0.00    -0.084 HD
BRANCH  22  25
ATOM     25  C   UNL     1      -0.016   1.091   2.429  0.00  0.00    -0.031 C 
BRANCH  25  26
ATOM     26  C   UNL     1      -0.318   2.028   3.570  0.00  0.00    -0.024 A 
ATOM     27  C   UNL     1       0.507   2.476   4.548  0.00  0.00    +0.009 A 
ATOM     28  C   UNL     1       0.008   3.345   5.500  0.00  0.00    +0.008 A 
ATOM     29  C   UNL     1      -1.295   3.714   5.435  0.00  0.00    +0.045 A 
ATOM     30  S   UNL     1      -1.857   2.830   3.989  0.00  0.00    -0.103 S 
ENDBRANCH  25  26
BRANCH  25  32
ATOM     31  C   UNL     1       0.206  -0.803   4.044  0.00  0.00    +0.006 C 
ATOM     32  C   UNL     1      -0.507  -0.315   2.781  0.00  0.00    -0.027 C 
ATOM     33  C   UNL     1      -2.017  -0.281   3.027  0.00  0.00    +0.006 C 
ENDBRANCH  25  32
ENDBRANCH  22  25
ENDBRANCH  21  22
ENDBRANCH   1  21
TORSDOF 8
