REMARK  Name = ZINC60335619
REMARK  9 active torsions:
REMARK  status: ('A' for Active; 'I' for Inactive)
REMARK    1  A    between atoms: C_1  and  C_2
REMARK    2  A    between atoms: N_5  and  C_8
REMARK    3  A    between atoms: C_8  and  C_10
REMARK    4  A    between atoms: C_8  and  C_29
REMARK    5  A    between atoms: C_10  and  N_11
REMARK    6  A    between atoms: C_12  and  C_14
REMARK    7  A    between atoms: C_20  and  C_22
REMARK    8  A    between atoms: C_29  and  C_30
REMARK    9  A    between atoms: C_29  and  C_31
REMARK                            x       y       z     vdW  Elec       q    Type
REMARK                         _______ _______ _______ _____ _____    ______ ____
ROOT
ATOM      1  N   UNL     1      -2.993  -3.964   0.572  0.00  0.00    -0.315 N 
ATOM      2  C   UNL     1      -4.279  -4.341   0.426  0.00  0.00    +0.234 C 
ATOM      3  O   UNL     1      -4.816  -5.012   1.282  0.00  0.00    -0.274 OA
ATOM      4  H   UNL     1      -2.564  -3.428  -0.113  0.00  0.00    +0.149 HD
ENDROOT
BRANCH   2   5
ATOM      5  C   UNL     1      -5.051  -3.928  -0.801  0.00  0.00    +0.162 C 
ATOM      6  C   UNL     1      -5.144  -2.389  -0.869  0.00  0.00    +0.033 C 
ATOM      7  C   UNL     1      -6.583  -2.151  -1.398  0.00  0.00    +0.021 C 
ATOM      8  C   UNL     1      -7.360  -3.306  -0.717  0.00  0.00    +0.109 C 
ATOM      9  N   UNL     1      -6.423  -4.449  -0.727  0.00  0.00    -0.286 N 
ATOM     10  C   UNL     1      -6.768  -5.751  -0.677  0.00  0.00    +0.247 C 
ATOM     11  O   UNL     1      -5.905  -6.606  -0.636  0.00  0.00    -0.270 OA
BRANCH  10  12
ATOM     12  C   UNL     1      -8.194  -6.139  -0.672  0.00  0.00    +0.037 A 
ATOM     13  C   UNL     1      -8.581  -7.393  -1.147  0.00  0.00    +0.014 A 
ATOM     14  C   UNL     1      -9.913  -7.749  -1.140  0.00  0.00    +0.016 A 
ATOM     15  C   UNL     1     -10.867  -6.865  -0.663  0.00  0.00    +0.018 A 
ATOM     16  C   UNL     1     -10.489  -5.619  -0.191  0.00  0.00    +0.016 A 
ATOM     17  C   UNL     1      -9.159  -5.254  -0.188  0.00  0.00    +0.014 A 
ATOM     18 BR   UNL     1     -12.691  -7.361  -0.657  0.00  0.00    -0.050 Br
ENDBRANCH  10  12
ENDBRANCH   2   5
BRANCH   1  19
ATOM     19  C   UNL     1      -2.244  -4.366   1.765  0.00  0.00    +0.089 C 
BRANCH  19  20
ATOM     20  C   UNL     1      -0.821  -3.810   1.684  0.00  0.00    -0.049 C 
BRANCH  20  25
ATOM     21  C   UNL     1      -2.099   1.684   2.521  0.00  0.00    +0.007 C 
ATOM     22  C   UNL     1      -2.201   0.171   2.320  0.00  0.00    -0.018 C 
ATOM     23  C   UNL     1      -1.432  -0.546   3.433  0.00  0.00    -0.016 C 
ATOM     24  C   UNL     1      -1.471  -2.055   3.182  0.00  0.00    -0.078 C 
ATOM     25  N   UNL     1      -0.851  -2.355   1.885  0.00  0.00    +0.383 N 
ATOM     26  C   UNL     1      -1.625  -1.729   0.807  0.00  0.00    -0.078 C 
ATOM     27  C   UNL     1      -1.592  -0.208   0.967  0.00  0.00    -0.016 C 
ATOM     28  H   UNL     1       0.092  -1.996   1.874  0.00  0.00    -0.081 HD
ENDBRANCH  20  25
BRANCH  20  29
ATOM     29  C   UNL     1       0.043  -4.457   2.769  0.00  0.00    -0.029 C 
ATOM     30  C   UNL     1       0.177  -5.955   2.487  0.00  0.00    +0.005 C 
ATOM     31  C   UNL     1       1.430  -3.811   2.770  0.00  0.00    +0.005 C 
ENDBRANCH  20  29
ENDBRANCH  19  20
ENDBRANCH   1  19
TORSDOF 6
