REMARK  Name = ZINC36310174
REMARK  17 active torsions:
REMARK  status: ('A' for Active; 'I' for Inactive)
REMARK    1  A    between atoms: C_1  and  C_2
REMARK    2  A    between atoms: C_2  and  O_3
REMARK    3  A    between atoms: O_3  and  C_4
REMARK    4  A    between atoms: C_4  and  C_5
REMARK    5  A    between atoms: C_5  and  C_7
REMARK    6  A    between atoms: C_5  and  O_36
REMARK    7  A    between atoms: C_7  and  N_8
REMARK    8  A    between atoms: N_8  and  C_9
REMARK    9  A    between atoms: N_8  and  C_14
REMARK   10  A    between atoms: C_9  and  C_10
REMARK   11  A    between atoms: C_10  and  C_11
REMARK   12  A    between atoms: C_11  and  O_12
REMARK   13  A    between atoms: O_12  and  C_13
REMARK   14  A    between atoms: C_14  and  C_15
REMARK   15  A    between atoms: C_25  and  C_27
REMARK   16  A    between atoms: C_27  and  O_28
REMARK   17  A    between atoms: O_28  and  C_29
REMARK                            x       y       z     vdW  Elec       q    Type
REMARK                         _______ _______ _______ _____ _____    ______ ____
ROOT
ATOM      1  C   UNL     1       3.810  -5.488  -5.114  0.00  0.00    +0.200 C 
ATOM      2  O   UNL     1       4.233  -4.560  -5.770  0.00  0.00    -0.278 OA
ATOM      3  N   UNL     1       4.205  -6.746  -5.392  0.00  0.00    -0.292 N 
ATOM      4  C   UNL     1       3.694  -7.879  -4.607  0.00  0.00    +0.113 C 
ATOM      5  C   UNL     1       2.858  -8.772  -5.537  0.00  0.00    +0.061 C 
ATOM      6  C   UNL     1       3.582  -8.921  -6.835  0.00  0.00    -0.004 A 
ATOM      7  C   UNL     1       4.605  -8.163  -7.314  0.00  0.00    -0.014 A 
ATOM      8  C   UNL     1       5.105  -8.508  -8.569  0.00  0.00    +0.013 A 
ATOM      9  C   UNL     1       4.577  -9.555  -9.243  0.00  0.00    +0.046 A 
ATOM     10  S   UNL     1       3.314 -10.121  -8.114  0.00  0.00    -0.101 S 
ATOM     11  C   UNL     1       5.149  -7.005  -6.488  0.00  0.00    +0.144 C 
ENDROOT
BRANCH   1  12
ATOM     12  C   UNL     1       2.842  -5.234  -3.987  0.00  0.00    +0.019 C 
BRANCH  12  13
ATOM     13  N   UNL     1       2.462  -3.815  -3.978  0.00  0.00    +0.387 N 
ATOM     14  H   UNL     1       3.293  -3.244  -3.962  0.00  0.00    -0.081 HD
BRANCH  13  15
ATOM     15  C   UNL     1       1.682  -3.509  -5.186  0.00  0.00    -0.044 C 
BRANCH  15  16
ATOM     16  C   UNL     1       1.393  -2.008  -5.239  0.00  0.00    +0.124 C 
BRANCH  16  17
ATOM     17  O   UNL     1       2.620  -1.291  -5.390  0.00  0.00    -0.391 OA
ATOM     18  H   UNL     1       3.110  -1.516  -6.192  0.00  0.00    +0.210 HD
ENDBRANCH  16  17
BRANCH  16  19
ATOM     19  C   UNL     1       0.477  -1.707  -6.428  0.00  0.00    +0.189 C 
BRANCH  19  20
ATOM     20  O   UNL     1       0.112  -0.326  -6.410  0.00  0.00    -0.378 OA
BRANCH  20  22
ATOM     21  C   UNL     1      -1.070   1.553  -7.366  0.00  0.00    +0.034 C 
ATOM     22  C   UNL     1      -0.747   0.062  -7.484  0.00  0.00    +0.156 C 
ENDBRANCH  20  22
ENDBRANCH  19  20
ENDBRANCH  16  19
ENDBRANCH  15  16
ENDBRANCH  13  15
BRANCH  13  23
ATOM     23  C   UNL     1       1.650  -3.533  -2.787  0.00  0.00    -0.076 C 
BRANCH  23  24
ATOM     24  C   UNL     1       2.502  -3.729  -1.531  0.00  0.00    +0.009 C 
BRANCH  24  25
ATOM     25  C   UNL     1       1.700  -3.304  -0.299  0.00  0.00    +0.157 C 
BRANCH  25  26
ATOM     26  O   UNL     1       2.495  -3.487   0.873  0.00  0.00    -0.383 OA
ATOM     27  C   UNL     1       1.836  -3.118   2.086  0.00  0.00    +0.193 C 
ENDBRANCH  25  26
ENDBRANCH  24  25
ENDBRANCH  23  24
ENDBRANCH  13  23
ENDBRANCH  12  13
ENDBRANCH   1  12
BRANCH  11  28
ATOM     28  C   UNL     1       6.518  -7.379  -5.916  0.00  0.00    +0.256 C 
BRANCH  28  29
ATOM     29  O   UNL     1       6.416  -8.617  -5.209  0.00  0.00    -0.490 OA
BRANCH  29  30
ATOM     30  C   UNL     1       7.552  -9.095  -4.635  0.00  0.00    +0.121 A 
ATOM     31  C   UNL     1       8.738  -8.384  -4.746  0.00  0.00    +0.048 A 
ATOM     32  C   UNL     1       9.891  -8.871  -4.162  0.00  0.00    +0.042 A 
ATOM     33  C   UNL     1       9.864 -10.068  -3.467  0.00  0.00    +0.124 A 
ATOM     34  C   UNL     1       8.681 -10.779  -3.357  0.00  0.00    +0.042 A 
ATOM     35  C   UNL     1       7.524 -10.291  -3.934  0.00  0.00    +0.048 A 
ATOM     36  F   UNL     1      10.993 -10.544  -2.897  0.00  0.00    -0.205 F 
ENDBRANCH  29  30
ENDBRANCH  28  29
ENDBRANCH  11  28
TORSDOF 15
