REMARK  Name = ZINC22855791
REMARK  8 active torsions:
REMARK  status: ('A' for Active; 'I' for Inactive)
REMARK    1  A    between atoms: C_1  and  O_2
REMARK    2  A    between atoms: O_2  and  C_3
REMARK    3  A    between atoms: C_6  and  N_9
REMARK    4  A    between atoms: N_11  and  C_20
REMARK    5  A    between atoms: C_12  and  C_15
REMARK    6  A    between atoms: C_20  and  C_21
REMARK    7  A    between atoms: C_21  and  C_22
REMARK    8  A    between atoms: C_22  and  O_23
REMARK                            x       y       z     vdW  Elec       q    Type
REMARK                         _______ _______ _______ _____ _____    ______ ____
ROOT
ATOM      1  N   UNL     1       5.994   2.368   0.196  0.00  0.00    -0.336 N 
ATOM      2  C   UNL     1       4.880   1.714  -0.072  0.00  0.00    +0.152 A 
ATOM      3  N   UNL     1       3.619   2.208  -0.313  0.00  0.00    -0.320 N 
ATOM      4  C   UNL     1       2.605   1.323  -0.568  0.00  0.00    +0.064 A 
ATOM      5  C   UNL     1       2.866  -0.002  -0.589  0.00  0.00    +0.075 A 
ATOM      6  S   UNL     1       4.614  -0.045  -0.227  0.00  0.00    -0.059 S 
ATOM      7  H   UNL     1       5.969   3.457   0.348  0.00  0.00    +0.168 HD
ENDROOT
BRANCH   1  11
ATOM      8  C   UNL     1       9.583   0.320   0.467  0.00  0.00    +0.120 A 
ATOM      9  C   UNL     1       9.144   0.788  -0.764  0.00  0.00    +0.047 A 
ATOM     10  C   UNL     1       7.949   1.471  -0.859  0.00  0.00    +0.029 A 
ATOM     11  C   UNL     1       7.180   1.691   0.286  0.00  0.00    +0.041 A 
ATOM     12  C   UNL     1       7.629   1.223   1.523  0.00  0.00    +0.029 A 
ATOM     13  C   UNL     1       8.822   0.537   1.607  0.00  0.00    +0.047 A 
BRANCH   8  15
ATOM     14  C   UNL     1      11.154  -0.805   1.853  0.00  0.00    +0.277 C 
ATOM     15  O   UNL     1      10.762  -0.352   0.555  0.00  0.00    -0.495 OA
ENDBRANCH   8  15
ENDBRANCH   1  11
BRANCH   4  16
ATOM     16  C   UNL     1       1.240   1.814  -0.825  0.00  0.00    +0.036 A 
ATOM     17  C   UNL     1       0.044   1.162  -0.670  0.00  0.00    +0.017 A 
ATOM     18  C   UNL     1      -1.120   1.831  -0.983  0.00  0.00    +0.008 A 
ATOM     19  C   UNL     1      -1.048   3.113  -1.423  0.00  0.00    +0.046 A 
ATOM     20  S   UNL     1       0.712   3.413  -1.419  0.00  0.00    -0.095 S 
ENDBRANCH   4  16
BRANCH   3  21
ATOM     21  C   UNL     1       3.364   3.650  -0.291  0.00  0.00    +0.126 C 
BRANCH  21  22
ATOM     22  C   UNL     1       4.414   4.340   0.582  0.00  0.00    +0.049 C 
BRANCH  22  23
ATOM     23  C   UNL     1       4.148   5.847   0.605  0.00  0.00    +0.157 C 
BRANCH  23  24
ATOM     24  O   UNL     1       5.129   6.491   1.421  0.00  0.00    -0.395 OA
ATOM     25  H   UNL     1       5.099   7.582   1.557  0.00  0.00    +0.209 HD
ENDBRANCH  23  24
ENDBRANCH  22  23
ENDBRANCH  21  22
ENDBRANCH   3  21
TORSDOF 7
