REMARK  Name = ZINC65010406
REMARK  13 active torsions:
REMARK  status: ('A' for Active; 'I' for Inactive)
REMARK    1  A    between atoms: C_1  and  C_2
REMARK    2  A    between atoms: C_3  and  S_8
REMARK    3  A    between atoms: C_4  and  C_7
REMARK    4  A    between atoms: S_8  and  N_11
REMARK    5  A    between atoms: C_16  and  O_34
REMARK    6  A    between atoms: C_17  and  O_32
REMARK    7  A    between atoms: C_20  and  C_22
REMARK    8  A    between atoms: C_25  and  O_30
REMARK    9  A    between atoms: C_26  and  O_28
REMARK   10  A    between atoms: O_28  and  C_29
REMARK   11  A    between atoms: O_30  and  C_31
REMARK   12  A    between atoms: O_32  and  C_33
REMARK   13  A    between atoms: O_34  and  C_35
REMARK                            x       y       z     vdW  Elec       q    Type
REMARK                         _______ _______ _______ _____ _____    ______ ____
ROOT
ATOM      1  N   UNL     1       1.660   0.431  -4.106  0.00  0.00    -0.164 NA
ATOM      2  C   UNL     1       2.101   1.829  -3.965  0.00  0.00    +0.115 C 
ATOM      3  C   UNL     1       3.075   1.897  -2.790  0.00  0.00    +0.052 C 
ATOM      4  C   UNL     1       4.106   0.802  -2.883  0.00  0.00    -0.037 A 
ATOM      5  C   UNL     1       5.286   0.969  -2.167  0.00  0.00    +0.053 A 
ATOM      6  C   UNL     1       6.271  -0.001  -2.198  0.00  0.00    +0.162 A 
ATOM      7  C   UNL     1       6.078  -1.154  -2.952  0.00  0.00    +0.162 A 
ATOM      8  C   UNL     1       4.905  -1.315  -3.666  0.00  0.00    +0.055 A 
ATOM      9  C   UNL     1       3.921  -0.335  -3.636  0.00  0.00    -0.017 A 
ATOM     10  C   UNL     1       2.679  -0.565  -4.454  0.00  0.00    +0.140 C 
ENDROOT
BRANCH  10  11
ATOM     11  C   UNL     1       2.145  -1.947  -4.176  0.00  0.00    -0.021 A 
ATOM     12  C   UNL     1       1.863  -2.329  -2.878  0.00  0.00    +0.009 A 
ATOM     13  C   UNL     1       1.373  -3.595  -2.618  0.00  0.00    +0.050 A 
ATOM     14  C   UNL     1       1.163  -4.484  -3.660  0.00  0.00    +0.162 A 
ATOM     15  C   UNL     1       1.447  -4.099  -4.967  0.00  0.00    +0.162 A 
ATOM     16  C   UNL     1       1.933  -2.827  -5.221  0.00  0.00    +0.055 A 
BRANCH  15  17
ATOM     17  O   UNL     1       1.243  -4.968  -5.993  0.00  0.00    -0.491 OA
ATOM     18  C   UNL     1       1.556  -4.505  -7.308  0.00  0.00    +0.277 C 
ENDBRANCH  15  17
BRANCH  14  19
ATOM     19  O   UNL     1       0.682  -5.731  -3.406  0.00  0.00    -0.491 OA
ATOM     20  C   UNL     1       0.414  -6.057  -2.041  0.00  0.00    +0.277 C 
ENDBRANCH  14  19
ENDBRANCH  10  11
BRANCH   1  21
ATOM     21  S   UNL     1       0.078  -0.000  -3.873  0.00  0.00    +0.067 S 
ATOM     22  O   UNL     1      -0.339   0.621  -2.665  0.00  0.00    -0.153 OA
ATOM     23  O   UNL     1       0.007  -1.406  -4.070  0.00  0.00    -0.153 OA
BRANCH  21  26
ATOM     24  C   UNL     1      -0.511  -1.109  -6.959  0.00  0.00    +0.071 C 
ATOM     25  C   UNL     1      -1.060   0.200  -6.452  0.00  0.00    +0.107 A 
ATOM     26  C   UNL     1      -0.859   0.738  -5.169  0.00  0.00    +0.170 A 
ATOM     27  C   UNL     1      -1.508   1.917  -5.103  0.00  0.00    +0.161 A 
ATOM     28  O   UNL     1      -2.102   2.131  -6.287  0.00  0.00    -0.358 OA
ATOM     29  N   UNL     1      -1.800   1.033  -7.129  0.00  0.00    -0.081 NA
ATOM     30  C   UNL     1      -1.560   2.833  -3.908  0.00  0.00    +0.091 C 
ENDBRANCH  21  26
ENDBRANCH   1  21
BRANCH   7  31
ATOM     31  O   UNL     1       7.038  -2.117  -2.987  0.00  0.00    -0.491 OA
ATOM     32  C   UNL     1       6.768  -3.273  -3.784  0.00  0.00    +0.277 C 
ENDBRANCH   7  31
BRANCH   6  33
ATOM     33  O   UNL     1       7.422   0.172  -1.495  0.00  0.00    -0.491 OA
ATOM     34  C   UNL     1       7.548   1.381  -0.743  0.00  0.00    +0.277 C 
ENDBRANCH   6  33
TORSDOF 7
