REMARK  Name = ZINC08432594
REMARK  20 active torsions:
REMARK  status: ('A' for Active; 'I' for Inactive)
REMARK    1  A    between atoms: C_1  and  C_2
REMARK    2  A    between atoms: C_3  and  C_35
REMARK    3  A    between atoms: C_5  and  N_13
REMARK    4  A    between atoms: C_6  and  C_7
REMARK    5  A    between atoms: C_7  and  O_9
REMARK    6  A    between atoms: O_9  and  C_10
REMARK    7  A    between atoms: C_10  and  C_11
REMARK    8  A    between atoms: C_10  and  C_12
REMARK    9  A    between atoms: C_14  and  C_16
REMARK   10  A    between atoms: C_16  and  C_17
REMARK   11  A    between atoms: C_17  and  C_18
REMARK   12  A    between atoms: C_18  and  C_19
REMARK   13  A    between atoms: N_21  and  C_22
REMARK   14  A    between atoms: C_23  and  C_29
REMARK   15  A    between atoms: C_24  and  C_28
REMARK   16  A    between atoms: C_25  and  C_27
REMARK   17  A    between atoms: C_29  and  O_31
REMARK   18  A    between atoms: O_31  and  C_32
REMARK   19  A    between atoms: C_32  and  C_33
REMARK   20  A    between atoms: C_32  and  C_34
REMARK                            x       y       z     vdW  Elec       q    Type
REMARK                         _______ _______ _______ _____ _____    ______ ____
ROOT
ATOM      1  C   UNL     1       1.329   5.301   5.925  0.00  0.00    +0.018 C 
ENDROOT
BRANCH   1   2
ATOM      2  C   UNL     1       1.279   4.124   4.947  0.00  0.00    +0.096 C 
BRANCH   2   4
ATOM      3  N   UNL     1       1.254   3.784   2.498  0.00  0.00    -0.279 N 
ATOM      4  C   UNL     1       1.292   4.645   3.533  0.00  0.00    +0.218 C 
ATOM      5  O   UNL     1       1.338   5.840   3.327  0.00  0.00    -0.275 OA
ATOM      6  H   UNL     1       1.218   2.829   2.662  0.00  0.00    +0.155 HD
BRANCH   3  11
ATOM      7  C   UNL     1       1.211   3.629  -2.563  0.00  0.00    +0.045 C 
ATOM      8  C   UNL     1       1.250   4.303  -1.216  0.00  0.00    -0.025 A 
ATOM      9  C   UNL     1       1.303   5.643  -1.104  0.00  0.00    -0.008 A 
ATOM     10  S   UNL     1       1.331   5.907   0.657  0.00  0.00    -0.078 S 
ATOM     11  C   UNL     1       1.266   4.263   1.197  0.00  0.00    +0.086 A 
ATOM     12  C   UNL     1       1.232   3.540   0.009  0.00  0.00    +0.091 A 
ATOM     13  C   UNL     1       1.333   6.672  -2.204  0.00  0.00    +0.052 C 
BRANCH  12  14
ATOM     14  C   UNL     1       1.176   2.076   0.002  0.00  0.00    +0.342 C 
ATOM     15  O   UNL     1       2.205   1.428  -0.011  0.00  0.00    -0.245 OA
BRANCH  14  16
ATOM     16  O   UNL     1      -0.018   1.448   0.010  0.00  0.00    -0.458 OA
BRANCH  16  17
ATOM     17  C   UNL     1       0.002  -0.004   0.002  0.00  0.00    +0.171 C 
ATOM     18  C   UNL     1      -1.233  -0.535   0.732  0.00  0.00    +0.052 C 
ATOM     19  C   UNL     1      -0.005  -0.506  -1.443  0.00  0.00    +0.052 C 
ENDBRANCH  16  17
ENDBRANCH  14  16
ENDBRANCH  12  14
ENDBRANCH   3  11
ENDBRANCH   2   4
ENDBRANCH   1   2
BRANCH   1  20
ATOM     20  C   UNL     1       1.316   4.772   7.360  0.00  0.00    +0.096 C 
BRANCH  20  21
ATOM     21  C   UNL     1       1.365   5.930   8.323  0.00  0.00    +0.218 C 
ATOM     22  O   UNL     1       1.407   7.067   7.902  0.00  0.00    -0.275 OA
ATOM     23  N   UNL     1       1.363   5.703   9.651  0.00  0.00    -0.279 N 
ATOM     24  H   UNL     1       1.329   4.794   9.988  0.00  0.00    +0.155 HD
BRANCH  23  25
ATOM     25  C   UNL     1       1.408   6.769  10.537  0.00  0.00    +0.086 A 
ATOM     26  C   UNL     1       1.414   6.737  11.927  0.00  0.00    +0.091 A 
ATOM     27  C   UNL     1       1.466   8.011  12.605  0.00  0.00    -0.025 A 
ATOM     28  C   UNL     1       1.506   9.114  11.836  0.00  0.00    -0.008 A 
ATOM     29  S   UNL     1       1.480   8.461  10.180  0.00  0.00    -0.078 S 
ATOM     30  C   UNL     1       1.563  10.556  12.272  0.00  0.00    +0.052 C 
ATOM     31  C   UNL     1       1.477   8.101  14.109  0.00  0.00    +0.045 C 
BRANCH  26  32
ATOM     32  C   UNL     1       1.368   5.474  12.667  0.00  0.00    +0.342 C 
ATOM     33  O   UNL     1       2.401   4.909  12.970  0.00  0.00    -0.245 OA
BRANCH  32  34
ATOM     34  O   UNL     1       0.179   4.939  13.014  0.00  0.00    -0.458 OA
BRANCH  34  35
ATOM     35  C   UNL     1       0.210   3.685  13.746  0.00  0.00    +0.171 C 
ATOM     36  C   UNL     1      -1.011   3.602  14.664  0.00  0.00    +0.052 C 
ATOM     37  C   UNL     1       0.186   2.517  12.759  0.00  0.00    +0.052 C 
ENDBRANCH  34  35
ENDBRANCH  32  34
ENDBRANCH  26  32
ENDBRANCH  23  25
ENDBRANCH  20  21
ENDBRANCH   1  20
TORSDOF 12
