REMARK  Name = ZINC38819193
REMARK  7 active torsions:
REMARK  status: ('A' for Active; 'I' for Inactive)
REMARK    1  A    between atoms: C_4  and  C_7
REMARK    2  A    between atoms: C_9  and  S_16
REMARK    3  A    between atoms: C_13  and  C_14
REMARK    4  A    between atoms: S_16  and  C_17
REMARK    5  A    between atoms: C_17  and  C_18
REMARK    6  A    between atoms: N_20  and  C_21
REMARK    7  A    between atoms: C_23  and  C_32
REMARK                            x       y       z     vdW  Elec       q    Type
REMARK                         _______ _______ _______ _____ _____    ______ ____
ROOT
ATOM      1  C   UNL     1       9.745  -1.151  -2.471  0.00  0.00    +0.224 C 
ATOM      2  O   UNL     1       9.635  -0.414  -3.428  0.00  0.00    -0.275 OA
ATOM      3  N   UNL     1      10.968  -1.533  -2.052  0.00  0.00    -0.302 N 
ATOM      4  H   UNL     1      11.057  -2.123  -1.287  0.00  0.00    +0.150 HD
ENDROOT
BRANCH   3   5
ATOM      5  C   UNL     1      12.164  -1.056  -2.752  0.00  0.00    +0.151 C 
ATOM      6  C   UNL     1      13.381  -0.966  -1.800  0.00  0.00    +0.132 C 
ATOM      7  C   UNL     1      14.235   0.239  -2.102  0.00  0.00    -0.046 C 
ATOM      8  C   UNL     1      13.686   1.220  -2.808  0.00  0.00    -0.013 C 
ATOM      9  S   UNL     1      12.023   0.726  -3.196  0.00  0.00    -0.106 S 
ATOM     10  C   UNL     1      14.335   2.514  -3.215  0.00  0.00    +0.042 C 
ATOM     11  C   UNL     1      15.614   2.706  -2.390  0.00  0.00    +0.005 C 
ATOM     12  C   UNL     1      16.414   1.400  -2.423  0.00  0.00    +0.005 C 
ATOM     13  C   UNL     1      15.680   0.333  -1.614  0.00  0.00    +0.032 C 
BRANCH   6  14
ATOM     14  C   UNL     1      12.889  -0.874  -0.379  0.00  0.00    +0.220 C 
ATOM     15  O   UNL     1      12.583   0.203   0.089  0.00  0.00    -0.275 OA
ATOM     16  N   UNL     1      12.787  -1.988   0.373  0.00  0.00    -0.329 N 
ATOM     17  H   UNL     1      13.098  -2.838   0.025  0.00  0.00    +0.145 HD
ATOM     18  H   UNL     1      12.403  -1.940   1.263  0.00  0.00    +0.145 HD
ENDBRANCH   6  14
ENDBRANCH   3   5
BRANCH   1  19
ATOM     19  C   UNL     1       8.515  -1.641  -1.752  0.00  0.00    +0.173 C 
BRANCH  19  20
ATOM     20  S   UNL     1       7.036  -0.958  -2.549  0.00  0.00    -0.077 S 
BRANCH  20  23
ATOM     21  C   UNL     1       3.423  -1.769  -1.257  0.00  0.00    +0.097 A 
ATOM     22  N   UNL     1       4.460  -1.296  -1.942  0.00  0.00    -0.220 NA
ATOM     23  C   UNL     1       5.701  -1.615  -1.605  0.00  0.00    +0.193 A 
ATOM     24  N   UNL     1       5.972  -2.413  -0.580  0.00  0.00    -0.182 NA
ATOM     25  C   UNL     1       5.001  -2.931   0.158  0.00  0.00    +0.292 A 
ATOM     26  O   UNL     1       5.289  -3.744   1.201  0.00  0.00    -0.264 OA
ATOM     27  C   UNL     1       3.664  -2.616  -0.156  0.00  0.00    +0.144 A 
BRANCH  21  31
ATOM     28  C   UNL     1      -0.549  -0.730  -2.358  0.00  0.00    +0.000 A 
ATOM     29  C   UNL     1       0.471   0.193  -2.505  0.00  0.00    +0.001 A 
ATOM     30  C   UNL     1       1.762  -0.138  -2.149  0.00  0.00    +0.010 A 
ATOM     31  C   UNL     1       2.039  -1.407  -1.641  0.00  0.00    +0.002 A 
ATOM     32  C   UNL     1       1.007  -2.333  -1.495  0.00  0.00    +0.010 A 
ATOM     33  C   UNL     1      -0.281  -1.991  -1.854  0.00  0.00    +0.001 A 
ENDBRANCH  21  31
BRANCH  27  34
ATOM     34  C   UNL     1       2.581  -3.146   0.617  0.00  0.00    +0.107 C 
ATOM     35  N   UNL     1       1.722  -3.566   1.230  0.00  0.00    -0.191 NA
ENDBRANCH  27  34
ENDBRANCH  20  23
ENDBRANCH  19  20
ENDBRANCH   1  19
TORSDOF 7
