REMARK  Name = ZINC64870804
REMARK  10 active torsions:
REMARK  status: ('A' for Active; 'I' for Inactive)
REMARK    1  A    between atoms: C_1  and  C_2
REMARK    2  A    between atoms: C_2  and  C_3
REMARK    3  A    between atoms: C_2  and  O_4
REMARK    4  A    between atoms: O_4  and  C_5
REMARK    5  A    between atoms: C_8  and  C_11
REMARK    6  A    between atoms: C_14  and  C_18
REMARK    7  A    between atoms: N_28  and  C_31
REMARK    8  A    between atoms: C_31  and  C_32
REMARK    9  A    between atoms: C_32  and  C_33
REMARK   10  A    between atoms: C_33  and  C_34
REMARK                            x       y       z     vdW  Elec       q    Type
REMARK                         _______ _______ _______ _____ _____    ______ ____
ROOT
ATOM      1  C   UNL     1      -3.507  -8.771  -0.402  0.00  0.00    -0.000 A 
ATOM      2  C   UNL     1      -3.975  -8.050   0.685  0.00  0.00    +0.008 A 
ATOM      3  C   UNL     1      -4.547  -8.698   1.760  0.00  0.00    +0.016 A 
ATOM      4  C   UNL     1      -4.653 -10.087   1.746  0.00  0.00    +0.063 A 
ATOM      5  C   UNL     1      -4.178 -10.818   0.643  0.00  0.00    +0.056 A 
ATOM      6  C   UNL     1      -3.611 -10.148  -0.431  0.00  0.00    +0.034 A 
ATOM      7  N   UNL     1      -4.297 -12.200   0.656  0.00  0.00    -0.307 N 
ATOM      8  H   UNL     1      -3.974 -12.717  -0.098  0.00  0.00    +0.170 HD
ATOM      9  C   UNL     1      -4.856 -12.829   1.705  0.00  0.00    +0.330 A 
ATOM     10  O   UNL     1      -4.941 -14.041   1.678  0.00  0.00    -0.246 OA
ATOM     11  N   UNL     1      -5.323 -12.176   2.780  0.00  0.00    -0.261 N 
ATOM     12  C   UNL     1      -5.256 -10.830   2.867  0.00  0.00    +0.264 A 
ATOM     13  O   UNL     1      -5.682 -10.246   3.845  0.00  0.00    -0.267 OA
ENDROOT
BRANCH   1  16
ATOM     14  C   UNL     1      -1.100  -6.670  -2.194  0.00  0.00    +0.180 C 
ATOM     15  N   UNL     1      -2.066  -6.899  -1.094  0.00  0.00    -0.265 NA
ATOM     16  C   UNL     1      -2.885  -8.046  -1.567  0.00  0.00    +0.242 C 
ATOM     17  O   UNL     1      -1.922  -8.887  -2.241  0.00  0.00    -0.274 OA
ATOM     18  N   UNL     1      -1.016  -7.949  -2.931  0.00  0.00    -0.177 NA
ATOM     19  H   UNL     1      -1.588  -7.127  -0.235  0.00  0.00    +0.127 HD
ATOM     20  H   UNL     1      -1.286  -7.829  -3.896  0.00  0.00    +0.156 HD
BRANCH  14  24
ATOM     21  C   UNL     1       2.727  -5.629  -0.605  0.00  0.00    +0.121 A 
ATOM     22  C   UNL     1       2.638  -6.320  -1.804  0.00  0.00    +0.046 A 
ATOM     23  C   UNL     1       1.399  -6.656  -2.316  0.00  0.00    +0.010 A 
ATOM     24  C   UNL     1       0.249  -6.303  -1.634  0.00  0.00    -0.014 A 
ATOM     25  C   UNL     1       0.336  -5.614  -0.438  0.00  0.00    +0.010 A 
ATOM     26  C   UNL     1       1.572  -5.282   0.081  0.00  0.00    +0.046 A 
BRANCH  21  27
ATOM     27  O   UNL     1       3.945  -5.298  -0.099  0.00  0.00    -0.489 OA
BRANCH  27  29
ATOM     28  C   UNL     1       5.319  -4.965   1.861  0.00  0.00    +0.051 C 
ATOM     29  C   UNL     1       3.967  -4.696   1.196  0.00  0.00    +0.167 C 
ATOM     30  C   UNL     1       3.757  -3.186   1.061  0.00  0.00    +0.051 C 
ENDBRANCH  27  29
ENDBRANCH  21  27
ENDBRANCH  14  24
ENDBRANCH   1  16
BRANCH  11  31
ATOM     31  C   UNL     1      -5.918 -12.938   3.881  0.00  0.00    +0.130 C 
BRANCH  31  32
ATOM     32  C   UNL     1      -4.830 -13.309   4.891  0.00  0.00    +0.026 C 
BRANCH  32  33
ATOM     33  C   UNL     1      -5.451 -14.105   6.040  0.00  0.00    +0.037 C 
BRANCH  33  34
ATOM     34  C   UNL     1      -4.379 -14.470   7.035  0.00  0.00    -0.047 A 
ATOM     35  C   UNL     1      -3.679 -15.653   6.894  0.00  0.00    +0.003 A 
ATOM     36  C   UNL     1      -2.696 -15.988   7.806  0.00  0.00    +0.000 A 
ATOM     37  C   UNL     1      -2.413 -15.139   8.860  0.00  0.00    +0.000 A 
ATOM     38  C   UNL     1      -3.113 -13.955   9.001  0.00  0.00    +0.000 A 
ATOM     39  C   UNL     1      -4.093 -13.618   8.086  0.00  0.00    +0.003 A 
ENDBRANCH  33  34
ENDBRANCH  32  33
ENDBRANCH  31  32
ENDBRANCH  11  31
TORSDOF 8
