REMARK  Name = ZINC18163128
REMARK  5 active torsions:
REMARK  status: ('A' for Active; 'I' for Inactive)
REMARK    1  A    between atoms: C_1  and  C_2
REMARK    2  A    between atoms: C_6  and  S_9
REMARK    3  A    between atoms: S_9  and  C_10
REMARK    4  A    between atoms: C_10  and  C_11
REMARK    5  A    between atoms: N_15  and  C_16
REMARK                            x       y       z     vdW  Elec       q    Type
REMARK                         _______ _______ _______ _____ _____    ______ ____
ROOT
ATOM      1  C   UNL     1      -5.533   3.523   5.181  0.00  0.00    +0.167 A 
ATOM      2  N   UNL     1      -5.825   4.766   5.464  0.00  0.00    -0.112 NA
ATOM      3  N   UNL     1      -6.747   4.823   6.356  0.00  0.00    -0.023 NA
ATOM      4  N   UNL     1      -7.105   3.634   6.703  0.00  0.00    -0.039 NA
ATOM      5  N   UNL     1      -6.328   2.741   5.943  0.00  0.00    -0.196 N 
ENDROOT
BRANCH   5   6
ATOM      6  C   UNL     1      -6.369   1.339   5.973  0.00  0.00    +0.069 A 
ATOM      7  C   UNL     1      -7.589   0.680   6.028  0.00  0.00    +0.029 A 
ATOM      8  C   UNL     1      -7.626  -0.701   6.051  0.00  0.00    +0.017 A 
ATOM      9  C   UNL     1      -6.448  -1.426   6.030  0.00  0.00    +0.018 A 
ATOM     10  C   UNL     1      -5.230  -0.771   5.981  0.00  0.00    +0.017 A 
ATOM     11  C   UNL     1      -5.188   0.610   5.952  0.00  0.00    +0.029 A 
ATOM     12 BR   UNL     1      -6.502  -3.316   6.070  0.00  0.00    -0.050 Br
ENDBRANCH   5   6
BRANCH   1  13
ATOM     13  C   UNL     1      -4.505   3.051   4.186  0.00  0.00    +0.155 C 
BRANCH  13  14
ATOM     14  S   UNL     1      -2.873   3.031   4.967  0.00  0.00    -0.076 S 
BRANCH  14  20
ATOM     15  C   UNL     1       0.263   1.093   0.311  0.00  0.00    +0.073 C 
ATOM     16  C   UNL     1      -0.500   1.586   1.514  0.00  0.00    +0.126 A 
ATOM     17  C   UNL     1       0.175   1.852   2.725  0.00  0.00    +0.295 A 
ATOM     18  O   UNL     1       1.380   1.688   2.820  0.00  0.00    -0.264 OA
ATOM     19  N   UNL     1      -0.551   2.293   3.778  0.00  0.00    -0.180 NA
ATOM     20  C   UNL     1      -1.895   2.458   3.618  0.00  0.00    +0.213 A 
ATOM     21  N   UNL     1      -2.469   2.192   2.457  0.00  0.00    -0.122 NA
ATOM     22  N   UNL     1      -1.796   1.777   1.444  0.00  0.00    -0.146 NA
ENDBRANCH  14  20
ENDBRANCH  13  14
ENDBRANCH   1  13
TORSDOF 4
