REMARK  Name = ZINC45536270
REMARK  9 active torsions:
REMARK  status: ('A' for Active; 'I' for Inactive)
REMARK    1  A    between atoms: C_1  and  C_2
REMARK    2  A    between atoms: C_7  and  C_8
REMARK    3  A    between atoms: N_10  and  C_11
REMARK    4  A    between atoms: C_11  and  C_13
REMARK    5  A    between atoms: C_11  and  C_17
REMARK    6  A    between atoms: C_13  and  C_14
REMARK    7  A    between atoms: C_14  and  C_15
REMARK    8  A    between atoms: C_14  and  C_16
REMARK    9  A    between atoms: C_22  and  N_25
REMARK                            x       y       z     vdW  Elec       q    Type
REMARK                         _______ _______ _______ _____ _____    ______ ____
ROOT
ATOM      1  C   UNL     1       0.245  -0.915   5.986  0.00  0.00    +0.236 C 
ATOM      2  O   UNL     1       0.187  -2.102   5.739  0.00  0.00    -0.274 OA
ATOM      3  N   UNL     1       0.011  -0.475   7.237  0.00  0.00    -0.300 N 
ATOM      4  C   UNL     1      -0.037   0.965   7.528  0.00  0.00    +0.110 C 
ATOM      5  C   UNL     1      -1.357   1.281   8.237  0.00  0.00    +0.044 C 
ATOM      6  C   UNL     1      -1.496   0.386   9.471  0.00  0.00    +0.095 C 
ATOM      7  C   UNL     1      -1.520  -1.082   9.038  0.00  0.00    +0.044 C 
ATOM      8  C   UNL     1      -0.207  -1.425   8.337  0.00  0.00    +0.110 C 
ENDROOT
BRANCH   6   9
ATOM      9  N   UNL     1      -2.743   0.709  10.170  0.00  0.00    -0.289 N 
ATOM     10  C   UNL     1      -2.847   1.165  11.482  0.00  0.00    +0.070 A 
ATOM     11  C   UNL     1      -1.914   1.442  12.469  0.00  0.00    +0.028 A 
ATOM     12  C   UNL     1      -2.334   1.894  13.705  0.00  0.00    +0.002 A 
ATOM     13  C   UNL     1      -3.683   2.071  13.961  0.00  0.00    +0.002 A 
ATOM     14  C   UNL     1      -4.620   1.798  12.984  0.00  0.00    +0.028 A 
ATOM     15  C   UNL     1      -4.207   1.345  11.740  0.00  0.00    +0.067 A 
ATOM     16  N   UNL     1      -4.888   0.991  10.577  0.00  0.00    -0.306 N 
ATOM     17  H   UNL     1      -5.849   1.012  10.454  0.00  0.00    +0.170 HD
ATOM     18  C   UNL     1      -3.982   0.620   9.652  0.00  0.00    +0.328 A 
ATOM     19  O   UNL     1      -4.245   0.255   8.521  0.00  0.00    -0.247 OA
ENDBRANCH   6   9
BRANCH   1  20
ATOM     20  C   UNL     1       0.580   0.066   4.892  0.00  0.00    +0.160 C 
BRANCH  20  23
ATOM     21  C   UNL     1       0.173   0.156   2.491  0.00  0.00    +0.245 C 
ATOM     22  O   UNL     1       0.071   1.364   2.583  0.00  0.00    -0.270 OA
ATOM     23  N   UNL     1       0.427  -0.585   3.588  0.00  0.00    -0.300 N 
ATOM     24  H   UNL     1       0.507  -1.549   3.515  0.00  0.00    +0.150 HD
BRANCH  21  31
ATOM     25  C   UNL     1      -0.193   1.772   0.120  0.00  0.00    +0.044 C 
ATOM     26  C   UNL     1      -0.159   0.269   0.025  0.00  0.00    -0.038 A 
ATOM     27  C   UNL     1      -0.298  -0.350  -1.200  0.00  0.00    +0.004 A 
ATOM     28  C   UNL     1      -0.267  -1.730  -1.289  0.00  0.00    +0.000 A 
ATOM     29  C   UNL     1      -0.097  -2.499  -0.151  0.00  0.00    +0.001 A 
ATOM     30  C   UNL     1       0.043  -1.893   1.080  0.00  0.00    +0.013 A 
ATOM     31  C   UNL     1       0.018  -0.501   1.176  0.00  0.00    +0.040 A 
ENDBRANCH  21  31
ENDBRANCH  20  23
BRANCH  20  32
ATOM     32  C   UNL     1       2.025   0.541   5.058  0.00  0.00    +0.034 C 
BRANCH  32  33
ATOM     33  C   UNL     1       2.314   1.657   4.052  0.00  0.00    -0.015 C 
ATOM     34  C   UNL     1       1.448   2.874   4.378  0.00  0.00    +0.007 C 
ATOM     35  C   UNL     1       3.792   2.045   4.131  0.00  0.00    +0.007 C 
ENDBRANCH  32  33
ENDBRANCH  20  32
ENDBRANCH   1  20
TORSDOF 6
