REMARK  Name = ZINC36371103
REMARK  8 active torsions:
REMARK  status: ('A' for Active; 'I' for Inactive)
REMARK    1  A    between atoms: C_1  and  C_2
REMARK    2  A    between atoms: C_16  and  O_36
REMARK    3  A    between atoms: C_19  and  C_35
REMARK    4  A    between atoms: C_25  and  C_31
REMARK    5  A    between atoms: C_27  and  C_29
REMARK    6  A    between atoms: C_27  and  C_30
REMARK    7  A    between atoms: C_31  and  C_33
REMARK    8  A    between atoms: C_33  and  O_34
REMARK                            x       y       z     vdW  Elec       q    Type
REMARK                         _______ _______ _______ _____ _____    ______ ____
ROOT
ATOM      1  C   UNL     1      -0.081   1.810  -0.445  0.00  0.00    +0.016 C 
ATOM      2  C   UNL     1      -0.058   0.278  -0.294  0.00  0.00    -0.002 C 
ATOM      3  C   UNL     1      -1.490  -0.245  -0.307  0.00  0.00    +0.019 C 
ATOM      4  C   UNL     1      -2.278   0.314   0.883  0.00  0.00    +0.080 C 
ATOM      5  C   UNL     1      -1.556  -0.045   2.158  0.00  0.00    +0.156 C 
ATOM      6  O   UNL     1      -2.177  -0.200   3.188  0.00  0.00    -0.293 OA
ATOM      7  C   UNL     1      -0.104  -0.206   2.142  0.00  0.00    +0.049 C 
ATOM      8  C   UNL     1       0.595  -0.055   1.023  0.00  0.00    -0.027 C 
ATOM      9  C   UNL     1       2.095  -0.205   1.040  0.00  0.00    +0.193 C 
ATOM     10  C   UNL     1       2.496  -1.347   0.125  0.00  0.00    +0.045 C 
ATOM     11  C   UNL     1       1.556  -1.545  -1.062  0.00  0.00    +0.002 C 
ATOM     12  C   UNL     1       0.771  -0.303  -1.437  0.00  0.00    +0.031 C 
ATOM     13  C   UNL     1      -0.126  -0.606  -2.638  0.00  0.00    +0.119 C 
ATOM     14  C   UNL     1       0.717  -1.008  -3.841  0.00  0.00    +0.042 C 
ATOM     15  C   UNL     1       1.720  -2.099  -3.564  0.00  0.00    +0.012 C 
ATOM     16  C   UNL     1       2.463  -1.954  -2.237  0.00  0.00    +0.004 C 
ATOM     17  C   UNL     1       2.991  -3.380  -1.940  0.00  0.00    +0.039 C 
ATOM     18  C   UNL     1       1.979  -4.343  -2.586  0.00  0.00    +0.162 C 
ATOM     19  C   UNL     1       1.186  -3.528  -3.640  0.00  0.00    +0.164 C 
ATOM     20  O   UNL     1      -0.182  -3.624  -3.227  0.00  0.00    -0.332 OA
ATOM     21  C   UNL     1      -0.262  -4.718  -2.294  0.00  0.00    +0.166 C 
ATOM     22  O   UNL     1       1.002  -4.725  -1.600  0.00  0.00    -0.343 OA
ATOM     23  C   UNL     1      -0.484  -6.049  -3.018  0.00  0.00    +0.074 C 
ATOM     24  C   UNL     1      -1.402  -4.489  -1.294  0.00  0.00    +0.074 C 
ATOM     25  C   UNL     1       2.794  -1.980  -4.679  0.00  0.00    +0.015 C 
ATOM     26  F   UNL     1       2.523  -0.478   2.345  0.00  0.00    -0.241 F 
ENDROOT
BRANCH  19  27
ATOM     27  C   UNL     1       1.388  -4.092  -5.034  0.00  0.00    +0.193 C 
ATOM     28  O   UNL     1       2.385  -4.723  -5.291  0.00  0.00    -0.292 OA
BRANCH  27  29
ATOM     29  C   UNL     1       0.343  -3.866  -6.096  0.00  0.00    +0.233 C 
BRANCH  29  30
ATOM     30  O   UNL     1       0.811  -4.387  -7.342  0.00  0.00    -0.387 OA
ATOM     31  H   UNL     1       0.188  -4.276  -8.073  0.00  0.00    +0.210 HD
ENDBRANCH  29  30
ENDBRANCH  27  29
ENDBRANCH  19  27
BRANCH  13  32
ATOM     32  O   UNL     1      -1.068  -1.634  -2.353  0.00  0.00    -0.391 OA
ATOM     33  H   UNL     1      -1.651  -1.849  -3.094  0.00  0.00    +0.210 HD
ENDBRANCH  13  32
TORSDOF 4
