REMARK  Name = ZINC23371603
REMARK  12 active torsions:
REMARK  status: ('A' for Active; 'I' for Inactive)
REMARK    1  A    between atoms: C_1  and  C_2
REMARK    2  A    between atoms: C_3  and  C_39
REMARK    3  A    between atoms: N_4  and  C_32
REMARK    4  A    between atoms: C_5  and  N_9
REMARK    5  A    between atoms: C_6  and  C_7
REMARK    6  A    between atoms: C_10  and  C_12
REMARK    7  A    between atoms: C_12  and  N_13
REMARK    8  A    between atoms: N_16  and  C_19
REMARK    9  A    between atoms: C_19  and  C_20
REMARK   10  A    between atoms: C_24  and  C_31
REMARK   11  A    between atoms: C_27  and  C_30
REMARK   12  A    between atoms: C_32  and  C_33
REMARK                            x       y       z     vdW  Elec       q    Type
REMARK                         _______ _______ _______ _____ _____    ______ ____
ROOT
ATOM      1  N   UNL     1      -1.425  -0.856  -2.556  0.00  0.00    -0.270 N 
ATOM      2  C   UNL     1      -2.208  -0.418  -1.551  0.00  0.00    +0.232 C 
ATOM      3  O   UNL     1      -2.207   0.757  -1.249  0.00  0.00    -0.274 OA
ATOM      4  H   UNL     1      -1.437  -1.919  -2.840  0.00  0.00    +0.156 HD
ENDROOT
BRANCH   1   9
ATOM      5  C   UNL     1       2.142   2.539  -3.692  0.00  0.00    +0.047 C 
ATOM      6  C   UNL     1       0.996   1.565  -3.780  0.00  0.00    -0.011 A 
ATOM      7  C   UNL     1       0.303   1.240  -4.884  0.00  0.00    +0.022 A 
ATOM      8  N   UNL     1      -0.662   0.324  -4.559  0.00  0.00    -0.329 N 
ATOM      9  C   UNL     1      -0.603   0.033  -3.234  0.00  0.00    +0.123 A 
ATOM     10  C   UNL     1       0.424   0.783  -2.678  0.00  0.00    +0.095 A 
ATOM     11  C   UNL     1       0.547   1.797  -6.262  0.00  0.00    +0.064 C 
BRANCH  10  12
ATOM     12  C   UNL     1       0.840   0.792  -1.307  0.00  0.00    +0.103 C 
ATOM     13  N   UNL     1       1.170   0.799  -0.220  0.00  0.00    -0.191 NA
ENDBRANCH  10  12
BRANCH   8  14
ATOM     14  C   UNL     1      -1.615  -0.262  -5.505  0.00  0.00    +0.154 C 
BRANCH  14  15
ATOM     15  C   UNL     1      -2.870   0.611  -5.570  0.00  0.00    +0.138 C 
ATOM     16  C   UNL     1      -3.912  -0.036  -6.507  0.00  0.00    +0.035 C 
ATOM     17  C   UNL     1      -4.504   1.196  -7.243  0.00  0.00    +0.031 C 
ATOM     18  C   UNL     1      -3.256   2.110  -7.338  0.00  0.00    +0.160 C 
ATOM     19  O   UNL     1      -2.542   1.896  -6.110  0.00  0.00    -0.375 OA
ENDBRANCH  14  15
ENDBRANCH   8  14
ENDBRANCH   1   9
BRANCH   2  20
ATOM     20  C   UNL     1      -3.084  -1.388  -0.801  0.00  0.00    +0.180 C 
BRANCH  20  21
ATOM     21  N   UNL     1      -3.730  -0.696   0.323  0.00  0.00    -0.298 NA
ATOM     22  C   UNL     1      -2.769  -0.436   1.404  0.00  0.00    +0.066 C 
ATOM     23  C   UNL     1      -3.459   0.354   2.518  0.00  0.00    -0.063 C 
ATOM     24  N   UNL     1      -4.612  -0.411   3.015  0.00  0.00    +0.387 N 
ATOM     25  C   UNL     1      -5.573  -0.671   1.934  0.00  0.00    -0.063 C 
ATOM     26  C   UNL     1      -4.882  -1.461   0.820  0.00  0.00    +0.066 C 
ATOM     27  H   UNL     1      -4.243  -1.380   3.382  0.00  0.00    -0.081 HD
BRANCH  24  28
ATOM     28  C   UNL     1      -5.257   0.281   4.138  0.00  0.00    +0.019 C 
BRANCH  28  29
ATOM     29  C   UNL     1      -4.317   0.312   5.316  0.00  0.00    +0.199 C 
ATOM     30  O   UNL     1      -3.218  -0.192   5.228  0.00  0.00    -0.278 OA
ATOM     31  N   UNL     1      -4.699   0.900   6.467  0.00  0.00    -0.303 N 
ATOM     32  C   UNL     1      -6.025   1.521   6.587  0.00  0.00    +0.111 C 
ATOM     33  C   UNL     1      -6.731   0.930   7.817  0.00  0.00    +0.004 C 
ATOM     34  C   UNL     1      -5.839   1.112   9.047  0.00  0.00    +0.009 C 
ATOM     35  C   UNL     1      -4.523   0.359   8.840  0.00  0.00    +0.004 C 
ATOM     36  C   UNL     1      -3.793   0.939   7.624  0.00  0.00    +0.111 C 
ATOM     37  C   UNL     1      -4.814  -1.124   8.602  0.00  0.00    +0.009 C 
ATOM     38  C   UNL     1      -8.060   1.655   8.038  0.00  0.00    +0.009 C 
ENDBRANCH  28  29
ENDBRANCH  24  28
ENDBRANCH  20  21
ENDBRANCH   2  20
TORSDOF 8
