REMARK  Name = ZINC05492717
REMARK  10 active torsions:
REMARK  status: ('A' for Active; 'I' for Inactive)
REMARK    1  A    between atoms: C_1  and  C_2
REMARK    2  A    between atoms: C_4  and  O_40
REMARK    3  A    between atoms: C_6  and  N_65
REMARK    4  A    between atoms: C_9  and  O_12
REMARK    5  A    between atoms: O_12  and  C_13
REMARK    6  A    between atoms: C_16  and  C_36
REMARK    7  A    between atoms: C_16  and  C_37
REMARK    8  A    between atoms: C_20  and  O_35
REMARK    9  A    between atoms: C_23  and  O_24
REMARK   10  A    between atoms: C_37  and  C_39
REMARK                            x       y       z     vdW  Elec       q    Type
REMARK                         _______ _______ _______ _____ _____    ______ ____
ROOT
ATOM      1  C   UNL     1       2.840   0.738  -1.115  0.00  0.00    +0.156 C 
ATOM      2  C   UNL     1       4.311   0.725  -0.704  0.00  0.00    +0.051 C 
ATOM      3  C   UNL     1       5.157   0.436  -1.950  0.00  0.00    +0.033 C 
ATOM      4  C   UNL     1       5.087   1.652  -2.870  0.00  0.00    +0.053 C 
ATOM      5  C   UNL     1       3.655   2.058  -3.108  0.00  0.00    +0.005 A 
ATOM      6  C   UNL     1       2.627   1.645  -2.299  0.00  0.00    +0.030 A 
ATOM      7  C   UNL     1       1.315   2.066  -2.559  0.00  0.00    +0.134 A 
ATOM      8  C   UNL     1       1.041   2.901  -3.640  0.00  0.00    +0.078 A 
ATOM      9  C   UNL     1       2.097   3.322  -4.474  0.00  0.00    +0.078 A 
ATOM     10  C   UNL     1       3.395   2.896  -4.201  0.00  0.00    +0.132 A 
ATOM     11  C   UNL     1       1.824   4.205  -5.622  0.00  0.00    +0.198 C 
ATOM     12  O   UNL     1       2.734   4.568  -6.341  0.00  0.00    -0.286 OA
ATOM     13  C   UNL     1       0.441   4.647  -5.898  0.00  0.00    +0.033 A 
ATOM     14  C   UNL     1       0.173   5.480  -6.981  0.00  0.00    +0.012 A 
ATOM     15  C   UNL     1      -1.125   5.889  -7.232  0.00  0.00    +0.001 A 
ATOM     16  C   UNL     1      -2.160   5.475  -6.413  0.00  0.00    +0.001 A 
ATOM     17  C   UNL     1      -1.912   4.648  -5.333  0.00  0.00    +0.012 A 
ATOM     18  C   UNL     1      -0.612   4.227  -5.066  0.00  0.00    +0.033 A 
ATOM     19  C   UNL     1      -0.337   3.343  -3.914  0.00  0.00    +0.198 C 
ATOM     20  O   UNL     1      -1.247   2.980  -3.194  0.00  0.00    -0.286 OA
ATOM     21  C   UNL     1       6.609   0.182  -1.541  0.00  0.00    +0.019 C 
ENDROOT
BRANCH   3  22
ATOM     22  C   UNL     1       4.612  -0.774  -2.666  0.00  0.00    +0.137 C 
ATOM     23  O   UNL     1       4.296  -0.696  -3.829  0.00  0.00    -0.297 OA
ATOM     24  C   UNL     1       4.460  -2.080  -1.929  0.00  0.00    +0.086 C 
ENDBRANCH   3  22
BRANCH  10  25
ATOM     25  O   UNL     1       4.416   3.296  -4.999  0.00  0.00    -0.506 OA
ATOM     26  H   UNL     1       4.836   4.120  -4.718  0.00  0.00    +0.292 HD
ENDBRANCH  10  25
BRANCH   7  27
ATOM     27  O   UNL     1       0.305   1.657  -1.753  0.00  0.00    -0.506 OA
ATOM     28  H   UNL     1       0.083   2.284  -1.051  0.00  0.00    +0.292 HD
ENDBRANCH   7  27
BRANCH   1  29
ATOM     29  O   UNL     1       2.050   1.200  -0.018  0.00  0.00    -0.343 OA
BRANCH  29  35
ATOM     30  C   UNL     1      -0.714  -2.632   0.399  0.00  0.00    +0.040 C 
ATOM     31  C   UNL     1       0.299  -1.766   1.149  0.00  0.00    +0.145 C 
ATOM     32  C   UNL     1      -0.349  -1.206   2.418  0.00  0.00    +0.129 C 
ATOM     33  C   UNL     1       0.651  -0.292   3.132  0.00  0.00    -0.039 C 
ATOM     34  C   UNL     1       1.094   0.814   2.169  0.00  0.00    +0.048 C 
ATOM     35  C   UNL     1       1.686   0.176   0.909  0.00  0.00    +0.250 C 
ATOM     36  O   UNL     1       0.715  -0.685   0.312  0.00  0.00    -0.346 OA
BRANCH  33  39
ATOM     37  H   UNL     1       0.654   0.917   4.799  0.00  0.00    -0.090 HD
ATOM     38  H   UNL     1      -0.829   0.803   4.054  0.00  0.00    -0.090 HD
ATOM     39  N   UNL     1       0.008   0.289   4.324  0.00  0.00    +0.382 N 
ATOM     40  H   UNL     1      -0.257  -0.467   4.967  0.00  0.00    -0.090 HD
ENDBRANCH  33  39
BRANCH  32  41
ATOM     41  O   UNL     1      -0.715  -2.283   3.283  0.00  0.00    -0.391 OA
ATOM     42  H   UNL     1      -1.344  -2.905   2.892  0.00  0.00    +0.210 HD
ENDBRANCH  32  41
ENDBRANCH  29  35
ENDBRANCH   1  29
TORSDOF 7
