REMARK  Name = ZINC34740692
REMARK  13 active torsions:
REMARK  status: ('A' for Active; 'I' for Inactive)
REMARK    1  A    between atoms: C_1  and  C_2
REMARK    2  A    between atoms: C_5  and  C_8
REMARK    3  A    between atoms: C_8  and  N_9
REMARK    4  A    between atoms: C_11  and  C_23
REMARK    5  A    between atoms: C_13  and  C_16
REMARK    6  A    between atoms: C_23  and  N_24
REMARK    7  A    between atoms: N_24  and  C_25
REMARK    8  A    between atoms: C_25  and  C_26
REMARK    9  A    between atoms: C_26  and  C_27
REMARK   10  A    between atoms: C_26  and  C_28
REMARK   11  A    between atoms: C_29  and  C_31
REMARK   12  A    between atoms: C_31  and  C_32
REMARK   13  A    between atoms: C_31  and  C_33
REMARK                            x       y       z     vdW  Elec       q    Type
REMARK                         _______ _______ _______ _____ _____    ______ ____
ROOT
ATOM      1  N   UNL     1      -1.542  -4.216   4.075  0.00  0.00    +0.383 N 
ATOM      2  C   UNL     1      -1.154  -5.319   3.159  0.00  0.00    -0.073 C 
ATOM      3  C   UNL     1      -0.011  -6.052   3.894  0.00  0.00    -0.005 C 
ATOM      4  C   UNL     1      -0.222  -5.727   5.387  0.00  0.00    +0.005 C 
ATOM      5  C   UNL     1      -1.474  -4.825   5.428  0.00  0.00    -0.070 C 
ATOM      6  H   UNL     1      -0.891  -3.448   4.000  0.00  0.00    -0.081 HD
ENDROOT
BRANCH   4   7
ATOM      7  C   UNL     1      -0.460  -6.992   6.170  0.00  0.00    -0.046 A 
ATOM      8  C   UNL     1      -1.654  -7.675   6.033  0.00  0.00    +0.006 A 
ATOM      9  C   UNL     1      -1.873  -8.836   6.751  0.00  0.00    +0.038 A 
ATOM     10  C   UNL     1      -0.896  -9.315   7.607  0.00  0.00    +0.123 A 
ATOM     11  C   UNL     1       0.299  -8.630   7.743  0.00  0.00    +0.038 A 
ATOM     12  C   UNL     1       0.518  -7.472   7.021  0.00  0.00    +0.006 A 
ATOM     13  F   UNL     1      -1.109 -10.449   8.309  0.00  0.00    -0.205 F 
ENDBRANCH   4   7
BRANCH   1  14
ATOM     14  C   UNL     1      -2.908  -3.762   3.783  0.00  0.00    -0.043 C 
BRANCH  14  19
ATOM     15  C   UNL     1      -4.288   0.600   7.313  0.00  0.00    +0.044 C 
ATOM     16  C   UNL     1      -3.928  -0.538   6.393  0.00  0.00    -0.050 A 
ATOM     17  C   UNL     1      -3.332  -0.278   5.173  0.00  0.00    +0.003 A 
ATOM     18  C   UNL     1      -3.002  -1.321   4.328  0.00  0.00    +0.002 A 
ATOM     19  C   UNL     1      -3.267  -2.625   4.704  0.00  0.00    -0.064 A 
ATOM     20  C   UNL     1      -3.862  -2.885   5.924  0.00  0.00    +0.002 A 
ATOM     21  C   UNL     1      -4.189  -1.842   6.771  0.00  0.00    +0.003 A 
ENDBRANCH  14  19
ENDBRANCH   1  14
BRANCH   3  22
ATOM     22  C   UNL     1      -0.109  -7.561   3.658  0.00  0.00    +0.110 C 
BRANCH  22  23
ATOM     23  N   UNL     1       0.123  -7.849   2.240  0.00  0.00    -0.301 N 
ATOM     24  C   UNL     1      -0.914  -7.875   1.380  0.00  0.00    +0.218 C 
ATOM     25  O   UNL     1      -2.049  -7.773   1.795  0.00  0.00    -0.275 OA
BRANCH  24  26
ATOM     26  C   UNL     1      -0.663  -8.031  -0.098  0.00  0.00    +0.069 C 
ATOM     27  C   UNL     1      -0.760  -9.510  -0.478  0.00  0.00    +0.017 C 
ATOM     28  C   UNL     1      -1.708  -7.233  -0.880  0.00  0.00    +0.017 C 
ENDBRANCH  24  26
BRANCH  23  29
ATOM     29  C   UNL     1       1.482  -8.109   1.758  0.00  0.00    +0.110 C 
BRANCH  29  30
ATOM     30  C   UNL     1       2.089  -9.271   2.546  0.00  0.00    +0.000 C 
ATOM     31  C   UNL     1       1.222 -10.518   2.365  0.00  0.00    +0.009 C 
ATOM     32  C   UNL     1       3.502  -9.553   2.032  0.00  0.00    +0.009 C 
ENDBRANCH  29  30
ENDBRANCH  23  29
ENDBRANCH  22  23
ENDBRANCH   3  22
TORSDOF 8
