REMARK  Name = ZINC36207511
REMARK  15 active torsions:
REMARK  status: ('A' for Active; 'I' for Inactive)
REMARK    1  A    between atoms: C_1  and  C_2
REMARK    2  A    between atoms: C_8  and  C_17
REMARK    3  A    between atoms: C_12  and  C_13
REMARK    4  A    between atoms: C_13  and  O_15
REMARK    5  A    between atoms: O_15  and  C_16
REMARK    6  A    between atoms: C_17  and  N_18
REMARK    7  A    between atoms: N_18  and  C_19
REMARK    8  A    between atoms: N_18  and  C_25
REMARK    9  A    between atoms: C_19  and  C_20
REMARK   10  A    between atoms: C_25  and  C_26
REMARK   11  A    between atoms: C_26  and  C_28
REMARK   12  A    between atoms: C_26  and  O_36
REMARK   13  A    between atoms: C_28  and  O_29
REMARK   14  A    between atoms: O_29  and  C_30
REMARK   15  A    between atoms: C_30  and  C_31
REMARK                            x       y       z     vdW  Elec       q    Type
REMARK                         _______ _______ _______ _____ _____    ______ ____
ROOT
ATOM      1  N   UNL     1      -0.375  -4.787  -4.005  0.00  0.00    +0.391 N 
ATOM      2  H   UNL     1      -1.233  -5.174  -3.641  0.00  0.00    -0.080 HD
ENDROOT
BRANCH   1   3
ATOM      3  C   UNL     1      -0.592  -3.382  -4.377  0.00  0.00    -0.003 C 
BRANCH   3  11
ATOM      4  C   UNL     1      -5.736  -2.017  -8.370  0.00  0.00    +0.046 C 
ATOM      5  C   UNL     1      -5.100  -3.251  -7.782  0.00  0.00    -0.015 A 
ATOM      6  C   UNL     1      -3.983  -3.135  -6.952  0.00  0.00    +0.076 A 
ATOM      7  C   UNL     1      -3.263  -1.916  -6.518  0.00  0.00    +0.260 A 
ATOM      8  O   UNL     1      -3.622  -0.812  -6.888  0.00  0.00    -0.267 OA
ATOM      9  N   UNL     1      -2.198  -2.059  -5.705  0.00  0.00    -0.312 N 
ATOM     10  H   UNL     1      -1.715  -1.271  -5.411  0.00  0.00    +0.170 HD
ATOM     11  C   UNL     1      -1.789  -3.283  -5.287  0.00  0.00    +0.094 A 
ATOM     12  N   UNL     1      -2.402  -4.376  -5.650  0.00  0.00    -0.229 NA
ATOM     13  C   UNL     1      -3.461  -4.348  -6.449  0.00  0.00    +0.116 A 
ATOM     14  S   UNL     1      -4.535  -5.576  -7.148  0.00  0.00    -0.062 S 
ATOM     15  C   UNL     1      -5.619  -4.484  -8.054  0.00  0.00    +0.102 A 
BRANCH  15  16
ATOM     16  C   UNL     1      -6.775  -4.826  -8.884  0.00  0.00    +0.346 C 
ATOM     17  O   UNL     1      -7.408  -3.947  -9.438  0.00  0.00    -0.244 OA
BRANCH  16  18
ATOM     18  O   UNL     1      -7.139  -6.116  -9.036  0.00  0.00    -0.464 OA
ATOM     19  C   UNL     1      -8.277  -6.377  -9.860  0.00  0.00    +0.280 C 
ENDBRANCH  16  18
ENDBRANCH  15  16
ENDBRANCH   3  11
ENDBRANCH   1   3
BRANCH   1  20
ATOM     20  C   UNL     1       0.673  -4.865  -2.979  0.00  0.00    -0.002 C 
BRANCH  20  21
ATOM     21  C   UNL     1       0.224  -4.123  -1.746  0.00  0.00    +0.089 A 
ATOM     22  C   UNL     1      -0.382  -4.669  -0.676  0.00  0.00    +0.042 A 
ATOM     23  C   UNL     1      -0.623  -3.619   0.239  0.00  0.00    +0.041 A 
ATOM     24  C   UNL     1      -0.150  -2.494  -0.327  0.00  0.00    +0.195 A 
ATOM     25  O   UNL     1       0.367  -2.806  -1.526  0.00  0.00    -0.470 OA
ENDBRANCH  20  21
ENDBRANCH   1  20
BRANCH   1  26
ATOM     26  C   UNL     1       0.042  -5.548  -5.190  0.00  0.00    -0.044 C 
BRANCH  26  27
ATOM     27  C   UNL     1       0.091  -7.039  -4.847  0.00  0.00    +0.124 C 
BRANCH  27  28
ATOM     28  O   UNL     1       1.167  -7.284  -3.940  0.00  0.00    -0.391 OA
ATOM     29  H   UNL     1       2.037  -7.043  -4.287  0.00  0.00    +0.210 HD
ENDBRANCH  27  28
BRANCH  27  30
ATOM     30  C   UNL     1       0.307  -7.849  -6.127  0.00  0.00    +0.189 C 
BRANCH  30  31
ATOM     31  O   UNL     1       0.236  -9.244  -5.824  0.00  0.00    -0.370 OA
BRANCH  31  32
ATOM     32  C   UNL     1       0.426 -10.095  -6.957  0.00  0.00    +0.234 C 
BRANCH  32  33
ATOM     33  C   UNL     1       0.332 -11.535  -6.525  0.00  0.00    +0.130 A 
ATOM     34  C   UNL     1      -0.791 -12.275  -6.495  0.00  0.00    +0.047 A 
ATOM     35  C   UNL     1      -0.423 -13.559  -6.029  0.00  0.00    +0.041 A 
ATOM     36  C   UNL     1       0.903 -13.526  -5.802  0.00  0.00    +0.195 A 
ATOM     37  O   UNL     1       1.356 -12.300  -6.110  0.00  0.00    -0.465 OA
ENDBRANCH  32  33
ENDBRANCH  31  32
ENDBRANCH  30  31
ENDBRANCH  27  30
ENDBRANCH  26  27
ENDBRANCH   1  26
TORSDOF 13
