REMARK  Name = ZINC36889130
REMARK  4 active torsions:
REMARK  status: ('A' for Active; 'I' for Inactive)
REMARK    1  A    between atoms: C_1  and  C_2
REMARK    2  A    between atoms: N_8  and  C_9
REMARK    3  A    between atoms: C_12  and  C_19
REMARK    4  A    between atoms: C_13  and  C_15
REMARK                            x       y       z     vdW  Elec       q    Type
REMARK                         _______ _______ _______ _____ _____    ______ ____
ROOT
ATOM      1  C   UNL     1       1.318   0.273   2.079  0.00  0.00    +0.030 A 
ATOM      2  C   UNL     1       1.053   1.630   2.239  0.00  0.00    +0.024 A 
ATOM      3  C   UNL     1       1.542   2.303   3.336  0.00  0.00    +0.013 A 
ATOM      4  C   UNL     1       2.305   1.623   4.288  0.00  0.00    +0.024 A 
ATOM      5  C   UNL     1       2.570   0.261   4.124  0.00  0.00    +0.067 A 
ATOM      6  C   UNL     1       2.074  -0.408   3.028  0.00  0.00    +0.036 A 
ENDROOT
BRANCH   1  13
ATOM      7  C   UNL     1       2.511   0.859  -0.279  0.00  0.00    +0.028 C 
ATOM      8  C   UNL     1       1.330  -0.109  -0.377  0.00  0.00    +0.070 C 
ATOM      9  C   UNL     1       1.791  -1.416  -1.031  0.00  0.00    +0.022 C 
ATOM     10  C   UNL     1       0.644  -2.429  -1.000  0.00  0.00    +0.003 C 
ATOM     11  C   UNL     1       0.261  -2.724   0.452  0.00  0.00    +0.019 C 
ATOM     12  C   UNL     1      -0.217  -1.433   1.123  0.00  0.00    +0.105 C 
ATOM     13  N   UNL     1       0.822  -0.405   0.970  0.00  0.00    -0.327 N 
ENDBRANCH   1  13
BRANCH   4  14
ATOM     14  C   UNL     1       2.832   2.342   5.465  0.00  0.00    +0.095 C 
ATOM     15  N   UNL     1       4.144   2.373   5.696  0.00  0.00    -0.387 N 
ATOM     16  N   UNL     1       1.994   2.961   6.297  0.00  0.00    -0.345 N 
ATOM     17  H   UNL     1       4.760   2.003   5.044  0.00  0.00    +0.157 HD
ATOM     18  H   UNL     1       1.039   2.939   6.130  0.00  0.00    +0.144 HD
ATOM     19  H   UNL     1       2.340   3.434   7.071  0.00  0.00    +0.144 HD
ATOM     20  H   UNL     1       4.484   2.765   6.515  0.00  0.00    +0.157 HD
ENDBRANCH   4  14
BRANCH   5  21
ATOM     21  C   UNL     1       3.393  -0.476   5.149  0.00  0.00    +0.418 C 
ATOM     22  F   UNL     1       3.405  -1.841   4.843  0.00  0.00    -0.166 F 
ATOM     23  F   UNL     1       4.703   0.016   5.136  0.00  0.00    -0.166 F 
ATOM     24  F   UNL     1       2.836  -0.287   6.418  0.00  0.00    -0.166 F 
ENDBRANCH   5  21
TORSDOF 3
