REMARK  Name = ZINC44452820
REMARK  9 active torsions:
REMARK  status: ('A' for Active; 'I' for Inactive)
REMARK    1  A    between atoms: C_1  and  C_2
REMARK    2  A    between atoms: C_2  and  C_3
REMARK    3  A    between atoms: C_2  and  C_4
REMARK    4  A    between atoms: C_2  and  C_5
REMARK    5  A    between atoms: N_7  and  C_8
REMARK    6  A    between atoms: C_9  and  C_18
REMARK    7  A    between atoms: N_20  and  N_21
REMARK    8  A    between atoms: N_21  and  C_22
REMARK    9  A    between atoms: N_21  and  C_23
REMARK                            x       y       z     vdW  Elec       q    Type
REMARK                         _______ _______ _______ _____ _____    ______ ____
ROOT
ATOM      1  C   UNL     1       1.496  -2.259  -2.600  0.00  0.00    +0.084 A 
ATOM      2  C   UNL     1       1.724  -3.567  -2.993  0.00  0.00    +0.070 A 
ATOM      3  C   UNL     1       2.437  -3.776  -4.245  0.00  0.00    -0.023 A 
ATOM      4  C   UNL     1       2.792  -2.634  -4.869  0.00  0.00    -0.004 A 
ATOM      5  S   UNL     1       2.178  -1.340  -3.827  0.00  0.00    -0.077 S 
ATOM      6  C   UNL     1       3.545  -2.490  -6.155  0.00  0.00    +0.043 C 
ATOM      7  C   UNL     1       2.911  -3.401  -7.215  0.00  0.00    +0.005 C 
ATOM      8  C   UNL     1       3.579  -4.770  -7.142  0.00  0.00    +0.001 C 
ATOM      9  C   UNL     1       3.977  -5.088  -5.702  0.00  0.00    +0.005 C 
ATOM     10  C   UNL     1       2.741  -5.156  -4.810  0.00  0.00    +0.037 C 
ENDROOT
BRANCH   1  13
ATOM     11  C   UNL     1       0.707  -0.490  -1.238  0.00  0.00    +0.223 C 
ATOM     12  O   UNL     1       1.150   0.308  -2.036  0.00  0.00    -0.275 OA
ATOM     13  N   UNL     1       0.847  -1.812  -1.460  0.00  0.00    -0.279 N 
ATOM     14  H   UNL     1       0.493  -2.451  -0.821  0.00  0.00    +0.155 HD
BRANCH  11  16
ATOM     15  C   UNL     1      -0.019   1.526   0.010  0.00  0.00    +0.020 C 
ATOM     16  C   UNL     1       0.002  -0.004   0.002  0.00  0.00    +0.039 C 
ATOM     17  C   UNL     1       0.742  -0.511   1.242  0.00  0.00    +0.020 C 
ATOM     18  C   UNL     1      -1.433  -0.534   0.013  0.00  0.00    +0.020 C 
ENDBRANCH  11  16
ENDBRANCH   1  13
BRANCH   2  19
ATOM     19  C   UNL     1       1.268  -4.697  -2.178  0.00  0.00    +0.260 C 
ATOM     20  O   UNL     1       0.162  -5.171  -2.361  0.00  0.00    -0.269 OA
ATOM     21  N   UNL     1       2.073  -5.212  -1.228  0.00  0.00    -0.245 N 
ATOM     22  H   UNL     1       2.954  -4.834  -1.082  0.00  0.00    +0.170 HD
BRANCH  21  23
ATOM     23  N   UNL     1       1.647  -6.265  -0.469  0.00  0.00    -0.233 NA
ATOM     24  C   UNL     1       2.479  -7.453  -0.704  0.00  0.00    +0.127 C 
ATOM     25  C   UNL     1       1.624  -5.912   0.957  0.00  0.00    +0.127 C 
ENDBRANCH  21  23
ENDBRANCH   2  19
TORSDOF 4
