REMARK  Name = ZINC64053791
REMARK  10 active torsions:
REMARK  status: ('A' for Active; 'I' for Inactive)
REMARK    1  A    between atoms: C_1  and  C_2
REMARK    2  A    between atoms: C_2  and  C_3
REMARK    3  A    between atoms: C_2  and  C_4
REMARK    4  A    between atoms: C_2  and  O_33
REMARK    5  A    between atoms: C_5  and  C_6
REMARK    6  A    between atoms: C_9  and  C_11
REMARK    7  A    between atoms: C_11  and  N_12
REMARK    8  A    between atoms: C_16  and  C_19
REMARK    9  A    between atoms: C_19  and  N_20
REMARK   10  A    between atoms: C_21  and  C_23
REMARK                            x       y       z     vdW  Elec       q    Type
REMARK                         _______ _______ _______ _____ _____    ______ ____
ROOT
ATOM      1  N   UNL     1      -7.686  -4.069  -1.324  0.00  0.00    +0.383 N 
ATOM      2  C   UNL     1      -8.199  -2.859  -1.978  0.00  0.00    -0.078 C 
ATOM      3  C   UNL     1      -8.525  -3.164  -3.441  0.00  0.00    -0.018 C 
ATOM      4  C   UNL     1      -9.584  -4.268  -3.503  0.00  0.00    +0.001 C 
ATOM      5  C   UNL     1      -9.067  -5.500  -2.754  0.00  0.00    -0.011 C 
ATOM      6  C   UNL     1      -8.722  -5.108  -1.316  0.00  0.00    -0.073 C 
ATOM      7  H   UNL     1      -6.878  -4.404  -1.828  0.00  0.00    -0.081 HD
ENDROOT
BRANCH   1   8
ATOM      8  C   UNL     1      -7.301  -3.751   0.058  0.00  0.00    -0.036 C 
BRANCH   8  12
ATOM      9  C   UNL     1      -3.824  -1.416   0.031  0.00  0.00    +0.062 A 
ATOM     10  C   UNL     1      -5.003  -0.716   0.040  0.00  0.00    +0.025 A 
ATOM     11  C   UNL     1      -6.188  -1.417   0.049  0.00  0.00    +0.010 A 
ATOM     12  C   UNL     1      -6.154  -2.775   0.049  0.00  0.00    -0.026 A 
ATOM     13  S   UNL     1      -4.399  -3.106   0.027  0.00  0.00    -0.087 S 
BRANCH   9  15
ATOM     14  C   UNL     1      -1.379  -0.514   0.013  0.00  0.00    -0.062 C 
ATOM     15  C   UNL     1      -2.480  -0.920   0.021  0.00  0.00    -0.056 C 
BRANCH  14  17
ATOM     16  C   UNL     1      -0.019   1.526   0.010  0.00  0.00    +0.055 C 
ATOM     17  C   UNL     1       0.002  -0.004   0.002  0.00  0.00    +0.121 C 
ATOM     18  C   UNL     1       0.742  -0.511   1.242  0.00  0.00    +0.055 C 
BRANCH  17  19
ATOM     19  O   UNL     1       0.671  -0.465  -1.174  0.00  0.00    -0.377 OA
ATOM     20  H   UNL     1       0.256  -0.181  -1.999  0.00  0.00    +0.211 HD
ENDBRANCH  17  19
ENDBRANCH  14  17
ENDBRANCH   9  15
ENDBRANCH   8  12
ENDBRANCH   1   8
BRANCH   5  21
ATOM     21  C   UNL     1     -10.149  -6.583  -2.744  0.00  0.00    +0.106 C 
BRANCH  21  22
ATOM     22  N   UNL     1     -10.397  -7.038  -4.114  0.00  0.00    -0.313 N 
ATOM     23  C   UNL     1     -11.316  -7.995  -4.350  0.00  0.00    +0.239 C 
ATOM     24  O   UNL     1     -11.938  -8.479  -3.428  0.00  0.00    -0.273 OA
ATOM     25  H   UNL     1      -9.899  -6.651  -4.851  0.00  0.00    +0.149 HD
BRANCH  23  26
ATOM     26  C   UNL     1     -11.571  -8.464  -5.759  0.00  0.00    +0.190 C 
ATOM     27  C   UNL     1     -12.092  -7.322  -6.602  0.00  0.00    +0.016 C 
ATOM     28  C   UNL     1     -13.319  -7.699  -7.027  0.00  0.00    -0.004 A 
ATOM     29  C   UNL     1     -14.326  -7.040  -7.868  0.00  0.00    +0.010 A 
ATOM     30  C   UNL     1     -15.488  -7.682  -8.125  0.00  0.00    +0.001 A 
ATOM     31  C   UNL     1     -15.754  -8.958  -7.610  0.00  0.00    +0.002 A 
ATOM     32  C   UNL     1     -14.879  -9.627  -6.830  0.00  0.00    +0.026 A 
ATOM     33  C   UNL     1     -13.625  -9.046  -6.496  0.00  0.00    +0.043 A 
ATOM     34  N   UNL     1     -12.624  -9.486  -5.769  0.00  0.00    -0.370 N 
ATOM     35  H   UNL     1     -12.586 -10.342  -5.316  0.00  0.00    +0.161 HD
ENDBRANCH  23  26
ENDBRANCH  21  22
ENDBRANCH   5  21
TORSDOF 8
