REMARK  Name = ZINC46846660
REMARK  7 active torsions:
REMARK  status: ('A' for Active; 'I' for Inactive)
REMARK    1  A    between atoms: C_4  and  C_7
REMARK    2  A    between atoms: C_7  and  C_9
REMARK    3  A    between atoms: C_7  and  N_22
REMARK    4  A    between atoms: C_9  and  N_10
REMARK    5  A    between atoms: C_11  and  C_13
REMARK    6  A    between atoms: C_13  and  N_14
REMARK    7  A    between atoms: C_15  and  C_17
REMARK                            x       y       z     vdW  Elec       q    Type
REMARK                         _______ _______ _______ _____ _____    ______ ____
ROOT
ATOM      1  C   UNL     1       3.708  -0.713  -0.048  0.00  0.00    +0.104 C 
ENDROOT
BRANCH   1   2
ATOM      2  N   UNL     1       3.698  -1.968   0.716  0.00  0.00    -0.289 NA
ATOM      3  C   UNL     1       3.142  -1.760   2.061  0.00  0.00    +0.090 C 
ATOM      4  C   UNL     1       2.769  -3.127   2.659  0.00  0.00    +0.058 C 
ATOM      5  C   UNL     1       3.918  -4.054   2.427  0.00  0.00    -0.005 A 
ATOM      6  C   UNL     1       4.969  -3.851   1.584  0.00  0.00    -0.023 A 
ATOM      7  C   UNL     1       5.930  -4.858   1.534  0.00  0.00    +0.013 A 
ATOM      8  C   UNL     1       5.789  -5.967   2.297  0.00  0.00    +0.046 A 
ATOM      9  S   UNL     1       4.253  -5.636   3.148  0.00  0.00    -0.101 S 
ATOM     10  C   UNL     1       5.037  -2.568   0.760  0.00  0.00    +0.121 C 
ENDBRANCH   1   2
BRANCH   1  14
ATOM     11  C   UNL     1      -0.291   0.722  -0.487  0.00  0.00    +0.000 A 
ATOM     12  C   UNL     1       0.738   1.609  -0.234  0.00  0.00    +0.000 A 
ATOM     13  C   UNL     1       2.032   1.145  -0.092  0.00  0.00    +0.005 A 
ATOM     14  C   UNL     1       2.297  -0.207  -0.202  0.00  0.00    -0.029 A 
ATOM     15  C   UNL     1       1.268  -1.095  -0.455  0.00  0.00    +0.005 A 
ATOM     16  C   UNL     1      -0.026  -0.630  -0.599  0.00  0.00    +0.000 A 
ENDBRANCH   1  14
BRANCH   1  17
ATOM     17  C   UNL     1       4.314  -0.964  -1.431  0.00  0.00    +0.127 C 
BRANCH  17  18
ATOM     18  N   UNL     1       4.396   0.302  -2.165  0.00  0.00    -0.312 N 
ATOM     19  C   UNL     1       4.801   0.310  -3.450  0.00  0.00    +0.230 C 
ATOM     20  O   UNL     1       5.098  -0.730  -3.999  0.00  0.00    -0.274 OA
ATOM     21  H   UNL     1       4.158   1.133  -1.725  0.00  0.00    +0.149 HD
BRANCH  19  22
ATOM     22  C   UNL     1       4.885   1.612  -4.205  0.00  0.00    +0.200 C 
BRANCH  22  23
ATOM     23  N   UNL     1       5.347   1.355  -5.571  0.00  0.00    -0.306 N 
ATOM     24  C   UNL     1       5.498   2.378  -6.435  0.00  0.00    +0.217 C 
ATOM     25  O   UNL     1       5.252   3.512  -6.081  0.00  0.00    -0.276 OA
ATOM     26  H   UNL     1       5.544   0.448  -5.854  0.00  0.00    +0.149 HD
BRANCH  24  27
ATOM     27  C   UNL     1       5.973   2.114  -7.840  0.00  0.00    +0.075 C 
ATOM     28  C   UNL     1       4.928   1.277  -8.618  0.00  0.00    +0.013 C 
ATOM     29  C   UNL     1       5.247   1.617 -10.095  0.00  0.00    +0.001 C 
ATOM     30  C   UNL     1       5.606   3.117 -10.069  0.00  0.00    +0.001 C 
ATOM     31  C   UNL     1       6.068   3.433  -8.635  0.00  0.00    +0.013 C 
ENDBRANCH  24  27
ENDBRANCH  22  23
ENDBRANCH  19  22
ENDBRANCH  17  18
ENDBRANCH   1  17
TORSDOF 7
