REMARK  Name = ZINC13498654
REMARK  12 active torsions:
REMARK  status: ('A' for Active; 'I' for Inactive)
REMARK    1  A    between atoms: C_1  and  C_2
REMARK    2  A    between atoms: C_2  and  C_3
REMARK    3  A    between atoms: C_2  and  C_4
REMARK    4  A    between atoms: C_4  and  C_6
REMARK    5  A    between atoms: C_4  and  N_71
REMARK    6  A    between atoms: N_10  and  C_11
REMARK    7  A    between atoms: C_11  and  C_12
REMARK    8  A    between atoms: C_18  and  C_19
REMARK    9  A    between atoms: C_18  and  N_71
REMARK   10  A    between atoms: C_23  and  O_31
REMARK   11  A    between atoms: O_31  and  C_32
REMARK   12  A    between atoms: C_33  and  N_71
REMARK                            x       y       z     vdW  Elec       q    Type
REMARK                         _______ _______ _______ _____ _____    ______ ____
ROOT
ATOM      1  N   UNL     1      -1.424   8.223   5.808  0.00  0.00    +0.391 N 
ATOM      2  H   UNL     1      -0.786   9.003   5.610  0.00  0.00    -0.080 HD
ENDROOT
BRANCH   1   3
ATOM      3  C   UNL     1      -0.640   6.974   5.907  0.00  0.00    -0.067 C 
ATOM      4  C   UNL     1      -1.265   6.011   6.937  0.00  0.00    -0.015 C 
ATOM      5  C   UNL     1      -0.045   5.359   7.636  0.00  0.00    -0.002 C 
ATOM      6  C   UNL     1       0.960   6.534   7.738  0.00  0.00    -0.002 C 
ATOM      7  C   UNL     1       0.774   7.306   6.415  0.00  0.00    -0.015 C 
ENDBRANCH   1   3
BRANCH   1   8
ATOM      8  C   UNL     1      -2.120   8.485   7.086  0.00  0.00    +0.006 C 
BRANCH   8   9
ATOM      9  C   UNL     1      -1.091   8.707   8.164  0.00  0.00    +0.138 A 
ATOM     10  N   UNL     1       0.090   9.255   8.018  0.00  0.00    -0.115 NA
ATOM     11  N   UNL     1       0.670   9.266   9.169  0.00  0.00    -0.023 NA
ATOM     12  N   UNL     1      -0.112   8.739  10.046  0.00  0.00    -0.044 NA
ATOM     13  N   UNL     1      -1.209   8.387   9.466  0.00  0.00    -0.228 N 
BRANCH  13  14
ATOM     14  C   UNL     1      -2.366   7.753  10.105  0.00  0.00    +0.178 C 
BRANCH  14  15
ATOM     15  C   UNL     1      -2.124   6.247  10.219  0.00  0.00    +0.140 C 
ATOM     16  C   UNL     1      -3.364   5.563  10.834  0.00  0.00    +0.035 C 
ATOM     17  C   UNL     1      -2.724   4.498  11.767  0.00  0.00    +0.031 C 
ATOM     18  C   UNL     1      -1.449   5.245  12.234  0.00  0.00    +0.160 C 
ATOM     19  O   UNL     1      -1.015   5.998  11.091  0.00  0.00    -0.375 OA
ENDBRANCH  14  15
ENDBRANCH  13  14
ENDBRANCH   8   9
BRANCH   8  21
ATOM     20  C   UNL     1      -3.687  10.037   8.261  0.00  0.00    +0.006 C 
ATOM     21  C   UNL     1      -2.981   9.741   6.936  0.00  0.00    -0.024 C 
ATOM     22  C   UNL     1      -2.092  10.927   6.556  0.00  0.00    +0.006 C 
ENDBRANCH   8  21
ENDBRANCH   1   8
BRANCH   1  23
ATOM     23  C   UNL     1      -2.408   8.116   4.710  0.00  0.00    -0.036 C 
BRANCH  23  24
ATOM     24  C   UNL     1      -1.669   7.969   3.405  0.00  0.00    +0.001 A 
ATOM     25  C   UNL     1      -1.500   6.739   2.860  0.00  0.00    +0.017 A 
ATOM     26  C   UNL     1      -0.777   6.629   1.591  0.00  0.00    +0.002 A 
ATOM     27  C   UNL     1      -0.578   5.387   0.979  0.00  0.00    +0.055 A 
ATOM     28  C   UNL     1       0.112   5.319  -0.214  0.00  0.00    +0.121 A 
ATOM     29  C   UNL     1       0.598   6.479  -0.813  0.00  0.00    +0.047 A 
ATOM     30  C   UNL     1       0.404   7.708  -0.223  0.00  0.00    +0.030 A 
ATOM     31  C   UNL     1      -0.284   7.799   0.983  0.00  0.00    +0.049 A 
ATOM     32  N   UNL     1      -0.490   9.021   1.591  0.00  0.00    -0.322 N 
ATOM     33  H   UNL     1      -0.150   9.827   1.170  0.00  0.00    +0.169 HD
ATOM     34  C   UNL     1      -1.155   9.111   2.756  0.00  0.00    +0.251 A 
ATOM     35  O   UNL     1      -1.319  10.207   3.263  0.00  0.00    -0.268 OA
BRANCH  28  36
ATOM     36  O   UNL     1       0.313   4.114  -0.812  0.00  0.00    -0.495 OA
ATOM     37  C   UNL     1       1.030   4.115  -2.048  0.00  0.00    +0.277 C 
ENDBRANCH  28  36
ENDBRANCH  23  24
ENDBRANCH   1  23
TORSDOF 9
