REMARK  Name = ZINC37377594
REMARK  6 active torsions:
REMARK  status: ('A' for Active; 'I' for Inactive)
REMARK    1  A    between atoms: C_1  and  C_2
REMARK    2  A    between atoms: C_2  and  N_3
REMARK    3  A    between atoms: N_3  and  C_4
REMARK    4  A    between atoms: C_7  and  C_23
REMARK    5  A    between atoms: C_9  and  N_22
REMARK    6  A    between atoms: N_10  and  C_14
REMARK                            x       y       z     vdW  Elec       q    Type
REMARK                         _______ _______ _______ _____ _____    ______ ____
ROOT
ATOM      1  N   UNL     1       0.158  -1.479  -0.881  0.00  0.00    -0.303 N 
ATOM      2  C   UNL     1       1.518  -2.002  -0.733  0.00  0.00    +0.132 C 
ATOM      3  C   UNL     1      -0.482  -1.551  -2.105  0.00  0.00    +0.220 A 
ATOM      4  N   UNL     1       0.168  -2.107  -3.122  0.00  0.00    -0.214 NA
ATOM      5  C   UNL     1      -0.372  -2.217  -4.329  0.00  0.00    +0.089 A 
ATOM      6  C   UNL     1      -1.680  -1.722  -4.525  0.00  0.00    +0.086 A 
ATOM      7  C   UNL     1      -2.567  -1.647  -5.592  0.00  0.00    +0.131 A 
ATOM      8  N   UNL     1      -3.690  -1.051  -5.146  0.00  0.00    -0.213 N 
ATOM      9  N   UNL     1      -3.552  -0.731  -3.790  0.00  0.00    -0.144 NA
ATOM     10  C   UNL     1      -2.365  -1.113  -3.370  0.00  0.00    +0.189 A 
ATOM     11  N   UNL     1      -1.705  -1.069  -2.197  0.00  0.00    -0.193 NA
ENDROOT
BRANCH   8  12
ATOM     12  C   UNL     1      -4.826  -0.790  -5.922  0.00  0.00    +0.105 A 
ATOM     13  C   UNL     1      -4.921  -1.302  -7.209  0.00  0.00    +0.069 A 
ATOM     14  C   UNL     1      -6.044  -1.043  -7.973  0.00  0.00    +0.126 A 
ATOM     15  C   UNL     1      -7.074  -0.274  -7.456  0.00  0.00    +0.041 A 
ATOM     16  C   UNL     1      -6.982   0.237  -6.175  0.00  0.00    +0.043 A 
ATOM     17  C   UNL     1      -5.863  -0.023  -5.404  0.00  0.00    +0.149 A 
ATOM     18  F   UNL     1      -5.777   0.472  -4.149  0.00  0.00    -0.203 F 
ATOM     19  F   UNL     1      -6.138  -1.540  -9.226  0.00  0.00    -0.205 F 
ENDBRANCH   8  12
BRANCH   5  20
ATOM     20  C   UNL     1       0.378  -2.842  -5.443  0.00  0.00    +0.004 A 
ATOM     21  C   UNL     1       0.376  -2.252  -6.707  0.00  0.00    +0.010 A 
ATOM     22  C   UNL     1       1.076  -2.837  -7.741  0.00  0.00    +0.003 A 
ATOM     23  C   UNL     1       1.781  -4.008  -7.527  0.00  0.00    +0.038 A 
ATOM     24  C   UNL     1       1.789  -4.600  -6.275  0.00  0.00    +0.124 A 
ATOM     25  C   UNL     1       1.095  -4.019  -5.230  0.00  0.00    +0.048 A 
ATOM     26  F   UNL     1       2.479  -5.744  -6.073  0.00  0.00    -0.205 F 
ENDBRANCH   5  20
BRANCH   7  27
ATOM     27  N   UNL     1      -2.339  -2.100  -6.878  0.00  0.00    -0.342 N 
ATOM     28  H   UNL     1      -1.904  -2.956  -7.021  0.00  0.00    +0.144 HD
ATOM     29  H   UNL     1      -2.614  -1.564  -7.638  0.00  0.00    +0.144 HD
ENDBRANCH   7  27
BRANCH   1  31
ATOM     30  C   UNL     1      -0.226   0.622   0.312  0.00  0.00    +0.024 C 
ATOM     31  C   UNL     1      -0.524  -0.878   0.269  0.00  0.00    +0.104 C 
ENDBRANCH   1  31
TORSDOF 4
