REMARK  Name = ZINC39634726
REMARK  11 active torsions:
REMARK  status: ('A' for Active; 'I' for Inactive)
REMARK    1  A    between atoms: C_1  and  C_2
REMARK    2  A    between atoms: C_2  and  C_3
REMARK    3  A    between atoms: C_2  and  N_4
REMARK    4  A    between atoms: N_4  and  C_5
REMARK    5  A    between atoms: N_4  and  C_31
REMARK    6  A    between atoms: C_5  and  C_6
REMARK    7  A    between atoms: C_6  and  N_7
REMARK    8  A    between atoms: C_8  and  C_10
REMARK    9  A    between atoms: C_21  and  C_23
REMARK   10  A    between atoms: C_31  and  C_32
REMARK   11  A    between atoms: C_31  and  C_33
REMARK                            x       y       z     vdW  Elec       q    Type
REMARK                         _______ _______ _______ _____ _____    ______ ____
ROOT
ATOM      1  C   UNL     1      -8.549  -1.021  -4.287  0.00  0.00    +0.100 C 
ATOM      2  C   UNL     1      -8.694  -2.467  -4.812  0.00  0.00    +0.121 C 
ATOM      3  N   UNL     1     -10.150  -2.739  -4.761  0.00  0.00    -0.296 N 
ATOM      4  C   UNL     1     -10.778  -1.468  -5.195  0.00  0.00    +0.115 C 
ATOM      5  C   UNL     1      -9.917  -0.368  -4.543  0.00  0.00    -0.004 C 
ATOM      6  C   UNL     1     -10.543   0.080  -3.226  0.00  0.00    -0.010 C 
ATOM      7  C   UNL     1     -11.877   0.777  -3.512  0.00  0.00    -0.082 C 
ATOM      8  N   UNL     1     -11.649   1.934  -4.387  0.00  0.00    +0.379 N 
ATOM      9  C   UNL     1     -11.133   1.485  -5.686  0.00  0.00    -0.082 C 
ATOM     10  C   UNL     1      -9.768   0.818  -5.492  0.00  0.00    -0.010 C 
ATOM     11  C   UNL     1     -10.765  -3.883  -4.401  0.00  0.00    +0.247 C 
ATOM     12  O   UNL     1     -10.114  -4.809  -3.958  0.00  0.00    -0.270 OA
ATOM     13  H   UNL     1     -12.518   2.426  -4.524  0.00  0.00    -0.086 HD
ATOM     14  H   UNL     1     -10.979   2.553  -3.956  0.00  0.00    -0.086 HD
ENDROOT
BRANCH  11  15
ATOM     15  C   UNL     1     -12.231  -4.011  -4.543  0.00  0.00    +0.040 A 
ATOM     16  C   UNL     1     -12.929  -3.158  -5.399  0.00  0.00    +0.033 A 
ATOM     17  C   UNL     1     -14.298  -3.282  -5.528  0.00  0.00    +0.043 A 
ATOM     18  C   UNL     1     -14.978  -4.252  -4.811  0.00  0.00    +0.040 A 
ATOM     19  C   UNL     1     -14.291  -5.102  -3.961  0.00  0.00    +0.043 A 
ATOM     20  C   UNL     1     -12.921  -4.991  -3.828  0.00  0.00    +0.033 A 
ATOM     21 CL   UNL     1     -15.153  -6.314  -3.065  0.00  0.00    -0.083 Cl
ATOM     22 CL   UNL     1     -15.168  -2.221  -6.591  0.00  0.00    -0.083 Cl
ENDBRANCH  11  15
BRANCH   1  24
ATOM     23  N   UNL     1      -7.635   0.037  -2.247  0.00  0.00    -0.317 N 
ATOM     24  C   UNL     1      -8.238  -1.027  -2.812  0.00  0.00    +0.218 C 
ATOM     25  O   UNL     1      -8.531  -1.990  -2.135  0.00  0.00    -0.275 OA
ATOM     26  H   UNL     1      -7.400   0.807  -2.788  0.00  0.00    +0.149 HD
BRANCH  23  27
ATOM     27  C   UNL     1      -7.333   0.031  -0.813  0.00  0.00    +0.085 C 
BRANCH  27  28
ATOM     28  C   UNL     1      -6.654   1.347  -0.429  0.00  0.00    -0.059 C 
BRANCH  28  29
ATOM     29  N   UNL     1      -6.287   1.313   0.993  0.00  0.00    +0.384 N 
ATOM     30  H   UNL     1      -7.109   1.127   1.548  0.00  0.00    -0.081 HD
BRANCH  29  32
ATOM     31  C   UNL     1      -6.748   3.713   1.145  0.00  0.00    -0.014 C 
ATOM     32  C   UNL     1      -5.716   2.609   1.383  0.00  0.00    -0.074 C 
ATOM     33  C   UNL     1      -5.338   2.575   2.865  0.00  0.00    -0.014 C 
ENDBRANCH  29  32
BRANCH  29  34
ATOM     34  C   UNL     1      -5.295   0.253   1.217  0.00  0.00    -0.074 C 
ATOM     35  C   UNL     1      -3.900   0.780   0.875  0.00  0.00    -0.014 C 
ATOM     36  C   UNL     1      -5.332  -0.177   2.685  0.00  0.00    -0.014 C 
ENDBRANCH  29  34
ENDBRANCH  28  29
ENDBRANCH  27  28
ENDBRANCH  23  27
ENDBRANCH   1  24
TORSDOF 7
