REMARK  Name = ZINC39431733
REMARK  10 active torsions:
REMARK  status: ('A' for Active; 'I' for Inactive)
REMARK    1  A    between atoms: C_1  and  C_2
REMARK    2  A    between atoms: C_2  and  O_3
REMARK    3  A    between atoms: O_3  and  C_4
REMARK    4  A    between atoms: C_4  and  C_6
REMARK    5  A    between atoms: C_8  and  C_33
REMARK    6  A    between atoms: C_12  and  C_16
REMARK    7  A    between atoms: C_16  and  C_18
REMARK    8  A    between atoms: C_16  and  O_19
REMARK    9  A    between atoms: O_19  and  C_20
REMARK   10  A    between atoms: C_20  and  C_22
REMARK                            x       y       z     vdW  Elec       q    Type
REMARK                         _______ _______ _______ _____ _____    ______ ____
ROOT
ATOM      1  C   UNL     1       4.466  -7.948  -2.719  0.00  0.00    +0.238 C 
ATOM      2  C   UNL     1       3.730  -9.288  -2.773  0.00  0.00    +0.060 C 
ENDROOT
BRANCH   1   8
ATOM      3  C   UNL     1       1.468  -2.353  -2.550  0.00  0.00    +0.188 C 
ATOM      4  C   UNL     1       0.857  -3.674  -2.960  0.00  0.00    -0.034 C 
ATOM      5  C   UNL     1       1.645  -4.760  -2.936  0.00  0.00    +0.071 C 
ATOM      6  C   UNL     1       3.049  -4.581  -2.510  0.00  0.00    +0.112 C 
ATOM      7  N   UNL     1       3.868  -5.604  -2.464  0.00  0.00    -0.224 NA
ATOM      8  C   UNL     1       3.467  -6.822  -2.796  0.00  0.00    +0.164 C 
ATOM      9  N   UNL     1       2.247  -7.100  -3.188  0.00  0.00    -0.158 NA
ATOM     10  C   UNL     1       1.290  -6.172  -3.291  0.00  0.00    +0.271 C 
ATOM     11  O   UNL     1       0.166  -6.465  -3.659  0.00  0.00    -0.268 OA
ATOM     12  S   UNL     1       3.195  -2.846  -2.155  0.00  0.00    -0.086 S 
ATOM     13  C   UNL     1      -0.586  -3.768  -3.382  0.00  0.00    +0.041 C 
BRANCH   3  14
ATOM     14  C   UNL     1       0.775  -1.794  -1.334  0.00  0.00    +0.325 C 
ATOM     15  O   UNL     1       0.314  -2.540  -0.504  0.00  0.00    -0.249 OA
BRANCH  14  16
ATOM     16  O   UNL     1       0.671  -0.465  -1.174  0.00  0.00    -0.464 OA
BRANCH  16  18
ATOM     17  C   UNL     1      -0.019   1.526   0.010  0.00  0.00    +0.048 C 
ATOM     18  C   UNL     1       0.002  -0.004   0.002  0.00  0.00    +0.229 C 
ENDBRANCH  16  18
ENDBRANCH  14  16
ENDBRANCH   3  14
ENDBRANCH   1   8
BRANCH   1  19
ATOM     19  O   UNL     1       5.372  -7.857  -3.820  0.00  0.00    -0.450 OA
BRANCH  19  20
ATOM     20  C   UNL     1       6.623  -8.319  -3.624  0.00  0.00    +0.340 C 
ATOM     21  O   UNL     1       6.936  -8.787  -2.547  0.00  0.00    -0.245 OA
BRANCH  20  22
ATOM     22  C   UNL     1       7.611  -8.258  -4.715  0.00  0.00    +0.060 A 
ATOM     23  C   UNL     1       7.263  -7.715  -5.961  0.00  0.00    +0.017 A 
ATOM     24  C   UNL     1       8.157  -7.649  -6.978  0.00  0.00    +0.030 A 
ATOM     25  C   UNL     1       9.481  -8.128  -6.820  0.00  0.00    +0.080 A 
ATOM     26  C   UNL     1       9.808  -8.672  -5.553  0.00  0.00    +0.042 A 
ATOM     27  C   UNL     1       8.913  -8.735  -4.522  0.00  0.00    +0.032 A 
ATOM     28  S   UNL     1      11.508  -9.142  -5.770  0.00  0.00    -0.053 S 
ATOM     29  C   UNL     1      11.673  -8.607  -7.468  0.00  0.00    +0.157 A 
ATOM     30  N   UNL     1      10.475  -8.132  -7.730  0.00  0.00    -0.225 NA
ATOM     31  N   UNL     1      12.775  -8.675  -8.292  0.00  0.00    -0.337 N 
ATOM     32  H   UNL     1      13.605  -9.054  -7.962  0.00  0.00    +0.144 HD
ATOM     33  H   UNL     1      12.722  -8.343  -9.202  0.00  0.00    +0.144 HD
ENDBRANCH  20  22
ENDBRANCH  19  20
ENDBRANCH   1  19
TORSDOF 7
