REMARK  Name = ZINC66896090
REMARK  7 active torsions:
REMARK  status: ('A' for Active; 'I' for Inactive)
REMARK    1  A    between atoms: C_4  and  O_7
REMARK    2  A    between atoms: O_7  and  C_8
REMARK    3  A    between atoms: N_10  and  C_11
REMARK    4  A    between atoms: N_14  and  C_17
REMARK    5  A    between atoms: C_17  and  C_18
REMARK    6  A    between atoms: N_20  and  C_21
REMARK    7  A    between atoms: C_21  and  C_22
REMARK                            x       y       z     vdW  Elec       q    Type
REMARK                         _______ _______ _______ _____ _____    ______ ____
ROOT
ATOM      1  C   UNL     1       4.689  -4.126   0.255  0.00  0.00    +0.073 C 
ATOM      2  C   UNL     1       4.515  -4.531   1.721  0.00  0.00    +0.004 C 
ATOM      3  C   UNL     1       4.568  -6.056   1.834  0.00  0.00    -0.076 C 
ATOM      4  N   UNL     1       5.863  -6.542   1.341  0.00  0.00    +0.385 N 
ATOM      5  C   UNL     1       6.006  -6.220  -0.084  0.00  0.00    -0.076 C 
ATOM      6  C   UNL     1       6.008  -4.701  -0.270  0.00  0.00    +0.004 C 
ATOM      7  H   UNL     1       6.606  -6.100   1.861  0.00  0.00    -0.081 HD
ENDROOT
BRANCH   1  10
ATOM      8  C   UNL     1       3.562  -1.975   0.060  0.00  0.00    +0.406 C 
ATOM      9  O   UNL     1       2.499  -2.565   0.066  0.00  0.00    -0.226 OA
ATOM     10  N   UNL     1       4.716  -2.665   0.150  0.00  0.00    -0.278 N 
ATOM     11  H   UNL     1       5.564  -2.195   0.145  0.00  0.00    +0.152 HD
BRANCH   8  12
ATOM     12  O   UNL     1       3.586  -0.632  -0.037  0.00  0.00    -0.412 OA
BRANCH  12  16
ATOM     13  C   UNL     1      -0.012   1.384   0.070  0.00  0.00    +0.000 A 
ATOM     14  C   UNL     1       0.471   0.774   1.212  0.00  0.00    +0.004 A 
ATOM     15  C   UNL     1       1.676   0.098   1.179  0.00  0.00    +0.046 A 
ATOM     16  C   UNL     1       2.400   0.032  -0.002  0.00  0.00    +0.133 A 
ATOM     17  C   UNL     1       1.913   0.644  -1.147  0.00  0.00    +0.046 A 
ATOM     18  C   UNL     1       0.708   1.319  -1.109  0.00  0.00    +0.004 A 
ENDBRANCH  12  16
ENDBRANCH   8  12
ENDBRANCH   1  10
BRANCH   4  19
ATOM     19  C   UNL     1       5.939  -7.997   1.523  0.00  0.00    +0.019 C 
BRANCH  19  20
ATOM     20  C   UNL     1       7.312  -8.481   1.133  0.00  0.00    +0.197 C 
ATOM     21  O   UNL     1       8.145  -7.691   0.741  0.00  0.00    -0.278 OA
ATOM     22  N   UNL     1       7.614  -9.792   1.218  0.00  0.00    -0.312 N 
ATOM     23  H   UNL     1       6.949 -10.424   1.531  0.00  0.00    +0.149 HD
BRANCH  22  24
ATOM     24  C   UNL     1       8.949 -10.262   0.838  0.00  0.00    +0.146 C 
BRANCH  24  25
ATOM     25  C   UNL     1       9.028 -11.755   1.025  0.00  0.00    +0.007 A 
ATOM     26  C   UNL     1       8.746 -12.742   0.139  0.00  0.00    +0.013 A 
ATOM     27  C   UNL     1       8.892 -14.059   0.534  0.00  0.00    +0.008 A 
ATOM     28  C   UNL     1       9.313 -14.324   1.795  0.00  0.00    +0.045 A 
ATOM     29  S   UNL     1       9.523 -12.683   2.467  0.00  0.00    -0.100 S 
ENDBRANCH  24  25
ENDBRANCH  22  24
ENDBRANCH  19  20
ENDBRANCH   4  19
TORSDOF 7
