REMARK  Name = ZINC28229709
REMARK  5 active torsions:
REMARK  status: ('A' for Active; 'I' for Inactive)
REMARK    1  A    between atoms: C_4  and  C_8
REMARK    2  A    between atoms: C_8  and  N_9
REMARK    3  A    between atoms: C_15  and  C_17
REMARK    4  A    between atoms: C_20  and  C_22
REMARK    5  A    between atoms: C_22  and  N_23
REMARK                            x       y       z     vdW  Elec       q    Type
REMARK                         _______ _______ _______ _____ _____    ______ ____
ROOT
ATOM      1  N   UNL     1      -7.045   1.829   0.041  0.00  0.00    -0.265 N 
ATOM      2  C   UNL     1      -6.630   0.545   0.032  0.00  0.00    +0.110 A 
ATOM      3  C   UNL     1      -5.277   0.546   0.026  0.00  0.00    +0.065 A 
ATOM      4  C   UNL     1      -4.848   1.883   0.032  0.00  0.00    +0.147 A 
ATOM      5  N   UNL     1      -5.911   2.652   0.046  0.00  0.00    -0.156 NA
ATOM      6  N   UNL     1      -3.516   2.319   0.029  0.00  0.00    -0.262 N 
ATOM      7  C   UNL     1      -2.513   1.419   0.020  0.00  0.00    +0.285 C 
ATOM      8  O   UNL     1      -2.763   0.228   0.014  0.00  0.00    -0.266 OA
ATOM      9  H   UNL     1      -3.290   3.395   0.034  0.00  0.00    +0.157 HD
ENDROOT
BRANCH   7  10
ATOM     10  C   UNL     1      -1.119   1.876   0.017  0.00  0.00    +0.190 A 
ATOM     11  C   UNL     1      -0.013   1.076   0.008  0.00  0.00    +0.055 A 
ATOM     12  C   UNL     1       1.102   1.929   0.002  0.00  0.00    +0.043 A 
ATOM     13  C   UNL     1       0.633   3.196   0.013  0.00  0.00    +0.090 A 
ATOM     14  O   UNL     1      -0.706   3.160   0.025  0.00  0.00    -0.457 OA
BRANCH  13  15
ATOM     15  C   UNL     1       1.478   4.444   0.011  0.00  0.00    -0.003 C 
BRANCH  15  16
ATOM     16  N   UNL     1       1.738   4.857  -1.375  0.00  0.00    +0.384 N 
ATOM     17  C   UNL     1       0.473   4.967  -2.145  0.00  0.00    -0.078 C 
ATOM     18  C   UNL     1       0.861   5.880  -3.335  0.00  0.00    -0.020 C 
ATOM     19  C   UNL     1       1.831   6.896  -2.690  0.00  0.00    -0.020 C 
ATOM     20  C   UNL     1       2.357   6.200  -1.421  0.00  0.00    -0.078 C 
ATOM     21  H   UNL     1       2.407   4.091  -1.794  0.00  0.00    -0.081 HD
ENDBRANCH  15  16
ENDBRANCH  13  15
ENDBRANCH   7  10
BRANCH   1  22
ATOM     22  C   UNL     1      -8.437   2.284   0.050  0.00  0.00    +0.181 C 
BRANCH  22  26
ATOM     23  C   UNL     1      -9.059   4.903   3.369  0.00  0.00    +0.003 A 
ATOM     24  C   UNL     1      -8.658   5.416   2.150  0.00  0.00    +0.020 A 
ATOM     25  C   UNL     1      -8.456   4.568   1.075  0.00  0.00    +0.047 A 
ATOM     26  C   UNL     1      -8.657   3.208   1.220  0.00  0.00    +0.010 A 
ATOM     27  C   UNL     1      -9.064   2.696   2.439  0.00  0.00    +0.047 A 
ATOM     28  C   UNL     1      -9.261   3.543   3.515  0.00  0.00    +0.020 A 
ATOM     29 CL   UNL     1      -9.323   0.989   2.621  0.00  0.00    -0.083 Cl
ATOM     30 CL   UNL     1      -7.951   5.213  -0.456  0.00  0.00    -0.083 Cl
ENDBRANCH  22  26
ENDBRANCH   1  22
TORSDOF 5
