REMARK  Name = ZINC62495653
REMARK  3 active torsions:
REMARK  status: ('A' for Active; 'I' for Inactive)
REMARK    1  A    between atoms: C_3  and  C_8
REMARK    2  A    between atoms: C_8  and  C_9
REMARK    3  A    between atoms: C_16  and  O_20
REMARK                            x       y       z     vdW  Elec       q    Type
REMARK                         _______ _______ _______ _____ _____    ______ ____
ROOT
ATOM      1  C   UNL     1       4.123   2.440   1.418  0.00  0.00    +0.195 C 
ATOM      2  C   UNL     1       5.498   3.123   1.413  0.00  0.00    +0.146 C 
ATOM      3  N   UNL     1       5.867   3.390   2.814  0.00  0.00    -0.337 N 
ATOM      4  C   UNL     1       4.864   3.874   3.673  0.00  0.00    +0.070 A 
ATOM      5  C   UNL     1       5.205   4.410   4.905  0.00  0.00    +0.030 A 
ATOM      6  C   UNL     1       4.218   4.882   5.749  0.00  0.00    +0.047 A 
ATOM      7  C   UNL     1       2.887   4.820   5.364  0.00  0.00    +0.120 A 
ATOM      8  C   UNL     1       2.543   4.285   4.131  0.00  0.00    +0.093 A 
ATOM      9  C   UNL     1       3.530   3.812   3.280  0.00  0.00    +0.145 A 
ATOM     10  O   UNL     1       3.183   3.296   2.071  0.00  0.00    -0.485 OA
ATOM     11  H   UNL     1       6.770   3.236   3.133  0.00  0.00    +0.146 HD
ENDROOT
BRANCH   7  12
ATOM     12  O   UNL     1       1.917   5.284   6.196  0.00  0.00    -0.507 OA
ATOM     13  H   UNL     1       1.705   6.219   6.071  0.00  0.00    +0.292 HD
ENDBRANCH   7  12
BRANCH   1  14
ATOM     14  C   UNL     1       3.672   2.186  -0.021  0.00  0.00    +0.081 C 
BRANCH  14  17
ATOM     15  C   UNL     1      -0.017   1.377   0.010  0.00  0.00    +0.003 A 
ATOM     16  C   UNL     1       1.171   2.086   0.002  0.00  0.00    +0.004 A 
ATOM     17  C   UNL     1       2.378   1.413  -0.013  0.00  0.00    -0.041 A 
ATOM     18  C   UNL     1       2.399   0.030  -0.021  0.00  0.00    +0.042 A 
ATOM     19  C   UNL     1       1.211  -0.679  -0.013  0.00  0.00    +0.124 A 
ATOM     20  C   UNL     1       0.002  -0.004   0.002  0.00  0.00    +0.038 A 
ATOM     21  F   UNL     1       1.230  -2.030  -0.022  0.00  0.00    -0.205 F 
ENDBRANCH  14  17
ENDBRANCH   1  14
TORSDOF 3
