REMARK  Name = ZINC65055084
REMARK  4 active torsions:
REMARK  status: ('A' for Active; 'I' for Inactive)
REMARK    1  A    between atoms: C_13  and  C_15
REMARK    2  A    between atoms: C_18  and  C_20
REMARK    3  A    between atoms: C_21  and  C_31
REMARK    4  A    between atoms: N_24  and  C_25
REMARK                            x       y       z     vdW  Elec       q    Type
REMARK                         _______ _______ _______ _____ _____    ______ ____
ROOT
ATOM      1  C   UNL     1       0.214  -6.625   1.147  0.00  0.00    +0.190 A 
ATOM      2  C   UNL     1       0.105  -7.997   1.242  0.00  0.00    +0.055 A 
ATOM      3  C   UNL     1      -1.256  -8.300   1.206  0.00  0.00    +0.052 A 
ATOM      4  C   UNL     1      -1.933  -7.101   1.089  0.00  0.00    +0.154 A 
ATOM      5  O   UNL     1      -1.030  -6.105   1.061  0.00  0.00    -0.449 OA
ENDROOT
BRANCH   1  18
ATOM      6  C   UNL     1       2.318   1.472   0.210  0.00  0.00    +0.005 A 
ATOM      7  C   UNL     1       1.077   2.090   0.290  0.00  0.00    +0.018 A 
ATOM      8  C   UNL     1      -0.065   1.315   0.310  0.00  0.00    +0.084 A 
ATOM      9  N   UNL     1       0.010  -0.002   0.254  0.00  0.00    -0.350 N 
ATOM     10  C   UNL     1       1.174  -0.628   0.176  0.00  0.00    +0.099 A 
ATOM     11  C   UNL     1       2.365   0.092   0.152  0.00  0.00    +0.042 A 
ATOM     12  N   UNL     1       1.207  -2.016   0.119  0.00  0.00    -0.314 N 
ATOM     13  C   UNL     1       2.478  -2.727  -0.085  0.00  0.00    +0.125 C 
ATOM     14  C   UNL     1       2.665  -3.733   1.058  0.00  0.00    +0.127 C 
ATOM     15  N   UNL     1       1.430  -4.517   1.200  0.00  0.00    -0.292 N 
ATOM     16  C   UNL     1       0.160  -3.807   1.404  0.00  0.00    +0.127 C 
ATOM     17  C   UNL     1      -0.027  -2.800   0.268  0.00  0.00    +0.125 C 
ATOM     18  C   UNL     1       1.462  -5.863   1.145  0.00  0.00    +0.282 C 
ATOM     19  O   UNL     1       2.530  -6.445   1.094  0.00  0.00    -0.267 OA
ATOM     20  H   UNL     1      -0.807  -0.523   0.269  0.00  0.00    +0.166 HD
ENDBRANCH   1  18
BRANCH   4  21
ATOM     21  C   UNL     1      -3.388  -6.942   1.014  0.00  0.00    +0.112 A 
ATOM     22  C   UNL     1      -4.272  -7.689   0.247  0.00  0.00    +0.100 A 
ATOM     23  N   UNL     1      -5.506  -7.209   0.477  0.00  0.00    -0.235 NA
ATOM     24  C   UNL     1      -5.442  -6.223   1.329  0.00  0.00    +0.200 A 
ATOM     25  N   UNL     1      -4.158  -6.022   1.695  0.00  0.00    -0.324 N 
BRANCH  22  26
ATOM     26  C   UNL     1      -3.920  -8.807  -0.658  0.00  0.00    +0.003 A 
ATOM     27  C   UNL     1      -2.721  -8.780  -1.371  0.00  0.00    +0.013 A 
ATOM     28  C   UNL     1      -2.398  -9.824  -2.212  0.00  0.00    +0.039 A 
ATOM     29  C   UNL     1      -3.262 -10.899  -2.350  0.00  0.00    +0.123 A 
ATOM     30  C   UNL     1      -4.454 -10.931  -1.644  0.00  0.00    +0.039 A 
ATOM     31  C   UNL     1      -4.784  -9.895  -0.795  0.00  0.00    +0.013 A 
ATOM     32  F   UNL     1      -2.941 -11.919  -3.175  0.00  0.00    -0.205 F 
ENDBRANCH  22  26
BRANCH  25  33
ATOM     33  C   UNL     1      -3.672  -5.012   2.639  0.00  0.00    +0.089 C 
ATOM     34  C   UNL     1      -4.317  -5.242   4.007  0.00  0.00    +0.025 C 
ATOM     35  C   UNL     1      -3.810  -4.187   4.993  0.00  0.00    +0.002 C 
ATOM     36  C   UNL     1      -4.179  -2.793   4.483  0.00  0.00    +0.000 C 
ATOM     37  C   UNL     1      -3.534  -2.563   3.114  0.00  0.00    +0.002 C 
ATOM     38  C   UNL     1      -4.041  -3.618   2.128  0.00  0.00    +0.025 C 
ENDBRANCH  25  33
ENDBRANCH   4  21
TORSDOF 4
