REMARK  Name = ZINC65543805
REMARK  13 active torsions:
REMARK  status: ('A' for Active; 'I' for Inactive)
REMARK    1  A    between atoms: C_1  and  C_2
REMARK    2  A    between atoms: C_2  and  O_3
REMARK    3  A    between atoms: O_3  and  C_4
REMARK    4  A    between atoms: C_4  and  C_6
REMARK    5  A    between atoms: C_6  and  N_7
REMARK    6  A    between atoms: N_7  and  C_8
REMARK    7  A    between atoms: N_7  and  C_12
REMARK    8  A    between atoms: C_8  and  C_9
REMARK    9  A    between atoms: C_12  and  C_13
REMARK   10  A    between atoms: N_18  and  C_21
REMARK   11  A    between atoms: C_21  and  C_22
REMARK   12  A    between atoms: C_23  and  C_28
REMARK   13  A    between atoms: C_26  and  C_27
REMARK                            x       y       z     vdW  Elec       q    Type
REMARK                         _______ _______ _______ _____ _____    ______ ____
ROOT
ATOM      1  C   UNL     1      -3.829  -5.991   0.217  0.00  0.00    +0.199 C 
ATOM      2  O   UNL     1      -2.749  -6.539   0.277  0.00  0.00    -0.278 OA
ATOM      3  N   UNL     1      -4.960  -6.723   0.269  0.00  0.00    -0.301 N 
ATOM      4  C   UNL     1      -6.280  -6.079   0.192  0.00  0.00    +0.123 C 
ATOM      5  C   UNL     1      -7.133  -6.576   1.364  0.00  0.00    +0.103 C 
ATOM      6  N   UNL     1      -7.157  -8.045   1.360  0.00  0.00    -0.295 NA
ATOM      7  C   UNL     1      -5.813  -8.600   1.569  0.00  0.00    +0.103 C 
ATOM      8  C   UNL     1      -4.906  -8.187   0.400  0.00  0.00    +0.123 C 
ENDROOT
BRANCH   1   9
ATOM      9  C   UNL     1      -3.908  -4.492   0.083  0.00  0.00    +0.019 C 
BRANCH   9  10
ATOM     10  N   UNL     1      -2.557  -3.945  -0.102  0.00  0.00    +0.393 N 
ATOM     11  H   UNL     1      -1.956  -4.276   0.638  0.00  0.00    -0.080 HD
BRANCH  10  12
ATOM     12  C   UNL     1      -2.024  -4.386  -1.398  0.00  0.00    +0.044 C 
BRANCH  12  13
ATOM     13  C   UNL     1      -0.594  -3.929  -1.535  0.00  0.00    +0.290 C 
ATOM     14  O   UNL     1      -0.073  -3.300  -0.644  0.00  0.00    -0.253 OA
BRANCH  13  15
ATOM     15  O   UNL     1       0.100  -4.219  -2.647  0.00  0.00    -0.466 OA
BRANCH  15  17
ATOM     16  C   UNL     1       2.074  -4.178  -4.039  0.00  0.00    +0.048 C 
ATOM     17  C   UNL     1       1.450  -3.754  -2.708  0.00  0.00    +0.228 C 
ENDBRANCH  15  17
ENDBRANCH  13  15
ENDBRANCH  12  13
ENDBRANCH  10  12
BRANCH  10  18
ATOM     18  C   UNL     1      -2.613  -2.478  -0.069  0.00  0.00    -0.074 C 
BRANCH  18  19
ATOM     19  C   UNL     1      -3.051  -2.016   1.322  0.00  0.00    -0.028 C 
ATOM     20  C   UNL     1      -4.369  -1.245   1.428  0.00  0.00    +0.002 C 
ATOM     21  C   UNL     1      -3.037  -0.512   1.604  0.00  0.00    +0.002 C 
ENDBRANCH  18  19
ENDBRANCH  10  18
ENDBRANCH   9  10
ENDBRANCH   1   9
BRANCH   6  22
ATOM     22  C   UNL     1      -8.101  -8.559   2.361  0.00  0.00    +0.125 C 
BRANCH  22  23
ATOM     23  C   UNL     1      -8.283 -10.042   2.165  0.00  0.00    +0.031 A 
ATOM     24  C   UNL     1      -9.245 -10.654   1.340  0.00  0.00    +0.085 A 
ATOM     25  N   UNL     1      -9.092 -11.944   1.430  0.00  0.00    -0.083 NA
ATOM     26  O   UNL     1      -8.021 -12.196   2.321  0.00  0.00    -0.359 OA
ATOM     27  C   UNL     1      -7.551 -11.012   2.744  0.00  0.00    +0.139 A 
ATOM     28  C   UNL     1      -6.406 -10.805   3.702  0.00  0.00    +0.089 C 
ATOM     29  C   UNL     1     -10.272  -9.940   0.499  0.00  0.00    +0.069 C 
ENDBRANCH  22  23
ENDBRANCH   6  22
TORSDOF 10
