REMARK  Name = ZINC05408397
REMARK  6 active torsions:
REMARK  status: ('A' for Active; 'I' for Inactive)
REMARK    1  A    between atoms: C_1  and  C_2
REMARK    2  A    between atoms: C_2  and  N_3
REMARK    3  A    between atoms: C_20  and  C_26
REMARK    4  A    between atoms: C_20  and  C_28
REMARK    5  A    between atoms: C_21  and  N_25
REMARK    6  A    between atoms: C_22  and  C_23
REMARK                            x       y       z     vdW  Elec       q    Type
REMARK                         _______ _______ _______ _____ _____    ______ ____
ROOT
ATOM      1  N   UNL     1      -0.742   1.582  -1.173  0.00  0.00    -0.298 NA
ATOM      2  C   UNL     1      -0.013   1.086   0.008  0.00  0.00    +0.112 C 
ATOM      3  C   UNL     1      -0.736   1.581   1.236  0.00  0.00    -0.006 C 
ATOM      4  C   UNL     1      -1.357   2.746   1.213  0.00  0.00    -0.025 C 
ATOM      5  C   UNL     1      -1.340   3.659   0.021  0.00  0.00    +0.056 C 
ATOM      6  C   UNL     1      -0.708   3.047  -1.209  0.00  0.00    +0.094 C 
ATOM      7  C   UNL     1      -2.765   4.135  -0.240  0.00  0.00    +0.118 C 
ATOM      8  C   UNL     1      -2.841   4.948  -1.493  0.00  0.00    -0.008 A 
ATOM      9  C   UNL     1      -2.239   6.135  -1.850  0.00  0.00    +0.006 A 
ATOM     10  C   UNL     1      -2.526   6.633  -3.116  0.00  0.00    +0.000 A 
ATOM     11  C   UNL     1      -3.377   5.966  -3.974  0.00  0.00    +0.002 A 
ATOM     12  C   UNL     1      -3.987   4.773  -3.622  0.00  0.00    +0.023 A 
ATOM     13  C   UNL     1      -3.707   4.262  -2.354  0.00  0.00    +0.038 A 
ATOM     14  N   UNL     1      -4.170   3.107  -1.750  0.00  0.00    -0.284 N 
ATOM     15  C   UNL     1      -3.669   2.950  -0.506  0.00  0.00    +0.231 C 
ATOM     16  O   UNL     1      -3.899   2.032   0.253  0.00  0.00    -0.274 OA
ATOM     17  C   UNL     1      -3.277   4.925   0.960  0.00  0.00    +0.199 C 
ATOM     18  C   UNL     1      -3.058   4.184   2.246  0.00  0.00    +0.055 C 
ATOM     19  C   UNL     1      -2.160   3.176   2.385  0.00  0.00    +0.074 C 
ATOM     20  H   UNL     1      -4.865   2.445  -2.288  0.00  0.00    +0.155 HD
ENDROOT
BRANCH  18  21
ATOM     21  N   UNL     1      -3.802   4.543   3.335  0.00  0.00    -0.358 N 
ATOM     22  H   UNL     1      -3.664   4.019   4.292  0.00  0.00    +0.142 HD
ATOM     23  H   UNL     1      -4.538   5.357   3.254  0.00  0.00    +0.142 HD
ENDBRANCH  18  21
BRANCH   1  25
ATOM     24  C   UNL     1      -0.445  -0.497  -2.433  0.00  0.00    +0.020 C 
ATOM     25  C   UNL     1      -0.192   1.012  -2.409  0.00  0.00    +0.081 C 
ENDBRANCH   1  25
BRANCH  19  26
ATOM     26  C   UNL     1      -1.988   2.533   3.653  0.00  0.00    +0.101 C 
ATOM     27  N   UNL     1      -1.851   2.022   4.658  0.00  0.00    -0.191 NA
ENDBRANCH  19  26
BRANCH  17  28
ATOM     28  C   UNL     1      -2.570   6.214   1.023  0.00  0.00    +0.092 C 
ATOM     29  N   UNL     1      -2.025   7.210   1.071  0.00  0.00    -0.194 NA
ENDBRANCH  17  28
BRANCH  17  30
ATOM     30  C   UNL     1      -4.718   5.175   0.792  0.00  0.00    +0.092 C 
ATOM     31  N   UNL     1      -5.830   5.368   0.661  0.00  0.00    -0.194 NA
ENDBRANCH  17  30
TORSDOF 5
