REMARK  Name = ZINC64450386
REMARK  6 active torsions:
REMARK  status: ('A' for Active; 'I' for Inactive)
REMARK    1  A    between atoms: C_1  and  C_2
REMARK    2  A    between atoms: C_2  and  N_3
REMARK    3  A    between atoms: C_5  and  C_9
REMARK    4  A    between atoms: C_6  and  C_8
REMARK    5  A    between atoms: C_18  and  C_30
REMARK    6  A    between atoms: N_20  and  C_21
REMARK                            x       y       z     vdW  Elec       q    Type
REMARK                         _______ _______ _______ _____ _____    ______ ____
ROOT
ATOM      1  C   UNL     1      -4.166  -2.478  -1.248  0.00  0.00    +0.062 C 
ATOM      2  C   UNL     1      -4.419  -1.958  -2.671  0.00  0.00    +0.108 C 
ATOM      3  C   UNL     1      -4.894  -3.040  -3.586  0.00  0.00    +0.215 C 
ATOM      4  O   UNL     1      -5.450  -2.677  -4.601  0.00  0.00    -0.276 OA
ATOM      5  N   UNL     1      -4.778  -4.359  -3.418  0.00  0.00    -0.295 N 
ATOM      6  C   UNL     1      -4.340  -4.948  -2.160  0.00  0.00    +0.194 C 
ATOM      7  C   UNL     1      -3.587  -3.863  -1.403  0.00  0.00    -0.008 C 
ATOM      8  C   UNL     1      -2.461  -4.381  -1.010  0.00  0.00    +0.019 C 
ATOM      9  N   UNL     1      -2.301  -5.669  -1.498  0.00  0.00    -0.277 N 
ATOM     10  N   UNL     1      -3.364  -6.030  -2.316  0.00  0.00    -0.164 NA
ATOM     11  C   UNL     1      -1.458  -3.672  -0.137  0.00  0.00    +0.062 C 
ATOM     12  H   UNL     1      -4.995  -4.946  -4.160  0.00  0.00    +0.151 HD
ATOM     13  H   UNL     1      -1.548  -6.245  -1.293  0.00  0.00    +0.166 HD
ENDROOT
BRANCH  10  14
ATOM     14  C   UNL     1      -3.938  -7.320  -1.911  0.00  0.00    +0.270 C 
ATOM     15  N   UNL     1      -5.082  -7.654  -2.769  0.00  0.00    -0.350 N 
ATOM     16  C   UNL     1      -6.131  -7.747  -2.003  0.00  0.00    +0.061 A 
ATOM     17  C   UNL     1      -7.542  -8.052  -2.275  0.00  0.00    +0.027 A 
ATOM     18  C   UNL     1      -8.425  -8.079  -1.257  0.00  0.00    +0.002 A 
ATOM     19  C   UNL     1      -8.053  -7.827   0.076  0.00  0.00    +0.002 A 
ATOM     20  C   UNL     1      -6.786  -7.537   0.434  0.00  0.00    +0.027 A 
ATOM     21  C   UNL     1      -5.737  -7.480  -0.593  0.00  0.00    +0.061 A 
ATOM     22  N   UNL     1      -4.460  -7.232  -0.541  0.00  0.00    -0.350 N 
ATOM     23  H   UNL     1      -5.060  -7.780  -3.730  0.00  0.00    +0.163 HD
ATOM     24  H   UNL     1      -3.947  -7.026   0.256  0.00  0.00    +0.163 HD
ENDBRANCH  10  14
BRANCH   1  27
ATOM     25  N   UNL     1      -1.420  -0.381  -0.083  0.00  0.00    -0.271 N 
ATOM     26  C   UNL     1      -1.994  -1.162  -1.021  0.00  0.00    +0.112 A 
ATOM     27  C   UNL     1      -3.184  -1.584  -0.536  0.00  0.00    +0.001 A 
ATOM     28  C   UNL     1      -3.344  -1.041   0.744  0.00  0.00    +0.064 A 
ATOM     29  N   UNL     1      -2.284  -0.325   1.019  0.00  0.00    -0.176 NA
ATOM     30  C   UNL     1      -4.529  -1.251   1.651  0.00  0.00    +0.068 C 
BRANCH  25  32
ATOM     31  C   UNL     1      -0.292   1.784   0.065  0.00  0.00    +0.029 C 
ATOM     32  C   UNL     1      -0.120   0.286  -0.193  0.00  0.00    +0.140 C 
ENDBRANCH  25  32
ENDBRANCH   1  27
TORSDOF 3
