REMARK  Name = ZINC59253598
REMARK  6 active torsions:
REMARK  status: ('A' for Active; 'I' for Inactive)
REMARK    1  A    between atoms: C_1  and  O_2
REMARK    2  A    between atoms: O_2  and  C_3
REMARK    3  A    between atoms: C_3  and  C_5
REMARK    4  A    between atoms: C_9  and  N_10
REMARK    5  A    between atoms: C_11  and  C_13
REMARK    6  A    between atoms: C_19  and  C_21
REMARK                            x       y       z     vdW  Elec       q    Type
REMARK                         _______ _______ _______ _____ _____    ______ ____
ROOT
ATOM      1  N   UNL     1      -1.695  -2.882  -2.377  0.00  0.00    -0.279 N 
ATOM      2  C   UNL     1      -1.645  -3.620  -3.504  0.00  0.00    +0.221 C 
ATOM      3  O   UNL     1      -1.670  -4.831  -3.438  0.00  0.00    -0.275 OA
ATOM      4  H   UNL     1      -1.675  -1.914  -2.430  0.00  0.00    +0.155 HD
ENDROOT
BRANCH   1   9
ATOM      5  C   UNL     1      -1.835  -2.917   0.110  0.00  0.00    +0.091 A 
ATOM      6  C   UNL     1      -1.921  -3.802   1.264  0.00  0.00    -0.021 A 
ATOM      7  C   UNL     1      -1.919  -5.114   0.948  0.00  0.00    -0.004 A 
ATOM      8  S   UNL     1      -1.819  -5.154  -0.820  0.00  0.00    -0.077 S 
ATOM      9  C   UNL     1      -1.775  -3.507  -1.142  0.00  0.00    +0.086 A 
ATOM     10  C   UNL     1      -1.976  -6.280   1.885  0.00  0.00    +0.043 C 
ATOM     11  C   UNL     1      -3.114  -6.062   2.892  0.00  0.00    +0.005 C 
ATOM     12  C   UNL     1      -2.561  -5.304   4.095  0.00  0.00    +0.001 C 
ATOM     13  C   UNL     1      -1.459  -4.343   3.653  0.00  0.00    +0.005 C 
ATOM     14  C   UNL     1      -2.018  -3.296   2.695  0.00  0.00    +0.037 C 
BRANCH   5  15
ATOM     15  C   UNL     1      -1.818  -1.461   0.266  0.00  0.00    +0.342 C 
ATOM     16  O   UNL     1      -2.863  -0.838   0.272  0.00  0.00    -0.245 OA
BRANCH  15  18
ATOM     17  C   UNL     1      -0.703   0.609   0.552  0.00  0.00    +0.280 C 
ATOM     18  O   UNL     1      -0.644  -0.811   0.404  0.00  0.00    -0.464 OA
ENDBRANCH  15  18
ENDBRANCH   5  15
ENDBRANCH   1   9
BRANCH   2  19
ATOM     19  C   UNL     1      -1.558  -2.940  -4.846  0.00  0.00    +0.078 C 
ATOM     20  C   UNL     1      -2.782  -2.043  -5.043  0.00  0.00    +0.032 C 
ATOM     21  C   UNL     1      -2.673  -1.328  -6.394  0.00  0.00    +0.109 C 
ATOM     22  N   UNL     1      -2.486  -2.333  -7.448  0.00  0.00    -0.297 N 
ATOM     23  C   UNL     1      -1.391  -3.304  -7.311  0.00  0.00    +0.109 C 
ATOM     24  C   UNL     1      -1.515  -3.998  -5.951  0.00  0.00    +0.032 C 
ATOM     25  C   UNL     1      -3.302  -2.365  -8.520  0.00  0.00    +0.250 C 
ATOM     26  O   UNL     1      -3.095  -3.158  -9.418  0.00  0.00    -0.270 OA
BRANCH  25  27
ATOM     27  C   UNL     1      -4.444  -1.438  -8.604  0.00  0.00    +0.074 A 
ATOM     28  C   UNL     1      -4.462  -0.014  -8.238  0.00  0.00    +0.054 A 
ATOM     29  C   UNL     1      -5.710   0.414  -8.483  0.00  0.00    +0.195 A 
ATOM     30  O   UNL     1      -6.440  -0.607  -8.956  0.00  0.00    -0.470 OA
ATOM     31  C   UNL     1      -5.705  -1.720  -9.042  0.00  0.00    +0.207 A 
ENDBRANCH  25  27
ENDBRANCH   2  19
TORSDOF 5
