REMARK  Name = ZINC06156830
REMARK  4 active torsions:
REMARK  status: ('A' for Active; 'I' for Inactive)
REMARK    1  A    between atoms: C_6  and  S_7
REMARK    2  A    between atoms: S_7  and  N_10
REMARK    3  A    between atoms: N_13  and  C_16
REMARK    4  A    between atoms: C_19  and  C_21
REMARK                            x       y       z     vdW  Elec       q    Type
REMARK                         _______ _______ _______ _____ _____    ______ ____
ROOT
ATOM      1  N   UNL     1       4.337  -1.074  -1.641  0.00  0.00    -0.174 NA
ATOM      2  C   UNL     1       3.907  -2.281  -2.363  0.00  0.00    +0.128 C 
ATOM      3  C   UNL     1       3.233  -1.844  -3.673  0.00  0.00    +0.123 C 
ATOM      4  N   UNL     1       4.146  -0.968  -4.419  0.00  0.00    -0.314 N 
ATOM      5  C   UNL     1       4.426   0.268  -3.675  0.00  0.00    +0.123 C 
ATOM      6  C   UNL     1       5.143  -0.080  -2.366  0.00  0.00    +0.128 C 
ENDROOT
BRANCH   4   7
ATOM      7  C   UNL     1       3.643  -0.685  -5.684  0.00  0.00    +0.099 A 
ATOM      8  C   UNL     1       3.321  -1.727  -6.546  0.00  0.00    +0.042 A 
ATOM      9  C   UNL     1       2.815  -1.431  -7.800  0.00  0.00    +0.017 A 
ATOM     10  C   UNL     1       2.660  -0.097  -8.153  0.00  0.00    +0.071 A 
ATOM     11  C   UNL     1       3.006   0.887  -7.249  0.00  0.00    +0.096 A 
ATOM     12  N   UNL     1       3.499   0.633  -6.008  0.00  0.00    -0.349 N 
ATOM     13  H   UNL     1       3.748   1.385  -5.355  0.00  0.00    +0.167 HD
BRANCH  10  14
ATOM     14  C   UNL     1       2.118   0.272  -9.510  0.00  0.00    +0.419 C 
ATOM     15  F   UNL     1       2.056   1.665  -9.624  0.00  0.00    -0.166 F 
ATOM     16  F   UNL     1       2.960  -0.240 -10.503  0.00  0.00    -0.166 F 
ATOM     17  F   UNL     1       0.836  -0.266  -9.663  0.00  0.00    -0.166 F 
ENDBRANCH  10  14
ENDBRANCH   4   7
BRANCH   1  18
ATOM     18  S   UNL     1       3.931  -0.843  -0.052  0.00  0.00    +0.061 S 
ATOM     19  O   UNL     1       4.904   0.038   0.492  0.00  0.00    -0.153 OA
ATOM     20  O   UNL     1       3.679  -2.131   0.494  0.00  0.00    -0.153 OA
BRANCH  18  26
ATOM     21  C   UNL     1       1.208  -0.680  -0.016  0.00  0.00    +0.032 A 
ATOM     22  C   UNL     1       0.002  -0.004   0.002  0.00  0.00    +0.051 A 
ATOM     23  C   UNL     1      -0.017   1.382   0.010  0.00  0.00    +0.162 A 
ATOM     24  C   UNL     1       1.180   2.090   0.002  0.00  0.00    +0.164 A 
ATOM     25  C   UNL     1       2.386   1.406  -0.017  0.00  0.00    +0.078 A 
ATOM     26  C   UNL     1       2.397   0.023  -0.027  0.00  0.00    +0.109 A 
ATOM     27  O   UNL     1       1.184   3.451   0.018  0.00  0.00    -0.485 OA
ATOM     28  C   UNL     1      -0.040   4.103  -0.340  0.00  0.00    +0.270 C 
ATOM     29  C   UNL     1      -1.188   3.413   0.408  0.00  0.00    +0.270 C 
ATOM     30  O   UNL     1      -1.211   2.034   0.019  0.00  0.00    -0.485 OA
ENDBRANCH  18  26
ENDBRANCH   1  18
TORSDOF 4
