REMARK  Name = ZINC40053034
REMARK  16 active torsions:
REMARK  status: ('A' for Active; 'I' for Inactive)
REMARK    1  A    between atoms: C_1  and  C_2
REMARK    2  A    between atoms: C_2  and  C_3
REMARK    3  A    between atoms: C_2  and  C_4
REMARK    4  A    between atoms: C_2  and  C_5
REMARK    5  A    between atoms: C_7  and  C_16
REMARK    6  A    between atoms: C_9  and  C_12
REMARK    7  A    between atoms: C_10  and  O_11
REMARK    8  A    between atoms: C_12  and  C_13
REMARK    9  A    between atoms: C_12  and  C_14
REMARK   10  A    between atoms: C_12  and  C_15
REMARK   11  A    between atoms: C_18  and  C_28
REMARK   12  A    between atoms: N_22  and  C_23
REMARK   13  A    between atoms: C_23  and  C_24
REMARK   14  A    between atoms: C_24  and  C_25
REMARK   15  A    between atoms: C_25  and  O_26
REMARK   16  A    between atoms: C_28  and  C_30
REMARK                            x       y       z     vdW  Elec       q    Type
REMARK                         _______ _______ _______ _____ _____    ______ ____
ROOT
ATOM      1  C   UNL     1       2.185   0.858  -4.351  0.00  0.00    +0.145 C 
ATOM      2  C   UNL     1       1.212   1.265  -5.433  0.00  0.00    +0.076 C 
ATOM      3  C   UNL     1       1.796   0.965  -6.617  0.00  0.00    +0.249 C 
ATOM      4  C   UNL     1       3.126   0.371  -6.365  0.00  0.00    +0.288 C 
ATOM      5  O   UNL     1       3.896  -0.003  -7.226  0.00  0.00    -0.266 OA
ATOM      6  N   UNL     1       3.358   0.307  -5.040  0.00  0.00    -0.283 N 
ATOM      7  O   UNL     1       1.249   1.174  -7.836  0.00  0.00    -0.282 OA
ENDROOT
BRANCH   1  10
ATOM      8  C   UNL     1       0.688  -0.850  -1.336  0.00  0.00    +0.000 A 
ATOM      9  C   UNL     1       1.257   0.110  -2.151  0.00  0.00    +0.013 A 
ATOM     10  C   UNL     1       1.565  -0.191  -3.465  0.00  0.00    -0.022 A 
ATOM     11  C   UNL     1       1.304  -1.452  -3.966  0.00  0.00    +0.013 A 
ATOM     12  C   UNL     1       0.735  -2.416  -3.156  0.00  0.00    +0.000 A 
ATOM     13  C   UNL     1       0.431  -2.118  -1.835  0.00  0.00    +0.124 A 
BRANCH   8  15
ATOM     14  C   UNL     1       0.720   0.936   0.384  0.00  0.00    +0.015 C 
ATOM     15  C   UNL     1       0.353  -0.521   0.096  0.00  0.00    -0.009 C 
ATOM     16  C   UNL     1       1.145  -1.440   1.029  0.00  0.00    +0.015 C 
ATOM     17  C   UNL     1      -1.145  -0.725   0.329  0.00  0.00    +0.015 C 
ENDBRANCH   8  15
BRANCH  12  18
ATOM     18  C   UNL     1       0.451  -3.791  -3.704  0.00  0.00    -0.009 C 
ATOM     19  C   UNL     1       0.884  -3.855  -5.170  0.00  0.00    +0.015 C 
ATOM     20  C   UNL     1       1.229  -4.832  -2.896  0.00  0.00    +0.015 C 
ATOM     21  C   UNL     1      -1.048  -4.081  -3.601  0.00  0.00    +0.015 C 
ENDBRANCH  12  18
BRANCH  13  22
ATOM     22  O   UNL     1      -0.123  -3.066  -1.034  0.00  0.00    -0.506 OA
ATOM     23  H   UNL     1      -1.090  -3.078  -1.051  0.00  0.00    +0.292 HD
ENDBRANCH  13  22
ENDBRANCH   1  10
BRANCH   2  24
ATOM     24  C   UNL     1      -0.111   1.868  -5.239  0.00  0.00    +0.195 C 
ATOM     25  O   UNL     1      -1.104   1.306  -5.660  0.00  0.00    -0.287 OA
BRANCH  24  26
ATOM     26  C   UNL     1      -0.237   3.157  -4.531  0.00  0.00    +0.026 A 
ATOM     27  C   UNL     1       0.908   3.864  -4.151  0.00  0.00    +0.015 A 
ATOM     28  C   UNL     1       0.787   5.065  -3.490  0.00  0.00    +0.050 A 
ATOM     29  C   UNL     1      -0.471   5.582  -3.199  0.00  0.00    +0.162 A 
ATOM     30  C   UNL     1      -1.616   4.884  -3.577  0.00  0.00    +0.163 A 
ATOM     31  C   UNL     1      -1.501   3.679  -4.244  0.00  0.00    +0.061 A 
ATOM     32  O   UNL     1      -2.854   5.380  -3.306  0.00  0.00    -0.485 OA
ATOM     33  C   UNL     1      -2.932   6.409  -2.314  0.00  0.00    +0.270 C 
ATOM     34  C   UNL     1      -1.830   7.437  -2.601  0.00  0.00    +0.270 C 
ATOM     35  O   UNL     1      -0.566   6.768  -2.542  0.00  0.00    -0.485 OA
ENDBRANCH  24  26
ENDBRANCH   2  24
BRANCH   6  36
ATOM     36  C   UNL     1       4.566  -0.218  -4.399  0.00  0.00    +0.111 C 
BRANCH  36  37
ATOM     37  C   UNL     1       4.393  -1.716  -4.136  0.00  0.00    +0.047 C 
BRANCH  37  38
ATOM     38  C   UNL     1       5.654  -2.265  -3.467  0.00  0.00    +0.157 C 
BRANCH  38  39
ATOM     39  O   UNL     1       5.493  -3.663  -3.221  0.00  0.00    -0.395 OA
ATOM     40  H   UNL     1       6.256  -4.079  -2.798  0.00  0.00    +0.209 HD
ENDBRANCH  38  39
ENDBRANCH  37  38
ENDBRANCH  36  37
ENDBRANCH   6  36
TORSDOF 10
