REMARK  Name = ZINC02413680
REMARK  12 active torsions:
REMARK  status: ('A' for Active; 'I' for Inactive)
REMARK    1  A    between atoms: C_1  and  C_2
REMARK    2  A    between atoms: C_5  and  C_8
REMARK    3  A    between atoms: C_8  and  O_9
REMARK    4  A    between atoms: O_9  and  C_10
REMARK    5  A    between atoms: C_13  and  C_18
REMARK    6  A    between atoms: C_15  and  O_16
REMARK    7  A    between atoms: O_16  and  C_17
REMARK    8  A    between atoms: N_33  and  C_34
REMARK    9  A    between atoms: C_34  and  C_35
REMARK   10  A    between atoms: C_35  and  N_67
REMARK   11  A    between atoms: C_36  and  N_67
REMARK   12  A    between atoms: C_37  and  N_67
REMARK                            x       y       z     vdW  Elec       q    Type
REMARK                         _______ _______ _______ _____ _____    ______ ____
ROOT
ATOM      1  C   UNL     1      -5.188   3.354   0.046  0.00  0.00    +0.145 C 
ATOM      2  C   UNL     1      -3.717   3.028   0.037  0.00  0.00    +0.072 A 
ATOM      3  C   UNL     1      -2.515   3.866   0.044  0.00  0.00    +0.199 A 
ATOM      4  O   UNL     1      -2.582   5.082   0.050  0.00  0.00    -0.287 OA
ATOM      5  C   UNL     1      -1.217   3.162   0.029  0.00  0.00    +0.064 A 
ATOM      6  C   UNL     1      -0.011   3.860   0.021  0.00  0.00    +0.015 A 
ATOM      7  C   UNL     1       1.170   3.170   0.007  0.00  0.00    +0.001 A 
ATOM      8  C   UNL     1       1.170   1.782   0.001  0.00  0.00    +0.004 A 
ATOM      9  C   UNL     1      -0.013   1.076   0.008  0.00  0.00    +0.047 A 
ATOM     10  C   UNL     1      -1.227   1.757   0.017  0.00  0.00    +0.139 A 
ATOM     11  O   UNL     1      -2.391   1.082   0.020  0.00  0.00    -0.450 OA
ATOM     12  C   UNL     1      -3.599   1.678   0.029  0.00  0.00    +0.199 A 
ATOM     13  C   UNL     1      -4.962   1.090   0.033  0.00  0.00    +0.283 C 
ATOM     14  O   UNL     1      -5.206  -0.100   0.028  0.00  0.00    -0.267 OA
ATOM     15  N   UNL     1      -5.889   2.064   0.043  0.00  0.00    -0.285 N 
ENDROOT
BRANCH   1  19
ATOM     16  C   UNL     1      -6.220   5.594  -3.448  0.00  0.00    +0.162 A 
ATOM     17  C   UNL     1      -6.050   4.221  -3.527  0.00  0.00    +0.050 A 
ATOM     18  C   UNL     1      -5.712   3.501  -2.397  0.00  0.00    +0.009 A 
ATOM     19  C   UNL     1      -5.552   4.145  -1.184  0.00  0.00    -0.019 A 
ATOM     20  C   UNL     1      -5.720   5.515  -1.099  0.00  0.00    +0.055 A 
ATOM     21  C   UNL     1      -6.054   6.244  -2.229  0.00  0.00    +0.162 A 
BRANCH  21  22
ATOM     22  O   UNL     1      -6.220   7.591  -2.146  0.00  0.00    -0.491 OA
ATOM     23  C   UNL     1      -6.033   8.190  -0.863  0.00  0.00    +0.277 C 
ENDBRANCH  21  22
BRANCH  16  24
ATOM     24  O   UNL     1      -6.549   6.305  -4.560  0.00  0.00    -0.484 OA
BRANCH  24  25
ATOM     25  C   UNL     1      -6.703   5.572  -5.777  0.00  0.00    +0.264 C 
BRANCH  25  30
ATOM     26  C   UNL     1      -8.088   9.204 -10.053  0.00  0.00    +0.044 C 
ATOM     27  C   UNL     1      -7.727   8.256  -8.938  0.00  0.00    -0.050 A 
ATOM     28  C   UNL     1      -6.399   7.981  -8.668  0.00  0.00    +0.004 A 
ATOM     29  C   UNL     1      -6.068   7.112  -7.645  0.00  0.00    +0.007 A 
ATOM     30  C   UNL     1      -7.064   6.519  -6.892  0.00  0.00    -0.010 A 
ATOM     31  C   UNL     1      -8.391   6.791  -7.165  0.00  0.00    +0.007 A 
ATOM     32  C   UNL     1      -8.723   7.664  -8.184  0.00  0.00    +0.004 A 
ENDBRANCH  25  30
ENDBRANCH  24  25
ENDBRANCH  16  24
ENDBRANCH   1  19
BRANCH  15  33
ATOM     33  C   UNL     1      -7.341   1.872   0.050  0.00  0.00    +0.090 C 
BRANCH  33  34
ATOM     34  C   UNL     1      -7.855   1.813  -1.390  0.00  0.00    -0.060 C 
BRANCH  34  37
ATOM     35  C   UNL     1      -9.994   2.791  -0.815  0.00  0.00    -0.097 C 
ATOM     36  C   UNL     1      -9.810   1.323  -2.732  0.00  0.00    -0.097 C 
ATOM     37  N   UNL     1      -9.317   1.598  -1.366  0.00  0.00    +0.377 N 
ATOM     38  H   UNL     1      -9.525   0.790  -0.767  0.00  0.00    -0.083 HD
ENDBRANCH  34  37
ENDBRANCH  33  34
ENDBRANCH  15  33
TORSDOF 8
