REMARK  Name = ZINC04535489
REMARK  4 active torsions:
REMARK  status: ('A' for Active; 'I' for Inactive)
REMARK    1  A    between atoms: C_1  and  C_2
REMARK    2  A    between atoms: C_5  and  N_9
REMARK    3  A    between atoms: C_6  and  C_8
REMARK    4  A    between atoms: C_12  and  C_17
REMARK                            x       y       z     vdW  Elec       q    Type
REMARK                         _______ _______ _______ _____ _____    ______ ____
ROOT
ATOM      1  N   UNL     1      -0.011   0.966   0.007  0.00  0.00    -0.283 N 
ATOM      2  C   UNL     1       1.203   1.620   0.081  0.00  0.00    +0.224 A 
ATOM      3  N   UNL     1       2.333   0.920   0.169  0.00  0.00    -0.198 NA
ATOM      4  C   UNL     1       3.495   1.545   0.239  0.00  0.00    +0.146 A 
ATOM      5  N   UNL     1       3.541   2.866   0.222  0.00  0.00    -0.199 NA
ATOM      6  C   UNL     1       2.417   3.572   0.134  0.00  0.00    +0.217 A 
ATOM      7  N   UNL     1       1.246   2.947   0.058  0.00  0.00    -0.181 NA
ATOM      8  N   UNL     1       2.466   4.951   0.116  0.00  0.00    -0.327 N 
ATOM      9  H   UNL     1      -0.037  -0.000  -0.075  0.00  0.00    +0.155 HD
ATOM     10  H   UNL     1       3.321   5.406   0.168  0.00  0.00    +0.145 HD
ATOM     11  H   UNL     1       1.646   5.465   0.052  0.00  0.00    +0.145 HD
ENDROOT
BRANCH   1  16
ATOM     12  C   UNL     1      -4.844   3.932   0.163  0.00  0.00    +0.044 C 
ATOM     13  C   UNL     1      -3.560   3.144   0.121  0.00  0.00    -0.050 A 
ATOM     14  C   UNL     1      -2.393   3.699   0.616  0.00  0.00    +0.005 A 
ATOM     15  C   UNL     1      -1.216   2.977   0.585  0.00  0.00    +0.024 A 
ATOM     16  C   UNL     1      -1.202   1.697   0.045  0.00  0.00    +0.037 A 
ATOM     17  C   UNL     1      -2.375   1.143  -0.451  0.00  0.00    -0.029 A 
ATOM     18  C   UNL     1      -3.550   1.868  -0.412  0.00  0.00    +0.008 A 
ATOM     19  C   UNL     1      -2.365  -0.247  -1.032  0.00  0.00    +0.045 C 
ENDBRANCH   1  16
BRANCH   4  20
ATOM     20  C   UNL     1       4.771   0.750   0.338  0.00  0.00    +0.123 C 
ATOM     21  C   UNL     1       5.685   1.068  -0.863  0.00  0.00    +0.019 C 
ATOM     22  C   UNL     1       7.110   1.065  -0.253  0.00  0.00    +0.009 C 
ATOM     23  C   UNL     1       6.874   1.699   1.141  0.00  0.00    +0.075 C 
ATOM     24  C   UNL     1       5.532   1.145   1.586  0.00  0.00    +0.144 C 
ATOM     25  O   UNL     1       5.144   1.040   2.724  0.00  0.00    -0.297 OA
ENDBRANCH   4  20
TORSDOF 2
