REMARK  Name = ZINC05103802
REMARK  10 active torsions:
REMARK  status: ('A' for Active; 'I' for Inactive)
REMARK    1  A    between atoms: C_1  and  C_2
REMARK    2  A    between atoms: N_4  and  C_5
REMARK    3  A    between atoms: C_10  and  O_11
REMARK    4  A    between atoms: O_11  and  C_12
REMARK    5  A    between atoms: C_15  and  C_18
REMARK    6  A    between atoms: C_18  and  O_19
REMARK    7  A    between atoms: O_19  and  C_20
REMARK    8  A    between atoms: C_20  and  C_22
REMARK    9  A    between atoms: C_25  and  O_29
REMARK   10  A    between atoms: C_27  and  O_28
REMARK                            x       y       z     vdW  Elec       q    Type
REMARK                         _______ _______ _______ _____ _____    ______ ____
ROOT
ATOM      1  C   UNL     1      -0.018   1.503   0.010  0.00  0.00    +0.110 C 
ATOM      2  C   UNL     1       0.002  -0.004   0.002  0.00  0.00    +0.223 C 
ATOM      3  O   UNL     1       1.061  -0.596  -0.011  0.00  0.00    -0.275 OA
ATOM      4  N   UNL     1      -1.156  -0.694   0.009  0.00  0.00    -0.215 N 
ATOM      5  C   UNL     1      -2.370  -0.015   0.025  0.00  0.00    +0.172 A 
ATOM      6  N   UNL     1      -2.580   1.284   0.028  0.00  0.00    -0.226 NA
ATOM      7  C   UNL     1      -3.804   1.777   0.043  0.00  0.00    +0.088 A 
ATOM      8  C   UNL     1      -4.827   0.886   0.054  0.00  0.00    +0.075 A 
ATOM      9  S   UNL     1      -3.926  -0.655   0.035  0.00  0.00    -0.060 S 
ENDROOT
BRANCH   4  10
ATOM     10  C   UNL     1      -1.137  -2.096   0.002  0.00  0.00    +0.085 A 
ATOM     11  C   UNL     1      -1.122  -2.798   1.198  0.00  0.00    +0.027 A 
ATOM     12  C   UNL     1      -1.103  -4.180   1.188  0.00  0.00    +0.002 A 
ATOM     13  C   UNL     1      -1.100  -4.866  -0.013  0.00  0.00    +0.004 A 
ATOM     14  C   UNL     1      -1.115  -4.173  -1.209  0.00  0.00    +0.047 A 
ATOM     15  C   UNL     1      -1.139  -2.788  -1.207  0.00  0.00    +0.142 A 
BRANCH  15  16
ATOM     16  O   UNL     1      -1.159  -2.105  -2.383  0.00  0.00    -0.493 OA
ATOM     17  C   UNL     1      -1.160  -2.881  -3.583  0.00  0.00    +0.277 C 
ENDBRANCH  15  16
ENDBRANCH   4  10
BRANCH   7  18
ATOM     18  C   UNL     1      -4.055   3.263   0.048  0.00  0.00    +0.288 C 
BRANCH  18  19
ATOM     19  O   UNL     1      -5.462   3.509   0.065  0.00  0.00    -0.455 OA
BRANCH  19  20
ATOM     20  C   UNL     1      -5.858   4.797   0.071  0.00  0.00    +0.343 C 
ATOM     21  O   UNL     1      -5.031   5.687   0.062  0.00  0.00    -0.245 OA
BRANCH  20  22
ATOM     22  C   UNL     1      -7.292   5.126   0.089  0.00  0.00    +0.100 A 
ATOM     23  C   UNL     1      -8.247   4.104   0.105  0.00  0.00    +0.022 A 
ATOM     24  C   UNL     1      -9.578   4.410   0.121  0.00  0.00    +0.046 A 
ATOM     25  C   UNL     1      -9.994   5.739   0.121  0.00  0.00    +0.120 A 
ATOM     26  C   UNL     1      -9.060   6.764   0.105  0.00  0.00    +0.091 A 
ATOM     27  C   UNL     1      -7.708   6.467   0.095  0.00  0.00    +0.134 A 
BRANCH  27  28
ATOM     28  O   UNL     1      -6.790   7.466   0.085  0.00  0.00    -0.506 OA
ATOM     29  H   UNL     1      -6.535   7.756  -0.801  0.00  0.00    +0.292 HD
ENDBRANCH  27  28
BRANCH  25  30
ATOM     30  O   UNL     1     -11.319   6.031   0.137  0.00  0.00    -0.507 OA
ATOM     31  H   UNL     1     -11.692   6.119   1.024  0.00  0.00    +0.292 HD
ENDBRANCH  25  30
ENDBRANCH  20  22
ENDBRANCH  19  20
ENDBRANCH  18  19
ENDBRANCH   7  18
TORSDOF 8
