REMARK  Name = ZINC36593524
REMARK  20 active torsions:
REMARK  status: ('A' for Active; 'I' for Inactive)
REMARK    1  A    between atoms: C_1  and  C_2
REMARK    2  A    between atoms: C_2  and  C_3
REMARK    3  A    between atoms: C_2  and  C_4
REMARK    4  A    between atoms: C_2  and  C_5
REMARK    5  A    between atoms: C_5  and  C_6
REMARK    6  A    between atoms: C_6  and  C_7
REMARK    7  A    between atoms: C_6  and  C_8
REMARK    8  A    between atoms: C_6  and  N_9
REMARK    9  A    between atoms: C_10  and  C_12
REMARK   10  A    between atoms: C_12  and  C_14
REMARK   11  A    between atoms: C_12  and  N_23
REMARK   12  A    between atoms: C_15  and  O_22
REMARK   13  A    between atoms: C_17  and  O_21
REMARK   14  A    between atoms: C_19  and  O_20
REMARK   15  A    between atoms: N_23  and  C_35
REMARK   16  A    between atoms: C_24  and  C_26
REMARK   17  A    between atoms: C_29  and  N_32
REMARK   18  A    between atoms: C_35  and  C_36
REMARK   19  A    between atoms: C_35  and  C_37
REMARK   20  A    between atoms: C_35  and  C_38
REMARK                            x       y       z     vdW  Elec       q    Type
REMARK                         _______ _______ _______ _____ _____    ______ ____
ROOT
ATOM      1  C   UNL     1       7.615  -3.856  -5.339  0.00  0.00    +0.200 C 
ENDROOT
BRANCH   1   2
ATOM      2  C   UNL     1       7.115  -5.161  -5.903  0.00  0.00    +0.065 A 
ATOM      3  C   UNL     1       7.262  -5.434  -7.255  0.00  0.00    +0.129 A 
ATOM      4  C   UNL     1       6.802  -6.634  -7.774  0.00  0.00    +0.091 A 
ATOM      5  C   UNL     1       6.195  -7.563  -6.941  0.00  0.00    +0.124 A 
ATOM      6  C   UNL     1       6.049  -7.291  -5.589  0.00  0.00    +0.091 A 
ATOM      7  C   UNL     1       6.513  -6.092  -5.069  0.00  0.00    +0.129 A 
BRANCH   7   8
ATOM      8  O   UNL     1       6.375  -5.827  -3.744  0.00  0.00    -0.506 OA
ATOM      9  H   UNL     1       5.547  -5.381  -3.516  0.00  0.00    +0.292 HD
ENDBRANCH   7   8
BRANCH   5  10
ATOM     10  O   UNL     1       5.744  -8.739  -7.450  0.00  0.00    -0.507 OA
ATOM     11  H   UNL     1       6.399  -9.450  -7.438  0.00  0.00    +0.292 HD
ENDBRANCH   5  10
BRANCH   3  12
ATOM     12  O   UNL     1       7.856  -4.524  -8.071  0.00  0.00    -0.506 OA
ATOM     13  H   UNL     1       8.801  -4.677  -8.209  0.00  0.00    +0.292 HD
ENDBRANCH   3  12
ENDBRANCH   1   2
BRANCH   1  15
ATOM     14  N   UNL     1       9.881  -3.811  -6.329  0.00  0.00    -0.308 N 
ATOM     15  C   UNL     1       8.648  -3.271  -6.267  0.00  0.00    +0.239 C 
ATOM     16  O   UNL     1       8.370  -2.313  -6.957  0.00  0.00    -0.273 OA
ATOM     17  H   UNL     1      10.104  -4.577  -5.777  0.00  0.00    +0.149 HD
BRANCH  14  18
ATOM     18  C   UNL     1      10.886  -3.242  -7.231  0.00  0.00    +0.030 C 
ATOM     19  C   UNL     1      11.113  -1.771  -6.878  0.00  0.00    +0.031 C 
ATOM     20  C   UNL     1      10.393  -3.350  -8.676  0.00  0.00    +0.031 C 
BRANCH  18  21
ATOM     21  C   UNL     1      12.200  -4.012  -7.082  0.00  0.00    +0.031 C 
BRANCH  21  23
ATOM     22  C   UNL     1      11.988  -5.640  -5.198  0.00  0.00    +0.010 C 
ATOM     23  C   UNL     1      12.486  -4.249  -5.598  0.00  0.00    -0.036 C 
ATOM     24  C   UNL     1      11.764  -3.190  -4.763  0.00  0.00    +0.010 C 
ATOM     25  C   UNL     1      13.992  -4.156  -5.348  0.00  0.00    +0.010 C 
ENDBRANCH  21  23
ENDBRANCH  18  21
ENDBRANCH  14  18
ENDBRANCH   1  15
BRANCH   1  26
ATOM     26  N   UNL     1       6.495  -2.921  -5.204  0.00  0.00    -0.277 N 
ATOM     27  C   UNL     1       5.234  -3.345  -5.422  0.00  0.00    +0.248 C 
ATOM     28  O   UNL     1       4.972  -4.530  -5.365  0.00  0.00    -0.270 OA
BRANCH  27  29
ATOM     29  C   UNL     1       4.169  -2.366  -5.732  0.00  0.00    +0.037 A 
ATOM     30  C   UNL     1       4.502  -1.067  -6.118  0.00  0.00    +0.015 A 
ATOM     31  C   UNL     1       3.504  -0.159  -6.405  0.00  0.00    +0.033 A 
ATOM     32  C   UNL     1       2.175  -0.535  -6.312  0.00  0.00    +0.126 A 
ATOM     33  C   UNL     1       1.839  -1.821  -5.930  0.00  0.00    +0.033 A 
ATOM     34  C   UNL     1       2.827  -2.740  -5.645  0.00  0.00    +0.015 A 
BRANCH  32  35
ATOM     35  N   UNL     1       1.109   0.445  -6.622  0.00  0.00    +0.056 N 
ATOM     36  O   UNL     1       1.401   1.569  -6.956  0.00  0.00    -0.126 OA
ATOM     37  O   UNL     1      -0.052   0.119  -6.541  0.00  0.00    -0.126 OA
ENDBRANCH  32  35
ENDBRANCH  27  29
BRANCH  26  38
ATOM     38  C   UNL     1       6.745  -1.527  -4.830  0.00  0.00    +0.030 C 
ATOM     39  C   UNL     1       7.872  -1.470  -3.796  0.00  0.00    +0.031 C 
ATOM     40  C   UNL     1       7.152  -0.732  -6.072  0.00  0.00    +0.031 C 
ATOM     41  C   UNL     1       5.473  -0.923  -4.232  0.00  0.00    +0.031 C 
ENDBRANCH  26  38
ENDBRANCH   1  26
TORSDOF 12
