REMARK  Name = ZINC30559288
REMARK  5 active torsions:
REMARK  status: ('A' for Active; 'I' for Inactive)
REMARK    1  A    between atoms: C_2  and  C_3
REMARK    2  A    between atoms: C_3  and  N_4
REMARK    3  A    between atoms: N_4  and  C_5
REMARK    4  A    between atoms: C_5  and  C_6
REMARK    5  A    between atoms: C_11  and  C_13
REMARK                            x       y       z     vdW  Elec       q    Type
REMARK                         _______ _______ _______ _____ _____    ______ ____
ROOT
ATOM      1  C   UNL     1      -3.206   4.211   1.331  0.00  0.00    +0.078 C 
ATOM      2  C   UNL     1      -2.220   5.172   0.661  0.00  0.00    +0.032 C 
ATOM      3  C   UNL     1      -0.790   4.694   0.926  0.00  0.00    +0.107 C 
ATOM      4  N   UNL     1      -0.619   3.337   0.392  0.00  0.00    -0.314 N 
ATOM      5  C   UNL     1      -1.523   2.388   1.053  0.00  0.00    +0.107 C 
ATOM      6  C   UNL     1      -2.974   2.797   0.791  0.00  0.00    +0.032 C 
ATOM      7  C   UNL     1       0.704   2.923   0.498  0.00  0.00    +0.142 A 
ATOM      8  C   UNL     1       1.072   1.643   0.037  0.00  0.00    +0.049 A 
ATOM      9  C   UNL     1       2.363   1.230   0.131  0.00  0.00    +0.053 A 
ATOM     10  C   UNL     1       3.321   2.095   0.693  0.00  0.00    +0.178 A 
ATOM     11  N   UNL     1       4.621   1.998   0.922  0.00  0.00    -0.128 NA
ATOM     12  N   UNL     1       5.038   3.087   1.466  0.00  0.00    -0.136 NA
ATOM     13  C   UNL     1       4.045   3.929   1.614  0.00  0.00    +0.249 A 
ATOM     14  N   UNL     1       2.931   3.336   1.133  0.00  0.00    -0.198 N 
ATOM     15  N   UNL     1       1.596   3.731   1.022  0.00  0.00    -0.149 NA
ENDROOT
BRANCH   1  17
ATOM     16  N   UNL     1      -5.644   4.155   1.747  0.00  0.00    -0.293 N 
ATOM     17  C   UNL     1      -4.617   4.643   1.023  0.00  0.00    +0.219 C 
ATOM     18  O   UNL     1      -4.828   5.429   0.124  0.00  0.00    -0.275 OA
BRANCH  16  19
ATOM     19  C   UNL     1      -5.382   3.287   2.898  0.00  0.00    +0.135 C 
BRANCH  19  21
ATOM     20  C   UNL     1      -5.782   3.974   5.206  0.00  0.00    +0.005 C 
ATOM     21  C   UNL     1      -5.085   4.133   4.108  0.00  0.00    -0.016 C 
ENDBRANCH  19  21
ENDBRANCH  16  19
BRANCH  16  22
ATOM     22  C   UNL     1      -7.022   4.492   1.383  0.00  0.00    +0.150 C 
BRANCH  22  23
ATOM     23  C   UNL     1      -7.550   3.469   0.411  0.00  0.00    +0.007 A 
ATOM     24  C   UNL     1      -8.204   2.309   0.665  0.00  0.00    +0.013 A 
ATOM     25  C   UNL     1      -8.601   1.517  -0.396  0.00  0.00    +0.008 A 
ATOM     26  C   UNL     1      -8.325   1.924  -1.659  0.00  0.00    +0.045 A 
ATOM     27  S   UNL     1      -7.485   3.473  -1.373  0.00  0.00    -0.100 S 
ENDBRANCH  22  23
ENDBRANCH  16  22
ENDBRANCH   1  17
TORSDOF 5
