REMARK  Name = ZINC17014720
REMARK  2 active torsions:
REMARK  status: ('A' for Active; 'I' for Inactive)
REMARK    1  A    between atoms: C_11  and  C_16
REMARK    2  A    between atoms: N_23  and  C_26
REMARK                            x       y       z     vdW  Elec       q    Type
REMARK                         _______ _______ _______ _____ _____    ______ ____
ROOT
ATOM      1  C   UNL     1       4.948  -2.634  -1.148  0.00  0.00    +0.073 A 
ATOM      2  C   UNL     1       4.634  -3.196  -2.398  0.00  0.00    +0.260 A 
ATOM      3  O   UNL     1       3.489  -3.163  -2.816  0.00  0.00    -0.267 OA
ATOM      4  N   UNL     1       5.606  -3.772  -3.132  0.00  0.00    -0.274 N 
ATOM      5  H   UNL     1       5.393  -4.161  -3.994  0.00  0.00    +0.173 HD
ATOM      6  C   UNL     1       6.872  -3.812  -2.677  0.00  0.00    +0.337 A 
ATOM      7  O   UNL     1       7.736  -4.337  -3.353  0.00  0.00    -0.246 OA
ATOM      8  N   UNL     1       7.196  -3.281  -1.484  0.00  0.00    -0.229 N 
ATOM      9  C   UNL     1       6.237  -2.680  -0.706  0.00  0.00    +0.267 A 
ATOM     10  O   UNL     1       6.566  -2.143   0.488  0.00  0.00    -0.267 OA
ENDROOT
BRANCH   1  21
ATOM     11  C   UNL     1       1.050   2.704  -2.973  0.00  0.00    +0.001 A 
ATOM     12  C   UNL     1       2.341   3.068  -3.332  0.00  0.00    +0.002 A 
ATOM     13  C   UNL     1       3.418   2.297  -2.956  0.00  0.00    +0.026 A 
ATOM     14  C   UNL     1       3.216   1.143  -2.208  0.00  0.00    +0.047 A 
ATOM     15  C   UNL     1       1.904   0.776  -1.844  0.00  0.00    +0.003 A 
ATOM     16  C   UNL     1       0.828   1.574  -2.239  0.00  0.00    +0.010 A 
ATOM     17  C   UNL     1       2.035  -0.456  -1.080  0.00  0.00    -0.022 A 
ATOM     18  C   UNL     1       3.349  -0.760  -1.023  0.00  0.00    +0.011 A 
ATOM     19  N   UNL     1       4.066   0.188  -1.692  0.00  0.00    -0.359 N 
ATOM     20  H   UNL     1       5.031   0.190  -1.790  0.00  0.00    +0.166 HD
ATOM     21  C   UNL     1       3.876  -1.984  -0.311  0.00  0.00    +0.018 C 
ATOM     22  N   UNL     1       2.763  -2.925  -0.111  0.00  0.00    +0.388 N 
ATOM     23  C   UNL     1       1.639  -2.249   0.553  0.00  0.00    -0.076 C 
ATOM     24  C   UNL     1       0.959  -1.293  -0.438  0.00  0.00    +0.018 C 
ATOM     25  H   UNL     1       2.459  -3.279  -1.005  0.00  0.00    -0.084 HD
ATOM     26  H   UNL     1       3.075  -3.695   0.462  0.00  0.00    -0.084 HD
ENDBRANCH   1  21
BRANCH   8  27
ATOM     27  C   UNL     1       8.523  -3.336  -1.034  0.00  0.00    +0.054 A 
ATOM     28  C   UNL     1       9.405  -2.308  -1.342  0.00  0.00    +0.028 A 
ATOM     29  C   UNL     1      10.711  -2.365  -0.897  0.00  0.00    +0.022 A 
ATOM     30  C   UNL     1      11.141  -3.445  -0.146  0.00  0.00    +0.041 A 
ATOM     31  C   UNL     1      10.264  -4.470   0.162  0.00  0.00    +0.022 A 
ATOM     32  C   UNL     1       8.955  -4.415  -0.276  0.00  0.00    +0.028 A 
ATOM     33 CL   UNL     1      12.784  -3.513   0.411  0.00  0.00    -0.084 Cl
ENDBRANCH   8  27
TORSDOF 2
