REMARK  Name = ZINC36480702
REMARK  9 active torsions:
REMARK  status: ('A' for Active; 'I' for Inactive)
REMARK    1  A    between atoms: C_1  and  C_2
REMARK    2  A    between atoms: C_5  and  S_8
REMARK    3  A    between atoms: S_8  and  C_11
REMARK    4  A    between atoms: C_11  and  N_12
REMARK    5  A    between atoms: C_13  and  C_15
REMARK    6  A    between atoms: C_15  and  C_17
REMARK    7  A    between atoms: C_15  and  N_22
REMARK    8  A    between atoms: N_22  and  C_23
REMARK    9  A    between atoms: C_30  and  C_32
REMARK                            x       y       z     vdW  Elec       q    Type
REMARK                         _______ _______ _______ _____ _____    ______ ____
ROOT
ATOM      1  C   UNL     1       2.829  -4.986   3.258  0.00  0.00    +0.233 C 
ENDROOT
BRANCH   1   2
ATOM      2  C   UNL     1       4.188  -4.436   2.908  0.00  0.00    +0.135 A 
ATOM      3  C   UNL     1       4.478  -3.141   2.686  0.00  0.00    +0.047 A 
ATOM      4  C   UNL     1       5.860  -3.076   2.391  0.00  0.00    +0.041 A 
ATOM      5  C   UNL     1       6.330  -4.335   2.451  0.00  0.00    +0.195 A 
ATOM      6  O   UNL     1       5.314  -5.153   2.770  0.00  0.00    -0.465 OA
ENDBRANCH   1   2
BRANCH   1   8
ATOM      7  N   UNL     1       1.885  -4.570   1.010  0.00  0.00    -0.294 N 
ATOM      8  C   UNL     1       2.135  -5.447   2.003  0.00  0.00    +0.243 C 
ATOM      9  O   UNL     1       1.802  -6.607   1.885  0.00  0.00    -0.273 OA
ATOM     10  H   UNL     1       2.151  -3.642   1.105  0.00  0.00    +0.150 HD
BRANCH   7  11
ATOM     11  C   UNL     1       1.210  -5.018  -0.210  0.00  0.00    +0.278 C 
BRANCH  11  12
ATOM     12  S   UNL     1      -0.571  -4.702  -0.067  0.00  0.00    +0.013 S 
ATOM     13  O   UNL     1      -1.049  -5.154   1.192  0.00  0.00    -0.168 OA
ATOM     14  O   UNL     1      -1.232  -5.073  -1.269  0.00  0.00    -0.168 OA
BRANCH  12  19
ATOM     15  C   UNL     1      -1.067   1.307   0.169  0.00  0.00    +0.044 C 
ATOM     16  C   UNL     1      -0.943  -0.194   0.110  0.00  0.00    -0.050 A 
ATOM     17  C   UNL     1      -0.974  -0.843  -1.111  0.00  0.00    +0.005 A 
ATOM     18  C   UNL     1      -0.860  -2.219  -1.165  0.00  0.00    +0.027 A 
ATOM     19  C   UNL     1      -0.715  -2.947   0.002  0.00  0.00    +0.090 A 
ATOM     20  C   UNL     1      -0.683  -2.298   1.222  0.00  0.00    +0.027 A 
ATOM     21  C   UNL     1      -0.793  -0.921   1.276  0.00  0.00    +0.005 A 
ENDBRANCH  12  19
ENDBRANCH  11  12
ENDBRANCH   7  11
ENDBRANCH   1   8
BRANCH   1  22
ATOM     22  N   UNL     1       2.983  -6.119   4.175  0.00  0.00    -0.252 N 
ATOM     23  C   UNL     1       2.377  -6.099   5.378  0.00  0.00    +0.224 C 
ATOM     24  O   UNL     1       2.424  -7.074   6.097  0.00  0.00    -0.275 OA
BRANCH  22  25
ATOM     25  C   UNL     1       3.760  -7.221   3.801  0.00  0.00    +0.039 A 
ATOM     26  C   UNL     1       4.255  -7.316   2.507  0.00  0.00    +0.023 A 
ATOM     27  C   UNL     1       5.021  -8.405   2.140  0.00  0.00    +0.003 A 
ATOM     28  C   UNL     1       5.295  -9.401   3.060  0.00  0.00    +0.020 A 
ATOM     29  C   UNL     1       4.803  -9.310   4.350  0.00  0.00    +0.043 A 
ATOM     30  C   UNL     1       4.041  -8.219   4.724  0.00  0.00    +0.043 A 
ATOM     31 CL   UNL     1       5.148 -10.563   5.500  0.00  0.00    -0.083 Cl
ENDBRANCH  22  25
BRANCH  23  32
ATOM     32  C   UNL     1       1.641  -4.864   5.831  0.00  0.00    +0.076 C 
ATOM     33  C   UNL     1       2.649  -3.764   6.170  0.00  0.00    +0.013 C 
ATOM     34  C   UNL     1       1.902  -2.511   6.629  0.00  0.00    +0.001 C 
ATOM     35  C   UNL     1       1.069  -2.839   7.870  0.00  0.00    +0.000 C 
ATOM     36  C   UNL     1       0.061  -3.939   7.531  0.00  0.00    +0.001 C 
ATOM     37  C   UNL     1       0.808  -5.192   7.072  0.00  0.00    +0.013 C 
ENDBRANCH  23  32
ENDBRANCH   1  22
TORSDOF 8
