REMARK  Name = ZINC20154670
REMARK  8 active torsions:
REMARK  status: ('A' for Active; 'I' for Inactive)
REMARK    1  A    between atoms: C_1  and  C_2
REMARK    2  A    between atoms: C_2  and  C_3
REMARK    3  A    between atoms: C_2  and  S_4
REMARK    4  A    between atoms: S_4  and  C_5
REMARK    5  A    between atoms: C_13  and  C_14
REMARK    6  A    between atoms: C_17  and  O_22
REMARK    7  A    between atoms: C_18  and  O_20
REMARK    8  A    between atoms: O_20  and  C_21
REMARK                            x       y       z     vdW  Elec       q    Type
REMARK                         _______ _______ _______ _____ _____    ______ ____
ROOT
ATOM      1  C   UNL     1       2.891  -0.286  -1.136  0.00  0.00    +0.176 C 
ATOM      2  N   UNL     1       3.414   0.176  -0.033  0.00  0.00    -0.185 NA
ATOM      3  S   UNL     1       5.061   0.211  -0.341  0.00  0.00    +0.048 S 
ATOM      4  C   UNL     1       5.058  -0.327  -1.918  0.00  0.00    +0.183 C 
ATOM      5  N   UNL     1       6.053  -0.477  -2.765  0.00  0.00    -0.152 NA
ATOM      6  C   UNL     1       5.797  -0.872  -4.025  0.00  0.00    +0.273 C 
ATOM      7  O   UNL     1       6.707  -1.146  -4.791  0.00  0.00    -0.268 OA
ATOM      8  C   UNL     1       4.382  -0.966  -4.462  0.00  0.00    +0.077 C 
ATOM      9  C   UNL     1       4.020  -0.850  -5.785  0.00  0.00    +0.024 C 
ATOM     10  C   UNL     1       3.373  -1.195  -3.387  0.00  0.00    +0.116 C 
ATOM     11  N   UNL     1       2.275  -1.877  -3.566  0.00  0.00    -0.386 N 
ATOM     12  N   UNL     1       3.727  -0.607  -2.157  0.00  0.00    -0.212 N 
ATOM     13  H   UNL     1       2.081  -2.265  -4.434  0.00  0.00    +0.157 HD
ATOM     14  H   UNL     1       1.652  -1.995  -2.832  0.00  0.00    +0.157 HD
ENDROOT
BRANCH   9  15
ATOM     15  C   UNL     1       5.011  -0.435  -6.781  0.00  0.00    -0.021 A 
ATOM     16  C   UNL     1       4.977  -0.976  -8.075  0.00  0.00    +0.012 A 
ATOM     17  C   UNL     1       5.909  -0.585  -9.008  0.00  0.00    +0.050 A 
ATOM     18  C   UNL     1       6.886   0.345  -8.673  0.00  0.00    +0.158 A 
ATOM     19  C   UNL     1       6.928   0.888  -7.388  0.00  0.00    +0.162 A 
ATOM     20  C   UNL     1       5.993   0.507  -6.447  0.00  0.00    +0.057 A 
BRANCH  19  21
ATOM     21  O   UNL     1       7.886   1.798  -7.066  0.00  0.00    -0.491 OA
ATOM     22  C   UNL     1       7.869   2.312  -5.733  0.00  0.00    +0.277 C 
ENDBRANCH  19  21
BRANCH  18  23
ATOM     23  O   UNL     1       7.803   0.726  -9.598  0.00  0.00    -0.503 OA
ATOM     24  H   UNL     1       7.535   1.491 -10.126  0.00  0.00    +0.292 HD
ENDBRANCH  18  23
ENDBRANCH   9  15
BRANCH   1  25
ATOM     25  S   UNL     1       1.149  -0.496  -1.292  0.00  0.00    -0.086 S 
BRANCH  25  27
ATOM     26  C   UNL     1       0.772   1.556   0.476  0.00  0.00    +0.019 C 
ATOM     27  C   UNL     1       0.494   0.062   0.305  0.00  0.00    +0.048 C 
ATOM     28  C   UNL     1      -1.015  -0.185   0.352  0.00  0.00    +0.019 C 
ENDBRANCH  25  27
ENDBRANCH   1  25
TORSDOF 5
