REMARK  Name = ZINC59891883
REMARK  16 active torsions:
REMARK  status: ('A' for Active; 'I' for Inactive)
REMARK    1  A    between atoms: C_1  and  C_2
REMARK    2  A    between atoms: C_2  and  O_3
REMARK    3  A    between atoms: O_3  and  C_4
REMARK    4  A    between atoms: C_4  and  C_6
REMARK    5  A    between atoms: C_7  and  C_31
REMARK    6  A    between atoms: C_8  and  C_29
REMARK    7  A    between atoms: C_9  and  N_11
REMARK    8  A    between atoms: C_12  and  C_14
REMARK    9  A    between atoms: C_14  and  S_15
REMARK   10  A    between atoms: S_15  and  C_16
REMARK   11  A    between atoms: N_21  and  N_22
REMARK   12  A    between atoms: C_23  and  C_24
REMARK   13  A    between atoms: C_23  and  C_25
REMARK   14  A    between atoms: C_25  and  C_26
REMARK   15  A    between atoms: C_26  and  C_27
REMARK   16  A    between atoms: C_26  and  C_28
REMARK                            x       y       z     vdW  Elec       q    Type
REMARK                         _______ _______ _______ _____ _____    ______ ____
ROOT
ATOM      1  N   UNL     1      -6.461  -2.433  -1.116  0.00  0.00    -0.278 N 
ATOM      2  C   UNL     1      -7.198  -1.310  -1.006  0.00  0.00    +0.228 C 
ATOM      3  O   UNL     1      -6.658  -0.224  -1.041  0.00  0.00    -0.275 OA
ATOM      4  H   UNL     1      -6.893  -3.301  -1.088  0.00  0.00    +0.155 HD
ENDROOT
BRANCH   1   8
ATOM      5  C   UNL     1      -2.539  -1.713  -1.545  0.00  0.00    +0.102 A 
ATOM      6  C   UNL     1      -2.835  -3.062  -1.543  0.00  0.00    -0.010 A 
ATOM      7  C   UNL     1      -4.174  -3.391  -1.399  0.00  0.00    +0.084 A 
ATOM      8  C   UNL     1      -5.090  -2.347  -1.270  0.00  0.00    +0.090 A 
ATOM      9  S   UNL     1      -4.141  -0.963  -1.337  0.00  0.00    -0.065 S 
ATOM     10  C   UNL     1      -1.765  -4.113  -1.690  0.00  0.00    +0.046 C 
BRANCH   5  11
ATOM     11  C   UNL     1      -1.236  -1.063  -1.678  0.00  0.00    +0.346 C 
ATOM     12  O   UNL     1      -0.232  -1.736  -1.813  0.00  0.00    -0.244 OA
BRANCH  11  13
ATOM     13  O   UNL     1      -1.148   0.283  -1.650  0.00  0.00    -0.461 OA
BRANCH  13  15
ATOM     14  C   UNL     1       0.057   2.376  -1.731  0.00  0.00    +0.048 C 
ATOM     15  C   UNL     1       0.157   0.851  -1.785  0.00  0.00    +0.229 C 
ENDBRANCH  13  15
ENDBRANCH  11  13
ENDBRANCH   5  11
BRANCH   7  16
ATOM     16  C   UNL     1      -4.602  -4.758  -1.383  0.00  0.00    +0.102 C 
ATOM     17  N   UNL     1      -4.942  -5.841  -1.370  0.00  0.00    -0.191 NA
ENDBRANCH   7  16
ENDBRANCH   1   8
BRANCH   2  18
ATOM     18  C   UNL     1      -8.693  -1.403  -0.839  0.00  0.00    +0.173 C 
BRANCH  18  19
ATOM     19  S   UNL     1      -9.393   0.267  -0.719  0.00  0.00    -0.075 S 
BRANCH  19  20
ATOM     20  C   UNL     1     -11.123  -0.009  -0.530  0.00  0.00    +0.211 A 
ATOM     21  N   UNL     1     -12.053   0.944  -0.407  0.00  0.00    -0.186 NA
ATOM     22  C   UNL     1     -13.241   0.390  -0.285  0.00  0.00    +0.232 A 
ATOM     23  N   UNL     1     -13.083  -0.950  -0.329  0.00  0.00    -0.245 N 
ATOM     24  N   UNL     1     -11.708  -1.183  -0.492  0.00  0.00    -0.144 NA
ATOM     25  N   UNL     1     -14.440   1.063  -0.137  0.00  0.00    -0.205 N 
ATOM     26  H   UNL     1     -15.269   0.565  -0.053  0.00  0.00    +0.177 HD
ATOM     27  H   UNL     1     -13.781  -1.619  -0.263  0.00  0.00    +0.192 HD
BRANCH  25  28
ATOM     28  N   UNL     1     -14.459   2.463  -0.107  0.00  0.00    -0.189 NA
ATOM     29  C   UNL     1     -15.569   3.086   0.030  0.00  0.00    +0.034 C 
ATOM     30  C   UNL     1     -16.856   2.313   0.160  0.00  0.00    +0.062 C 
BRANCH  29  31
ATOM     31  C   UNL     1     -15.589   4.593   0.062  0.00  0.00    +0.055 C 
BRANCH  31  32
ATOM     32  C   UNL     1     -15.345   5.076   1.494  0.00  0.00    -0.012 C 
ATOM     33  C   UNL     1     -13.926   4.699   1.924  0.00  0.00    +0.007 C 
ATOM     34  C   UNL     1     -15.509   6.596   1.554  0.00  0.00    +0.007 C 
ENDBRANCH  31  32
ENDBRANCH  29  31
ENDBRANCH  25  28
ENDBRANCH  19  20
ENDBRANCH  18  19
ENDBRANCH   2  18
TORSDOF 11
