REMARK  Name = ZINC39143747
REMARK  7 active torsions:
REMARK  status: ('A' for Active; 'I' for Inactive)
REMARK    1  A    between atoms: C_1  and  C_2
REMARK    2  A    between atoms: C_5  and  C_8
REMARK    3  A    between atoms: C_8  and  C_9
REMARK    4  A    between atoms: C_16  and  S_20
REMARK    5  A    between atoms: S_20  and  C_21
REMARK    6  A    between atoms: C_21  and  C_22
REMARK    7  A    between atoms: N_24  and  C_25
REMARK                            x       y       z     vdW  Elec       q    Type
REMARK                         _______ _______ _______ _____ _____    ______ ____
ROOT
ATOM      1  C   UNL     1       1.437  -4.768  -0.040  0.00  0.00    +0.132 A 
ATOM      2  C   UNL     1       2.312  -4.488  -1.182  0.00  0.00    +0.297 A 
ATOM      3  O   UNL     1       1.901  -3.866  -2.149  0.00  0.00    -0.264 OA
ATOM      4  N   UNL     1       3.578  -4.934  -1.136  0.00  0.00    -0.169 NA
ATOM      5  C   UNL     1       3.993  -5.604  -0.073  0.00  0.00    +0.272 A 
ATOM      6  N   UNL     1       3.145  -5.840   0.962  0.00  0.00    -0.193 N 
ATOM      7  N   UNL     1       1.929  -5.432   0.972  0.00  0.00    -0.165 NA
ATOM      8  C   UNL     1       3.943  -6.597   1.942  0.00  0.00    +0.307 C 
ATOM      9  N   UNL     1       5.262  -6.717   1.303  0.00  0.00    -0.146 NA
ATOM     10  N   UNL     1       5.216  -6.154   0.208  0.00  0.00    -0.111 NA
ENDROOT
BRANCH   1  11
ATOM     11  C   UNL     1       0.006  -4.295  -0.030  0.00  0.00    +0.098 C 
BRANCH  11  16
ATOM     12  C   UNL     1      -0.117   1.483  -0.005  0.00  0.00    +0.044 C 
ATOM     13  C   UNL     1      -0.085  -0.024  -0.011  0.00  0.00    -0.050 A 
ATOM     14  C   UNL     1      -0.076  -0.710  -1.211  0.00  0.00    +0.003 A 
ATOM     15  C   UNL     1      -0.046  -2.092  -1.217  0.00  0.00    +0.004 A 
ATOM     16  C   UNL     1      -0.025  -2.788  -0.023  0.00  0.00    -0.041 A 
ATOM     17  C   UNL     1      -0.033  -2.102   1.177  0.00  0.00    +0.004 A 
ATOM     18  C   UNL     1      -0.059  -0.720   1.183  0.00  0.00    +0.003 A 
ENDBRANCH  11  16
ENDBRANCH   1  11
BRANCH   8  19
ATOM     19  S   UNL     1       3.217  -8.235   2.226  0.00  0.00    -0.100 S 
BRANCH  19  20
ATOM     20  C   UNL     1       3.246  -9.017   0.589  0.00  0.00    +0.169 C 
BRANCH  20  21
ATOM     21  C   UNL     1       2.662 -10.403   0.685  0.00  0.00    +0.227 C 
ATOM     22  O   UNL     1       2.266 -10.822   1.752  0.00  0.00    -0.275 OA
ATOM     23  N   UNL     1       2.581 -11.178  -0.415  0.00  0.00    -0.284 N 
ATOM     24  H   UNL     1       2.838 -10.820  -1.280  0.00  0.00    +0.155 HD
BRANCH  23  25
ATOM     25  C   UNL     1       2.127 -12.497  -0.310  0.00  0.00    +0.053 A 
ATOM     26  C   UNL     1       1.142 -12.822   0.613  0.00  0.00    +0.044 A 
ATOM     27  C   UNL     1       0.695 -14.127   0.714  0.00  0.00    +0.043 A 
ATOM     28  C   UNL     1       1.228 -15.107  -0.104  0.00  0.00    +0.021 A 
ATOM     29  C   UNL     1       2.208 -14.787  -1.025  0.00  0.00    +0.023 A 
ATOM     30  C   UNL     1       2.655 -13.483  -1.134  0.00  0.00    +0.062 A 
ATOM     31 CL   UNL     1       3.881 -13.080  -2.295  0.00  0.00    -0.082 Cl
ATOM     32 CL   UNL     1      -0.535 -14.534   1.869  0.00  0.00    -0.083 Cl
ENDBRANCH  23  25
ENDBRANCH  20  21
ENDBRANCH  19  20
ENDBRANCH   8  19
TORSDOF 6
