REMARK  Name = ZINC20704810
REMARK  7 active torsions:
REMARK  status: ('A' for Active; 'I' for Inactive)
REMARK    1  A    between atoms: C_1  and  C_2
REMARK    2  A    between atoms: C_2  and  C_3
REMARK    3  A    between atoms: C_3  and  C_4
REMARK    4  A    between atoms: C_4  and  N_5
REMARK    5  A    between atoms: C_6  and  C_8
REMARK    6  A    between atoms: C_21  and  C_24
REMARK    7  A    between atoms: C_28  and  N_30
REMARK                            x       y       z     vdW  Elec       q    Type
REMARK                         _______ _______ _______ _____ _____    ______ ____
ROOT
ATOM      1  C   UNL     1      -1.590   2.309  -3.199  0.00  0.00    +0.037 A 
ATOM      2  C   UNL     1      -2.941   2.291  -2.840  0.00  0.00    +0.015 A 
ATOM      3  C   UNL     1      -3.312   1.899  -1.576  0.00  0.00    +0.024 A 
ATOM      4  C   UNL     1      -2.350   1.515  -0.643  0.00  0.00    +0.031 A 
ATOM      5  C   UNL     1      -1.001   1.539  -0.995  0.00  0.00    -0.019 A 
ATOM      6  C   UNL     1      -0.622   1.919  -2.268  0.00  0.00    +0.019 A 
ATOM      7  C   UNL     1      -0.013   1.086   0.008  0.00  0.00    +0.049 C 
ATOM      8  C   UNL     1       1.393   1.566  -0.003  0.00  0.00    -0.023 C 
ATOM      9  C   UNL     1       1.834   1.615   1.248  0.00  0.00    -0.030 C 
ATOM     10  C   UNL     1       0.722   1.194   2.212  0.00  0.00    +0.033 C 
ATOM     11  C   UNL     1      -0.534   1.544   1.403  0.00  0.00    +0.029 C 
ATOM     12  C   UNL     1      -1.780   0.715   1.661  0.00  0.00    +0.105 C 
ATOM     13  N   UNL     1      -2.759   1.137   0.636  0.00  0.00    -0.336 N 
ATOM     14  H   UNL     1      -3.832   1.158   0.876  0.00  0.00    +0.147 HD
ENDROOT
BRANCH  12  15
ATOM     15  C   UNL     1      -2.316   0.996   3.041  0.00  0.00    -0.025 A 
ATOM     16  C   UNL     1      -3.076   2.128   3.269  0.00  0.00    +0.007 A 
ATOM     17  C   UNL     1      -3.569   2.386   4.534  0.00  0.00    +0.022 A 
ATOM     18  C   UNL     1      -3.301   1.512   5.572  0.00  0.00    +0.071 A 
ATOM     19  C   UNL     1      -2.541   0.379   5.343  0.00  0.00    +0.145 A 
ATOM     20  C   UNL     1      -2.053   0.119   4.076  0.00  0.00    +0.039 A 
ATOM     21 CL   UNL     1      -3.920   1.835   7.162  0.00  0.00    -0.081 Cl
BRANCH  19  22
ATOM     22  N   UNL     1      -2.253  -0.557   6.453  0.00  0.00    +0.058 N 
ATOM     23  O   UNL     1      -1.584  -1.554   6.251  0.00  0.00    -0.126 OA
ATOM     24  O   UNL     1      -2.687  -0.330   7.569  0.00  0.00    -0.126 OA
ENDBRANCH  19  22
ENDBRANCH  12  15
BRANCH   1  26
ATOM     25  N   UNL     1      -2.124   3.112  -5.446  0.00  0.00    -0.311 N 
ATOM     26  C   UNL     1      -1.188   2.737  -4.552  0.00  0.00    +0.244 C 
ATOM     27  O   UNL     1      -0.012   2.751  -4.861  0.00  0.00    -0.270 OA
ATOM     28  H   UNL     1      -3.188   3.099  -5.167  0.00  0.00    +0.149 HD
BRANCH  25  29
ATOM     29  C   UNL     1      -1.724   3.537  -6.790  0.00  0.00    +0.104 C 
BRANCH  29  30
ATOM     30  C   UNL     1      -2.969   3.907  -7.599  0.00  0.00    +0.018 C 
BRANCH  30  32
ATOM     31  C   UNL     1      -3.797   4.721  -9.811  0.00  0.00    +0.004 C 
ATOM     32  C   UNL     1      -2.552   4.351  -9.002  0.00  0.00    -0.002 C 
ENDBRANCH  30  32
ENDBRANCH  29  30
ENDBRANCH  25  29
ENDBRANCH   1  26
TORSDOF 6
