REMARK  Name = ZINC16485594
REMARK  9 active torsions:
REMARK  status: ('A' for Active; 'I' for Inactive)
REMARK    1  A    between atoms: C_1  and  C_2
REMARK    2  A    between atoms: C_2  and  O_3
REMARK    3  A    between atoms: O_3  and  C_4
REMARK    4  A    between atoms: C_9  and  N_10
REMARK    5  A    between atoms: C_11  and  S_15
REMARK    6  A    between atoms: S_15  and  C_16
REMARK    7  A    between atoms: C_16  and  C_18
REMARK    8  A    between atoms: C_16  and  C_19
REMARK    9  A    between atoms: N_21  and  C_22
REMARK                            x       y       z     vdW  Elec       q    Type
REMARK                         _______ _______ _______ _____ _____    ______ ____
ROOT
ATOM      1  C   UNL     1      -1.865   7.333  -1.322  0.00  0.00    +0.137 C 
ATOM      2  C   UNL     1      -0.627   8.024  -1.898  0.00  0.00    +0.029 C 
ENDROOT
BRANCH   1   3
ATOM      3  C   UNL     1      -1.730   5.841  -1.487  0.00  0.00    +0.227 C 
ATOM      4  O   UNL     1      -2.225   5.290  -2.447  0.00  0.00    -0.275 OA
ATOM      5  N   UNL     1      -1.058   5.119  -0.568  0.00  0.00    -0.309 N 
ATOM      6  H   UNL     1      -0.662   5.560   0.200  0.00  0.00    +0.149 HD
BRANCH   5   7
ATOM      7  C   UNL     1      -0.927   3.669  -0.729  0.00  0.00    +0.035 C 
ATOM      8  C   UNL     1      -0.200   3.365  -2.040  0.00  0.00    +0.029 C 
ATOM      9  C   UNL     1      -0.063   1.850  -2.208  0.00  0.00    -0.008 C 
ATOM     10  C   UNL     1       0.738   1.278  -1.036  0.00  0.00    +0.007 C 
ATOM     11  C   UNL     1       0.011   1.582   0.275  0.00  0.00    -0.008 C 
ATOM     12  C   UNL     1      -0.126   3.097   0.443  0.00  0.00    +0.029 C 
ATOM     13  C   UNL     1      -1.379   0.944   0.248  0.00  0.00    +0.007 C 
ATOM     14  C   UNL     1      -2.180   1.516  -0.923  0.00  0.00    -0.008 C 
ATOM     15  C   UNL     1      -1.453   1.212  -2.235  0.00  0.00    +0.007 C 
ATOM     16  C   UNL     1      -2.317   3.031  -0.756  0.00  0.00    +0.029 C 
ENDBRANCH   5   7
ENDBRANCH   1   3
BRANCH   1  17
ATOM     17  S   UNL     1      -3.340   7.906  -2.201  0.00  0.00    -0.072 S 
BRANCH  17  19
ATOM     18  N   UNL     1      -4.240  10.545  -2.100  0.00  0.00    -0.184 N 
ATOM     19  C   UNL     1      -3.338   9.603  -1.727  0.00  0.00    +0.215 A 
ATOM     20  N   UNL     1      -2.466  10.194  -0.940  0.00  0.00    -0.101 NA
ATOM     21  N   UNL     1      -2.754  11.438  -0.803  0.00  0.00    -0.022 NA
ATOM     22  N   UNL     1      -3.817  11.729  -1.471  0.00  0.00    -0.038 NA
BRANCH  18  28
ATOM     23  C   UNL     1      -5.603  11.278  -3.964  0.00  0.00    +0.146 A 
ATOM     24  C   UNL     1      -6.704  11.101  -4.788  0.00  0.00    +0.048 A 
ATOM     25  C   UNL     1      -7.560  10.036  -4.578  0.00  0.00    +0.004 A 
ATOM     26  C   UNL     1      -7.319   9.142  -3.551  0.00  0.00    +0.002 A 
ATOM     27  C   UNL     1      -6.220   9.308  -2.729  0.00  0.00    +0.031 A 
ATOM     28  C   UNL     1      -5.356  10.374  -2.933  0.00  0.00    +0.111 A 
BRANCH  23  29
ATOM     29  O   UNL     1      -4.763  12.328  -4.165  0.00  0.00    -0.490 OA
BRANCH  29  31
ATOM     30  C   UNL     1      -4.028  14.324  -5.311  0.00  0.00    +0.048 C 
ATOM     31  C   UNL     1      -5.078  13.214  -5.241  0.00  0.00    +0.226 C 
ENDBRANCH  29  31
ENDBRANCH  23  29
ENDBRANCH  18  28
ENDBRANCH  17  19
ENDBRANCH   1  17
TORSDOF 7
