REMARK  Name = ZINC35677629
REMARK  5 active torsions:
REMARK  status: ('A' for Active; 'I' for Inactive)
REMARK    1  A    between atoms: C_10  and  C_11
REMARK    2  A    between atoms: C_11  and  O_13
REMARK    3  A    between atoms: O_13  and  C_14
REMARK    4  A    between atoms: C_17  and  C_20
REMARK    5  A    between atoms: C_32  and  O_34
REMARK                            x       y       z     vdW  Elec       q    Type
REMARK                         _______ _______ _______ _____ _____    ______ ____
ROOT
ATOM      1  C   UNL     1       7.200   0.305  -0.004  0.00  0.00    +0.132 A 
ATOM      2  C   UNL     1       7.052   1.682   0.072  0.00  0.00    +0.047 A 
ATOM      3  C   UNL     1       8.169   2.495   0.095  0.00  0.00    +0.011 A 
ATOM      4  C   UNL     1       9.433   1.937   0.041  0.00  0.00    -0.005 A 
ATOM      5  C   UNL     1       9.582   0.565  -0.035  0.00  0.00    +0.011 A 
ATOM      6  C   UNL     1       8.469  -0.253  -0.052  0.00  0.00    +0.047 A 
ENDROOT
BRANCH   4   7
ATOM      7  C   UNL     1      10.649   2.826   0.064  0.00  0.00    +0.224 C 
ATOM      8  N   UNL     1      11.744   2.164  -0.668  0.00  0.00    -0.313 N 
ATOM      9  C   UNL     1      11.740   2.313  -2.037  0.00  0.00    +0.080 A 
ATOM     10  C   UNL     1      11.122   3.403  -2.660  0.00  0.00    +0.068 A 
ATOM     11  C   UNL     1      11.189   3.420  -4.110  0.00  0.00    -0.023 A 
ATOM     12  C   UNL     1      11.852   2.373  -4.653  0.00  0.00    -0.005 A 
ATOM     13  S   UNL     1      12.369   1.397  -3.267  0.00  0.00    -0.078 S 
ATOM     14  C   UNL     1      12.086   2.112  -6.108  0.00  0.00    +0.043 C 
ATOM     15  C   UNL     1      11.142   3.012  -6.918  0.00  0.00    +0.005 C 
ATOM     16  C   UNL     1      11.227   4.440  -6.370  0.00  0.00    +0.005 C 
ATOM     17  C   UNL     1      10.580   4.505  -4.986  0.00  0.00    +0.037 C 
ATOM     18  C   UNL     1      10.478   4.418  -1.786  0.00  0.00    +0.220 C 
ATOM     19  N   UNL     1      10.309   4.113  -0.529  0.00  0.00    -0.223 NA
ATOM     20  H   UNL     1      12.429   1.651  -0.211  0.00  0.00    +0.149 HD
BRANCH  18  21
ATOM     21  O   UNL     1      10.081   5.614  -2.277  0.00  0.00    -0.492 OA
ATOM     22  H   UNL     1       9.675   6.195  -1.619  0.00  0.00    +0.294 HD
ENDBRANCH  18  21
ENDBRANCH   4   7
BRANCH   1  23
ATOM     23  O   UNL     1       6.103  -0.497  -0.026  0.00  0.00    -0.422 OA
BRANCH  23  24
ATOM     24  C   UNL     1       5.394  -0.569  -1.170  0.00  0.00    +0.345 C 
ATOM     25  O   UNL     1       5.793  -0.003  -2.169  0.00  0.00    -0.245 OA
BRANCH  24  35
ATOM     26  C   UNL     1       1.646  -1.333  -4.632  0.00  0.00    +0.001 A 
ATOM     27  C   UNL     1       2.828  -0.597  -4.632  0.00  0.00    +0.001 A 
ATOM     28  C   UNL     1       3.645  -0.584  -3.541  0.00  0.00    +0.009 A 
ATOM     29  C   UNL     1       3.292  -1.320  -2.404  0.00  0.00    -0.004 A 
ATOM     30  C   UNL     1       2.090  -2.069  -2.400  0.00  0.00    -0.017 A 
ATOM     31  C   UNL     1       1.272  -2.060  -3.543  0.00  0.00    +0.008 A 
ATOM     32  C   UNL     1       1.738  -2.805  -1.256  0.00  0.00    +0.008 A 
ATOM     33  C   UNL     1       2.540  -2.803  -0.156  0.00  0.00    +0.001 A 
ATOM     34  C   UNL     1       3.726  -2.084  -0.115  0.00  0.00    +0.015 A 
ATOM     35  C   UNL     1       4.136  -1.334  -1.211  0.00  0.00    +0.067 A 
ENDBRANCH  24  35
ENDBRANCH  23  24
ENDBRANCH   1  23
TORSDOF 5
