REMARK  Name = ZINC08515815
REMARK  1 active torsions:
REMARK  status: ('A' for Active; 'I' for Inactive)
REMARK    1  A    between atoms: C_5  and  C_7
REMARK                            x       y       z     vdW  Elec       q    Type
REMARK                         _______ _______ _______ _____ _____    ______ ____
ROOT
ATOM      1  C   UNL     1       1.229  -2.186  -0.022  0.00  0.00    +0.091 C 
ATOM      2  C   UNL     1       0.557  -2.694   1.220  0.00  0.00    +0.042 A 
ATOM      3  C   UNL     1       1.233  -2.671   2.449  0.00  0.00    +0.126 A 
ATOM      4  N   UNL     1       0.625  -3.122   3.542  0.00  0.00    -0.208 NA
ATOM      5  C   UNL     1      -0.617  -3.594   3.490  0.00  0.00    +0.180 A 
ATOM      6  S   UNL     1      -1.362  -4.162   4.923  0.00  0.00    -0.011 S 
ATOM      7  N   UNL     1      -1.300  -3.633   2.330  0.00  0.00    -0.322 N 
ATOM      8  C   UNL     1      -0.716  -3.183   1.177  0.00  0.00    +0.110 A 
ATOM      9  N   UNL     1      -1.399  -3.227  -0.014  0.00  0.00    -0.304 N 
ATOM     10  C   UNL     1      -0.729  -3.164  -1.206  0.00  0.00    +0.017 C 
ATOM     11  C   UNL     1       0.529  -2.682  -1.262  0.00  0.00    +0.024 C 
ATOM     12  C   UNL     1       1.229  -2.630  -2.481  0.00  0.00    +0.162 C 
ATOM     13  O   UNL     1       2.360  -2.185  -2.500  0.00  0.00    -0.292 OA
ATOM     14  C   UNL     1       0.605  -3.114  -3.761  0.00  0.00    +0.080 C 
ATOM     15  C   UNL     1      -0.416  -4.209  -3.435  0.00  0.00    +0.014 C 
ATOM     16  C   UNL     1      -1.436  -3.641  -2.451  0.00  0.00    +0.051 C 
ATOM     17  N   UNL     1       2.521  -2.186   2.523  0.00  0.00    -0.343 N 
ATOM     18  H   UNL     1      -2.366  -3.303  -0.010  0.00  0.00    +0.153 HD
ATOM     19  H   UNL     1       2.986  -2.171   3.374  0.00  0.00    +0.144 HD
ATOM     20  H   UNL     1       2.962  -1.858   1.724  0.00  0.00    +0.144 HD
ATOM     21  H   UNL     1      -2.205  -3.979   2.312  0.00  0.00    +0.169 HD
ENDROOT
BRANCH   1  26
ATOM     22  C   UNL     1      -0.017   1.378   0.010  0.00  0.00    +0.000 A 
ATOM     23  C   UNL     1       1.171   2.086   0.002  0.00  0.00    +0.001 A 
ATOM     24  C   UNL     1       2.377   1.412  -0.013  0.00  0.00    +0.015 A 
ATOM     25  C   UNL     1       2.397   0.029  -0.021  0.00  0.00    +0.022 A 
ATOM     26  C   UNL     1       1.208  -0.679  -0.013  0.00  0.00    -0.021 A 
ATOM     27  C   UNL     1       0.002  -0.004   0.002  0.00  0.00    +0.005 A 
ATOM     28 BR   UNL     1       4.047  -0.894  -0.042  0.00  0.00    -0.050 Br
ENDBRANCH   1  26
TORSDOF 1
