REMARK  Name = ZINC58948580
REMARK  10 active torsions:
REMARK  status: ('A' for Active; 'I' for Inactive)
REMARK    1  A    between atoms: C_1  and  C_2
REMARK    2  A    between atoms: C_2  and  N_3
REMARK    3  A    between atoms: C_14  and  C_16
REMARK    4  A    between atoms: C_18  and  C_28
REMARK    5  A    between atoms: C_19  and  C_27
REMARK    6  A    between atoms: C_21  and  N_26
REMARK    7  A    between atoms: C_22  and  C_23
REMARK    8  A    between atoms: C_28  and  O_30
REMARK    9  A    between atoms: O_30  and  C_31
REMARK   10  A    between atoms: C_31  and  C_32
REMARK                            x       y       z     vdW  Elec       q    Type
REMARK                         _______ _______ _______ _____ _____    ______ ____
ROOT
ATOM      1  C   UNL     1      -0.888  -1.648   6.491  0.00  0.00    +0.099 C 
ATOM      2  C   UNL     1      -1.700  -2.913   6.533  0.00  0.00    +0.086 C 
ATOM      3  C   UNL     1      -3.026  -2.880   6.713  0.00  0.00    +0.115 C 
ATOM      4  O   UNL     1      -3.694  -1.725   6.864  0.00  0.00    -0.446 OA
ATOM      5  C   UNL     1      -3.031  -0.607   7.211  0.00  0.00    +0.193 C 
ATOM      6  C   UNL     1      -1.688  -0.507   7.057  0.00  0.00    +0.083 C 
ATOM      7  C   UNL     1      -3.793  -4.177   6.746  0.00  0.00    +0.087 C 
ENDROOT
BRANCH   1  19
ATOM      8  N   UNL     1       0.749  -0.504   1.207  0.00  0.00    -0.340 N 
ATOM      9  C   UNL     1       2.126  -0.532   1.338  0.00  0.00    +0.050 A 
ATOM     10  C   UNL     1       3.158  -0.330   0.427  0.00  0.00    +0.026 A 
ATOM     11  C   UNL     1       4.470  -0.420   0.840  0.00  0.00    +0.002 A 
ATOM     12  C   UNL     1       4.776  -0.712   2.160  0.00  0.00    +0.001 A 
ATOM     13  C   UNL     1       3.767  -0.915   3.077  0.00  0.00    +0.010 A 
ATOM     14  C   UNL     1       2.437  -0.827   2.674  0.00  0.00    +0.008 A 
ATOM     15  C   UNL     1       1.151  -0.983   3.379  0.00  0.00    +0.008 A 
ATOM     16  C   UNL     1       0.146  -0.767   2.424  0.00  0.00    +0.050 A 
ATOM     17  C   UNL     1      -1.188  -0.846   2.811  0.00  0.00    +0.027 A 
ATOM     18  C   UNL     1      -1.512  -1.129   4.121  0.00  0.00    +0.006 A 
ATOM     19  C   UNL     1      -0.517  -1.339   5.063  0.00  0.00    -0.034 A 
ATOM     20  C   UNL     1       0.811  -1.274   4.697  0.00  0.00    +0.015 A 
BRANCH   8  22
ATOM     21  C   UNL     1      -0.211   1.277  -0.166  0.00  0.00    +0.027 C 
ATOM     22  C   UNL     1       0.032  -0.228  -0.040  0.00  0.00    +0.119 C 
ENDBRANCH   8  22
ENDBRANCH   1  19
BRANCH   6  23
ATOM     23  C   UNL     1      -1.036   0.681   7.432  0.00  0.00    +0.243 C 
ATOM     24  O   UNL     1      -0.423   0.733   8.484  0.00  0.00    -0.271 OA
ATOM     25  N   UNL     1      -1.089   1.762   6.629  0.00  0.00    -0.325 N 
ATOM     26  H   UNL     1      -1.577   1.720   5.792  0.00  0.00    +0.145 HD
ATOM     27  H   UNL     1      -0.639   2.581   6.888  0.00  0.00    +0.145 HD
ENDBRANCH   6  23
BRANCH   5  28
ATOM     28  N   UNL     1      -3.728   0.452   7.729  0.00  0.00    -0.329 N 
ATOM     29  H   UNL     1      -4.676   0.364   7.915  0.00  0.00    +0.145 HD
ATOM     30  H   UNL     1      -3.274   1.290   7.910  0.00  0.00    +0.145 HD
ENDBRANCH   5  28
BRANCH   2  31
ATOM     31  C   UNL     1      -1.050  -4.162   6.380  0.00  0.00    +0.339 C 
ATOM     32  O   UNL     1      -0.483  -4.673   7.327  0.00  0.00    -0.245 OA
BRANCH  31  33
ATOM     33  O   UNL     1      -1.060  -4.786   5.184  0.00  0.00    -0.462 OA
BRANCH  33  34
ATOM     34  C   UNL     1      -0.385  -6.043   5.101  0.00  0.00    +0.229 C 
ATOM     35  C   UNL     1      -0.503  -6.593   3.678  0.00  0.00    +0.048 C 
ENDBRANCH  33  34
ENDBRANCH  31  33
ENDBRANCH   2  31
TORSDOF 7
