REMARK  Name = ZINC02726431
REMARK  9 active torsions:
REMARK  status: ('A' for Active; 'I' for Inactive)
REMARK    1  A    between atoms: C_1  and  C_2
REMARK    2  A    between atoms: C_11  and  O_13
REMARK    3  A    between atoms: O_13  and  C_14
REMARK    4  A    between atoms: C_14  and  C_15
REMARK    5  A    between atoms: N_17  and  C_18
REMARK    6  A    between atoms: C_18  and  C_19
REMARK    7  A    between atoms: C_19  and  C_20
REMARK    8  A    between atoms: C_23  and  S_26
REMARK    9  A    between atoms: S_26  and  N_29
REMARK                            x       y       z     vdW  Elec       q    Type
REMARK                         _______ _______ _______ _____ _____    ______ ____
ROOT
ATOM      1  C   UNL     1      -1.044  -2.161   0.000  0.00  0.00    +0.251 C 
ATOM      2  O   UNL     1       0.082  -2.610  -0.013  0.00  0.00    -0.272 OA
ATOM      3  N   UNL     1      -2.102  -2.997   0.006  0.00  0.00    -0.312 N 
ATOM      4  H   UNL     1      -3.003  -2.638   0.017  0.00  0.00    +0.149 HD
ENDROOT
BRANCH   1   5
ATOM      5  C   UNL     1      -1.262  -0.670   0.011  0.00  0.00    +0.324 C 
BRANCH   5   6
ATOM      6  O   UNL     1       0.002  -0.004   0.002  0.00  0.00    -0.483 OA
BRANCH   6  17
ATOM      7  C   UNL     1      -1.379   6.350   0.048  0.00  0.00    +0.045 C 
ATOM      8  C   UNL     1      -0.082   5.583   0.032  0.00  0.00    -0.033 A 
ATOM      9  C   UNL     1       1.112   6.231   0.025  0.00  0.00    +0.096 A 
ATOM     10  C   UNL     1       2.312   5.490   0.009  0.00  0.00    +0.337 A 
ATOM     11  O   UNL     1       3.375   6.083   0.003  0.00  0.00    -0.245 OA
ATOM     12  O   UNL     1       2.312   4.148   0.002  0.00  0.00    -0.422 OA
ATOM     13  C   UNL     1       1.160   3.443   0.009  0.00  0.00    +0.143 A 
ATOM     14  C   UNL     1      -0.075   4.119   0.024  0.00  0.00    +0.021 A 
ATOM     15  C   UNL     1      -1.271   3.392   0.032  0.00  0.00    +0.015 A 
ATOM     16  C   UNL     1      -1.236   2.028   0.019  0.00  0.00    +0.046 A 
ATOM     17  C   UNL     1      -0.016   1.353   0.009  0.00  0.00    +0.125 A 
ATOM     18  C   UNL     1       1.177   2.057   0.002  0.00  0.00    +0.092 A 
ENDBRANCH   6  17
ENDBRANCH   5   6
ENDBRANCH   1   5
BRANCH   3  19
ATOM     19  C   UNL     1      -1.891  -4.446  -0.004  0.00  0.00    +0.109 C 
BRANCH  19  20
ATOM     20  C   UNL     1      -3.244  -5.159   0.005  0.00  0.00    +0.054 C 
BRANCH  20  21
ATOM     21  C   UNL     1      -3.026  -6.651  -0.005  0.00  0.00    -0.046 A 
ATOM     22  C   UNL     1      -2.944  -7.329  -1.206  0.00  0.00    +0.005 A 
ATOM     23  C   UNL     1      -2.740  -8.696  -1.216  0.00  0.00    +0.029 A 
ATOM     24  C   UNL     1      -2.627  -9.386  -0.023  0.00  0.00    +0.105 A 
ATOM     25  C   UNL     1      -2.715  -8.709   1.178  0.00  0.00    +0.029 A 
ATOM     26  C   UNL     1      -2.915  -7.341   1.188  0.00  0.00    +0.005 A 
BRANCH  24  27
ATOM     27  S   UNL     1      -2.372 -11.130  -0.035  0.00  0.00    +0.056 S 
ATOM     28  O   UNL     1      -1.781 -11.445  -1.288  0.00  0.00    -0.153 OA
ATOM     29  O   UNL     1      -1.755 -11.458   1.202  0.00  0.00    -0.153 OA
BRANCH  27  30
ATOM     30  N   UNL     1      -3.866 -11.844  -0.024  0.00  0.00    -0.204 NA
ATOM     31  H   UNL     1      -4.665 -11.295  -0.012  0.00  0.00    +0.144 HD
ATOM     32  H   UNL     1      -3.941 -12.811  -0.028  0.00  0.00    +0.144 HD
ENDBRANCH  27  30
ENDBRANCH  24  27
ENDBRANCH  20  21
ENDBRANCH  19  20
ENDBRANCH   3  19
TORSDOF 8
