REMARK  Name = ZINC25161755
REMARK  11 active torsions:
REMARK  status: ('A' for Active; 'I' for Inactive)
REMARK    1  A    between atoms: C_1  and  N_2
REMARK    2  A    between atoms: N_2  and  C_3
REMARK    3  A    between atoms: C_6  and  C_12
REMARK    4  A    between atoms: C_8  and  N_9
REMARK    5  A    between atoms: N_14  and  C_15
REMARK    6  A    between atoms: C_15  and  C_16
REMARK    7  A    between atoms: C_16  and  C_17
REMARK    8  A    between atoms: C_17  and  C_18
REMARK    9  A    between atoms: C_19  and  C_31
REMARK   10  A    between atoms: C_20  and  N_30
REMARK   11  A    between atoms: N_21  and  C_23
REMARK                            x       y       z     vdW  Elec       q    Type
REMARK                         _______ _______ _______ _____ _____    ______ ____
ROOT
ATOM      1  C   UNL     1      -1.387   1.857  -1.147  0.00  0.00    +0.025 C 
ENDROOT
BRANCH   1   2
ATOM      2  C   UNL     1      -0.545   1.310  -2.301  0.00  0.00    +0.105 C 
BRANCH   2   5
ATOM      3  C   UNL     1      -0.545   1.376  -4.736  0.00  0.00    +0.244 C 
ATOM      4  O   UNL     1       0.457   0.687  -4.726  0.00  0.00    -0.270 OA
ATOM      5  N   UNL     1      -1.123   1.742  -3.575  0.00  0.00    -0.311 N 
ATOM      6  H   UNL     1      -2.030   2.364  -3.585  0.00  0.00    +0.149 HD
BRANCH   3  10
ATOM      7  C   UNL     1      -2.222   2.628  -8.431  0.00  0.00    +0.058 A 
ATOM      8  C   UNL     1      -2.821   3.007  -7.232  0.00  0.00    +0.026 A 
ATOM      9  C   UNL     1      -2.283   2.598  -6.034  0.00  0.00    +0.015 A 
ATOM     10  C   UNL     1      -1.128   1.811  -6.020  0.00  0.00    +0.039 A 
ATOM     11  C   UNL     1      -0.529   1.432  -7.225  0.00  0.00    +0.047 A 
ATOM     12  C   UNL     1      -1.075   1.839  -8.421  0.00  0.00    +0.148 A 
BRANCH   7  14
ATOM     13  C   UNL     1      -3.901   3.970  -9.654  0.00  0.00    +0.125 C 
ATOM     14  N   UNL     1      -2.771   3.038  -9.641  0.00  0.00    -0.345 N 
ATOM     15  H   UNL     1      -2.357   2.662 -10.588  0.00  0.00    +0.146 HD
ENDBRANCH   7  14
BRANCH  12  16
ATOM     16  N   UNL     1      -0.441   1.440  -9.697  0.00  0.00    +0.058 N 
ATOM     17  O   UNL     1       0.623   0.846  -9.690  0.00  0.00    -0.126 OA
ATOM     18  O   UNL     1      -0.983   1.704 -10.755  0.00  0.00    -0.126 OA
ENDBRANCH  12  16
ENDBRANCH   3  10
ENDBRANCH   2   5
ENDBRANCH   1   2
BRANCH   1  19
ATOM     19  C   UNL     1      -0.783   1.406   0.185  0.00  0.00    +0.060 C 
BRANCH  19  20
ATOM     20  C   UNL     1      -1.613   1.945   1.321  0.00  0.00    +0.083 A 
ATOM     21  C   UNL     1      -2.718   1.297   1.921  0.00  0.00    +0.114 A 
ATOM     22  C   UNL     1      -3.188   2.139   2.925  0.00  0.00    +0.138 A 
ATOM     23  N   UNL     1      -2.399   3.237   2.924  0.00  0.00    -0.217 N 
ATOM     24  N   UNL     1      -1.432   3.086   1.925  0.00  0.00    -0.168 NA
BRANCH  23  25
ATOM     25  C   UNL     1      -2.527   4.339   3.782  0.00  0.00    +0.068 A 
ATOM     26  C   UNL     1      -3.786   4.763   4.185  0.00  0.00    +0.030 A 
ATOM     27  C   UNL     1      -3.910   5.846   5.034  0.00  0.00    +0.040 A 
ATOM     28  C   UNL     1      -2.780   6.514   5.474  0.00  0.00    +0.124 A 
ATOM     29  C   UNL     1      -1.524   6.096   5.069  0.00  0.00    +0.040 A 
ATOM     30  C   UNL     1      -1.396   5.010   4.224  0.00  0.00    +0.030 A 
ATOM     31  F   UNL     1      -2.903   7.577   6.299  0.00  0.00    -0.205 F 
ENDBRANCH  23  25
BRANCH  22  32
ATOM     32  N   UNL     1      -4.258   1.897   3.765  0.00  0.00    -0.342 N 
ATOM     33  H   UNL     1      -4.538   2.640   4.526  0.00  0.00    +0.144 HD
ATOM     34  H   UNL     1      -4.829   0.961   3.673  0.00  0.00    +0.144 HD
ENDBRANCH  22  32
BRANCH  21  35
ATOM     35  C   UNL     1      -3.251   0.017   1.563  0.00  0.00    +0.104 C 
ATOM     36  N   UNL     1      -3.675  -0.998   1.279  0.00  0.00    -0.191 NA
ENDBRANCH  21  35
ENDBRANCH  19  20
ENDBRANCH   1  19
TORSDOF 10
