REMARK  Name = ZINC04324077
REMARK  6 active torsions:
REMARK  status: ('A' for Active; 'I' for Inactive)
REMARK    1  A    between atoms: C_1  and  O_2
REMARK    2  A    between atoms: O_2  and  C_3
REMARK    3  A    between atoms: C_7  and  C_8
REMARK    4  A    between atoms: C_8  and  O_10
REMARK    5  A    between atoms: O_10  and  N_11
REMARK    6  A    between atoms: C_12  and  C_13
REMARK                            x       y       z     vdW  Elec       q    Type
REMARK                         _______ _______ _______ _____ _____    ______ ____
ROOT
ATOM      1  N   UNL     1       5.063  -0.825   0.855  0.00  0.00    -0.058 NA
ATOM      2  C   UNL     1       6.323  -1.150   0.791  0.00  0.00    +0.166 C 
ATOM      3  N   UNL     1       6.823  -1.762  -0.345  0.00  0.00    -0.340 N 
ATOM      4  H   UNL     1       6.235  -1.950  -1.093  0.00  0.00    +0.144 HD
ATOM      5  H   UNL     1       7.761  -2.004  -0.392  0.00  0.00    +0.144 HD
ENDROOT
BRANCH   2   6
ATOM      6  C   UNL     1       7.219  -0.864   1.932  0.00  0.00    +0.053 A 
ATOM      7  C   UNL     1       8.570  -1.205   1.864  0.00  0.00    +0.017 A 
ATOM      8  C   UNL     1       9.402  -0.936   2.930  0.00  0.00    +0.039 A 
ATOM      9  C   UNL     1       8.899  -0.327   4.070  0.00  0.00    +0.126 A 
ATOM     10  C   UNL     1       7.559   0.015   4.145  0.00  0.00    +0.077 A 
ATOM     11  C   UNL     1       6.717  -0.245   3.080  0.00  0.00    +0.137 A 
ATOM     12  F   UNL     1       5.411   0.093   3.151  0.00  0.00    -0.205 F 
ATOM     13  F   UNL     1       9.719  -0.066   5.111  0.00  0.00    -0.205 F 
ENDBRANCH   2   6
BRANCH   1  14
ATOM     14  O   UNL     1       4.205  -1.099  -0.238  0.00  0.00    -0.309 OA
BRANCH  14  15
ATOM     15  C   UNL     1       2.928  -0.713  -0.043  0.00  0.00    +0.376 C 
ATOM     16  O   UNL     1       2.606  -0.181   1.004  0.00  0.00    -0.242 OA
BRANCH  15  21
ATOM     17  C   UNL     1       0.605  -0.607  -1.055  0.00  0.00    +0.155 A 
ATOM     18  C   UNL     1      -0.082  -0.939  -2.204  0.00  0.00    +0.067 A 
ATOM     19  C   UNL     1       0.584  -1.539  -3.219  0.00  0.00    +0.065 A 
ATOM     20  S   UNL     1       2.162  -1.675  -2.659  0.00  0.00    -0.085 S 
ATOM     21  C   UNL     1       1.962  -0.926  -1.054  0.00  0.00    +0.141 A 
ATOM     22 BR   UNL     1      -1.929  -0.563  -2.360  0.00  0.00    -0.046 Br
BRANCH  17  24
ATOM     23  C   UNL     1      -0.017   1.425   0.010  0.00  0.00    +0.277 C 
ATOM     24  O   UNL     1       0.002  -0.004   0.002  0.00  0.00    -0.493 OA
ENDBRANCH  17  24
ENDBRANCH  15  21
ENDBRANCH  14  15
ENDBRANCH   1  14
TORSDOF 5
