REMARK  Name = ZINC10370029
REMARK  11 active torsions:
REMARK  status: ('A' for Active; 'I' for Inactive)
REMARK    1  A    between atoms: C_1  and  C_2
REMARK    2  A    between atoms: C_2  and  C_3
REMARK    3  A    between atoms: C_2  and  C_4
REMARK    4  A    between atoms: C_2  and  C_5
REMARK    5  A    between atoms: N_7  and  C_30
REMARK    6  A    between atoms: N_16  and  C_21
REMARK    7  A    between atoms: N_19  and  C_20
REMARK    8  A    between atoms: C_21  and  C_22
REMARK    9  A    between atoms: C_30  and  C_31
REMARK   10  A    between atoms: C_31  and  C_32
REMARK   11  A    between atoms: C_32  and  O_33
REMARK                            x       y       z     vdW  Elec       q    Type
REMARK                         _______ _______ _______ _____ _____    ______ ____
ROOT
ATOM      1  C   UNL     1       0.832   5.775  -0.343  0.00  0.00    +0.062 C 
ATOM      2  N   UNL     1      -0.437   5.789  -0.312  0.00  0.00    -0.184 NA
ATOM      3  N   UNL     1      -1.205   4.653  -0.011  0.00  0.00    -0.193 N 
ATOM      4  C   UNL     1      -0.551   3.436  -0.002  0.00  0.00    +0.221 A 
ATOM      5  N   UNL     1      -1.041   2.223   0.021  0.00  0.00    -0.195 NA
ATOM      6  C   UNL     1      -0.046   1.331   0.016  0.00  0.00    +0.170 A 
ATOM      7  C   UNL     1       1.156   2.036  -0.019  0.00  0.00    +0.153 A 
ATOM      8  N   UNL     1       0.816   3.372  -0.028  0.00  0.00    -0.299 N 
ATOM      9  C   UNL     1       1.669   4.559  -0.055  0.00  0.00    +0.178 C 
ATOM     10  C   UNL     1       2.367   1.320  -0.037  0.00  0.00    +0.283 A 
ATOM     11  O   UNL     1       3.431   1.912  -0.069  0.00  0.00    -0.265 OA
ATOM     12  N   UNL     1       2.340  -0.028  -0.018  0.00  0.00    -0.255 N 
ATOM     13  C   UNL     1       1.174  -0.697   0.016  0.00  0.00    +0.334 A 
ATOM     14  O   UNL     1       1.188  -1.913   0.032  0.00  0.00    -0.246 OA
ATOM     15  N   UNL     1      -0.008  -0.053   0.033  0.00  0.00    -0.279 N 
ATOM     16  C   UNL     1      -1.256  -0.818   0.069  0.00  0.00    +0.155 C 
ENDROOT
BRANCH   1  18
ATOM     17  C   UNL     1       0.515   8.161  -0.941  0.00  0.00    +0.017 C 
ATOM     18  C   UNL     1       1.544   7.057  -0.688  0.00  0.00    +0.004 C 
ATOM     19  C   UNL     1       2.452   7.465   0.474  0.00  0.00    +0.017 C 
ATOM     20  C   UNL     1       2.389   6.849  -1.946  0.00  0.00    +0.017 C 
ENDBRANCH   1  18
BRANCH  12  21
ATOM     21  C   UNL     1       3.600  -0.775  -0.035  0.00  0.00    +0.166 C 
BRANCH  21  22
ATOM     22  C   UNL     1       3.950  -1.136  -1.456  0.00  0.00    -0.009 A 
ATOM     23  C   UNL     1       3.184  -0.654  -2.501  0.00  0.00    +0.008 A 
ATOM     24  C   UNL     1       3.509  -0.980  -3.804  0.00  0.00    +0.020 A 
ATOM     25  C   UNL     1       4.594  -1.798  -4.063  0.00  0.00    +0.042 A 
ATOM     26  C   UNL     1       5.358  -2.286  -3.018  0.00  0.00    +0.040 A 
ATOM     27  C   UNL     1       5.036  -1.954  -1.714  0.00  0.00    +0.047 A 
ATOM     28 CL   UNL     1       5.994  -2.565  -0.401  0.00  0.00    -0.083 Cl
ATOM     29 CL   UNL     1       4.997  -2.213  -5.700  0.00  0.00    -0.083 Cl
ENDBRANCH  21  22
ENDBRANCH  12  21
BRANCH   3  30
ATOM     30  C   UNL     1      -2.638   4.753   0.280  0.00  0.00    +0.137 C 
BRANCH  30  31
ATOM     31  C   UNL     1      -2.839   4.958   1.783  0.00  0.00    +0.049 C 
BRANCH  31  32
ATOM     32  C   UNL     1      -4.335   5.063   2.087  0.00  0.00    +0.157 C 
BRANCH  32  33
ATOM     33  O   UNL     1      -4.524   5.255   3.490  0.00  0.00    -0.395 OA
ATOM     34  H   UNL     1      -5.450   5.330   3.756  0.00  0.00    +0.209 HD
ENDBRANCH  32  33
ENDBRANCH  31  32
ENDBRANCH  30  31
ENDBRANCH   3  30
TORSDOF 7
