REMARK  Name = ZINC13596465
REMARK  11 active torsions:
REMARK  status: ('A' for Active; 'I' for Inactive)
REMARK    1  A    between atoms: C_1  and  C_2
REMARK    2  A    between atoms: C_2  and  C_3
REMARK    3  A    between atoms: C_3  and  C_28
REMARK    4  A    between atoms: N_4  and  N_5
REMARK    5  A    between atoms: C_6  and  C_8
REMARK    6  A    between atoms: C_8  and  S_9
REMARK    7  A    between atoms: S_9  and  C_10
REMARK    8  A    between atoms: C_13  and  C_21
REMARK    9  A    between atoms: N_14  and  C_15
REMARK   10  A    between atoms: C_24  and  C_27
REMARK   11  A    between atoms: C_31  and  O_34
REMARK                            x       y       z     vdW  Elec       q    Type
REMARK                         _______ _______ _______ _____ _____    ______ ____
ROOT
ATOM      1  S   UNL     1      -3.785   1.947   1.169  0.00  0.00    -0.076 S 
ENDROOT
BRANCH   1   2
ATOM      2  C   UNL     1      -5.139   0.819   1.157  0.00  0.00    +0.197 A 
ATOM      3  N   UNL     1      -5.083  -0.463   0.873  0.00  0.00    -0.122 NA
ATOM      4  N   UNL     1      -6.253  -0.987   0.959  0.00  0.00    -0.128 NA
ATOM      5  C   UNL     1      -7.130  -0.073   1.303  0.00  0.00    +0.169 A 
ATOM      6  N   UNL     1      -6.443   1.113   1.446  0.00  0.00    -0.270 N 
BRANCH   5   7
ATOM      7  C   UNL     1      -8.580  -0.278   1.505  0.00  0.00    +0.020 A 
ATOM      8  C   UNL     1      -9.441   0.819   1.567  0.00  0.00    +0.012 A 
ATOM      9  C   UNL     1     -10.794   0.620   1.751  0.00  0.00    +0.004 A 
ATOM     10  C   UNL     1     -11.296  -0.662   1.883  0.00  0.00    -0.050 A 
ATOM     11  C   UNL     1     -10.448  -1.753   1.828  0.00  0.00    +0.004 A 
ATOM     12  C   UNL     1      -9.094  -1.569   1.639  0.00  0.00    +0.012 A 
ATOM     13  C   UNL     1     -12.775  -0.871   2.088  0.00  0.00    +0.044 C 
ENDBRANCH   5   7
BRANCH   6  14
ATOM     14  C   UNL     1      -6.970   2.360   1.810  0.00  0.00    +0.051 A 
ATOM     15  C   UNL     1      -7.518   2.542   3.073  0.00  0.00    +0.026 A 
ATOM     16  C   UNL     1      -8.032   3.773   3.430  0.00  0.00    +0.002 A 
ATOM     17  C   UNL     1      -8.011   4.821   2.528  0.00  0.00    +0.000 A 
ATOM     18  C   UNL     1      -7.471   4.641   1.268  0.00  0.00    +0.002 A 
ATOM     19  C   UNL     1      -6.951   3.413   0.906  0.00  0.00    +0.026 A 
ENDBRANCH   6  14
ENDBRANCH   1   2
BRANCH   1  20
ATOM     20  C   UNL     1      -2.440   0.829   0.702  0.00  0.00    +0.174 C 
BRANCH  20  22
ATOM     21  N   UNL     1      -0.001   0.966   0.318  0.00  0.00    -0.206 N 
ATOM     22  C   UNL     1      -1.145   1.597   0.647  0.00  0.00    +0.242 C 
ATOM     23  O   UNL     1      -1.132   2.784   0.899  0.00  0.00    -0.273 OA
ATOM     24  H   UNL     1      -0.011   0.018   0.116  0.00  0.00    +0.177 HD
BRANCH  21  26
ATOM     25  C   UNL     1       2.324   1.052   0.084  0.00  0.00    +0.066 C 
ATOM     26  N   UNL     1       1.203   1.681   0.261  0.00  0.00    -0.184 NA
BRANCH  25  27
ATOM     27  C   UNL     1       2.349  -0.422   0.075  0.00  0.00    -0.002 A 
ATOM     28  C   UNL     1       3.124  -1.104  -0.865  0.00  0.00    +0.013 A 
ATOM     29  C   UNL     1       3.148  -2.482  -0.866  0.00  0.00    +0.046 A 
ATOM     30  C   UNL     1       2.395  -3.192   0.060  0.00  0.00    +0.117 A 
ATOM     31  C   UNL     1       1.619  -2.518   0.994  0.00  0.00    +0.046 A 
ATOM     32  C   UNL     1       1.593  -1.140   1.005  0.00  0.00    +0.013 A 
BRANCH  30  33
ATOM     33  O   UNL     1       2.418  -4.551   0.053  0.00  0.00    -0.507 OA
ATOM     34  H   UNL     1       1.742  -4.952  -0.511  0.00  0.00    +0.292 HD
ENDBRANCH  30  33
ENDBRANCH  25  27
BRANCH  25  36
ATOM     35  C   UNL     1       4.256   2.087   1.244  0.00  0.00    +0.010 C 
ATOM     36  C   UNL     1       3.600   1.829  -0.115  0.00  0.00    +0.054 C 
ENDBRANCH  25  36
ENDBRANCH  21  26
ENDBRANCH  20  22
ENDBRANCH   1  20
TORSDOF 9
