REMARK  Name = ZINC40384607
REMARK  6 active torsions:
REMARK  status: ('A' for Active; 'I' for Inactive)
REMARK    1  A    between atoms: C_1  and  C_2
REMARK    2  A    between atoms: N_8  and  S_9
REMARK    3  A    between atoms: S_9  and  N_12
REMARK    4  A    between atoms: N_12  and  C_13
REMARK    5  A    between atoms: C_18  and  S_19
REMARK    6  A    between atoms: S_19  and  N_22
REMARK                            x       y       z     vdW  Elec       q    Type
REMARK                         _______ _______ _______ _____ _____    ______ ____
ROOT
ATOM      1  C   UNL     1       1.060   1.925   4.298  0.00  0.00    +0.102 A 
ATOM      2  C   UNL     1       2.302   2.535   4.169  0.00  0.00    +0.029 A 
ATOM      3  C   UNL     1       2.729   3.436   5.124  0.00  0.00    +0.002 A 
ATOM      4  C   UNL     1       1.923   3.731   6.209  0.00  0.00    +0.002 A 
ATOM      5  C   UNL     1       0.687   3.125   6.340  0.00  0.00    +0.030 A 
ATOM      6  C   UNL     1       0.251   2.228   5.385  0.00  0.00    +0.129 A 
ENDROOT
BRANCH   6   7
ATOM      7  S   UNL     1      -1.328   1.463   5.550  0.00  0.00    +0.058 S 
ATOM      8  O   UNL     1      -1.126   0.070   5.357  0.00  0.00    -0.153 OA
ATOM      9  O   UNL     1      -1.914   1.991   6.731  0.00  0.00    -0.153 OA
BRANCH   7  10
ATOM     10  N   UNL     1      -2.260   1.986   4.285  0.00  0.00    -0.203 NA
ATOM     11  H   UNL     1      -1.891   2.603   3.633  0.00  0.00    +0.144 HD
ATOM     12  H   UNL     1      -3.174   1.675   4.195  0.00  0.00    +0.144 HD
ENDBRANCH   7  10
ENDBRANCH   6   7
BRANCH   1  13
ATOM     13  N   UNL     1       0.624   1.014   3.333  0.00  0.00    -0.085 NA
BRANCH  13  14
ATOM     14  S   UNL     1       1.591   0.654   2.037  0.00  0.00    +0.132 S 
ATOM     15  O   UNL     1       2.730  -0.019   2.555  0.00  0.00    -0.136 OA
ATOM     16  O   UNL     1       1.693   1.843   1.265  0.00  0.00    -0.136 OA
BRANCH  14  23
ATOM     17  C   UNL     1      -0.574   1.480   0.410  0.00  0.00    +0.026 C 
ATOM     18  C   UNL     1      -0.294  -0.009   0.197  0.00  0.00    +0.078 C 
ATOM     19  C   UNL     1      -1.561  -0.817   0.496  0.00  0.00    +0.020 C 
ATOM     20  C   UNL     1      -1.239  -2.311   0.416  0.00  0.00    +0.003 C 
ATOM     21  C   UNL     1      -0.183  -2.663   1.466  0.00  0.00    +0.017 C 
ATOM     22  C   UNL     1       1.099  -1.876   1.179  0.00  0.00    +0.111 C 
ATOM     23  N   UNL     1       0.773  -0.445   1.107  0.00  0.00    -0.159 NA
ENDBRANCH  14  23
ENDBRANCH  13  14
ENDBRANCH   1  13
TORSDOF 5
