REMARK  Name = ZINC06443897
REMARK  12 active torsions:
REMARK  status: ('A' for Active; 'I' for Inactive)
REMARK    1  A    between atoms: C_1  and  C_2
REMARK    2  A    between atoms: C_12  and  C_14
REMARK    3  A    between atoms: C_14  and  C_16
REMARK    4  A    between atoms: C_14  and  N_69
REMARK    5  A    between atoms: N_20  and  C_21
REMARK    6  A    between atoms: C_21  and  C_22
REMARK    7  A    between atoms: C_21  and  C_23
REMARK    8  A    between atoms: C_21  and  C_24
REMARK    9  A    between atoms: C_25  and  C_26
REMARK   10  A    between atoms: C_25  and  N_69
REMARK   11  A    between atoms: C_32  and  C_33
REMARK   12  A    between atoms: C_32  and  N_69
REMARK                            x       y       z     vdW  Elec       q    Type
REMARK                         _______ _______ _______ _____ _____    ______ ____
ROOT
ATOM      1  C   UNL     1       2.197  -4.133  -1.523  0.00  0.00    +0.040 C 
ENDROOT
BRANCH   1  13
ATOM      2  C   UNL     1       0.229  -6.335  -7.395  0.00  0.00    +0.046 C 
ATOM      3  C   UNL     1       1.588  -6.314  -6.744  0.00  0.00    -0.026 A 
ATOM      4  C   UNL     1       2.682  -6.820  -7.412  0.00  0.00    +0.005 A 
ATOM      5  C   UNL     1       3.939  -6.806  -6.824  0.00  0.00    +0.001 A 
ATOM      6  C   UNL     1       4.115  -6.290  -5.571  0.00  0.00    +0.010 A 
ATOM      7  C   UNL     1       3.019  -5.771  -4.875  0.00  0.00    -0.001 A 
ATOM      8  C   UNL     1       1.743  -5.783  -5.468  0.00  0.00    +0.052 A 
ATOM      9  N   UNL     1       0.666  -5.269  -4.778  0.00  0.00    -0.322 N 
ATOM     10  H   UNL     1      -0.213  -5.278  -5.188  0.00  0.00    +0.169 HD
ATOM     11  C   UNL     1       0.816  -4.755  -3.545  0.00  0.00    +0.251 A 
ATOM     12  O   UNL     1      -0.159  -4.309  -2.964  0.00  0.00    -0.268 OA
ATOM     13  C   UNL     1       2.074  -4.718  -2.906  0.00  0.00    +0.011 A 
ATOM     14  C   UNL     1       3.173  -5.204  -3.534  0.00  0.00    +0.017 A 
ENDBRANCH   1  13
BRANCH   1  15
ATOM     15  C   UNL     1       1.391  -4.959  -0.554  0.00  0.00    +0.143 A 
ATOM     16  N   UNL     1       0.091  -4.924  -0.387  0.00  0.00    -0.115 NA
ATOM     17  N   UNL     1      -0.215  -5.777   0.528  0.00  0.00    -0.023 NA
ATOM     18  N   UNL     1       0.855  -6.350   0.956  0.00  0.00    -0.043 NA
ATOM     19  N   UNL     1       1.867  -5.872   0.313  0.00  0.00    -0.225 N 
BRANCH  19  20
ATOM     20  C   UNL     1       3.270  -6.253   0.492  0.00  0.00    +0.059 C 
ATOM     21  C   UNL     1       4.059  -5.057   1.029  0.00  0.00    +0.036 C 
ATOM     22  C   UNL     1       3.361  -7.412   1.488  0.00  0.00    +0.036 C 
ATOM     23  C   UNL     1       3.857  -6.689  -0.852  0.00  0.00    +0.036 C 
ENDBRANCH  19  20
ENDBRANCH   1  15
BRANCH   1  24
ATOM     24  N   UNL     1       1.663  -2.755  -1.534  0.00  0.00    +0.395 N 
ATOM     25  H   UNL     1       0.656  -2.789  -1.731  0.00  0.00    -0.079 HD
BRANCH  24  26
ATOM     26  C   UNL     1       1.873  -2.121  -0.215  0.00  0.00    -0.041 C 
BRANCH  26  27
ATOM     27  C   UNL     1       0.741  -2.521   0.696  0.00  0.00    -0.064 A 
ATOM     28  C   UNL     1      -0.469  -1.856   0.629  0.00  0.00    +0.002 A 
ATOM     29  C   UNL     1      -1.508  -2.226   1.461  0.00  0.00    +0.000 A 
ATOM     30  C   UNL     1      -1.335  -3.255   2.368  0.00  0.00    +0.000 A 
ATOM     31  C   UNL     1      -0.123  -3.916   2.439  0.00  0.00    +0.000 A 
ATOM     32  C   UNL     1       0.915  -3.549   1.603  0.00  0.00    +0.002 A 
ENDBRANCH  26  27
ENDBRANCH  24  26
BRANCH  24  33
ATOM     33  C   UNL     1       2.332  -1.962  -2.587  0.00  0.00    -0.041 C 
BRANCH  33  34
ATOM     34  C   UNL     1       1.622  -0.640  -2.725  0.00  0.00    -0.064 A 
ATOM     35  C   UNL     1       2.038   0.448  -1.980  0.00  0.00    +0.004 A 
ATOM     36  C   UNL     1       1.388   1.661  -2.107  0.00  0.00    +0.038 A 
ATOM     37  C   UNL     1       0.321   1.787  -2.979  0.00  0.00    +0.123 A 
ATOM     38  C   UNL     1      -0.095   0.697  -3.725  0.00  0.00    +0.038 A 
ATOM     39  C   UNL     1       0.556  -0.515  -3.597  0.00  0.00    +0.004 A 
ATOM     40  F   UNL     1      -0.315   2.973  -3.103  0.00  0.00    -0.205 F 
ENDBRANCH  33  34
ENDBRANCH  24  33
ENDBRANCH   1  24
TORSDOF 8
