REMARK  Name = ZINC32809989
REMARK  6 active torsions:
REMARK  status: ('A' for Active; 'I' for Inactive)
REMARK    1  A    between atoms: C_4  and  C_7
REMARK    2  A    between atoms: C_8  and  C_9
REMARK    3  A    between atoms: N_22  and  C_23
REMARK    4  A    between atoms: C_23  and  C_24
REMARK    5  A    between atoms: C_24  and  N_25
REMARK    6  A    between atoms: N_25  and  C_26
REMARK                            x       y       z     vdW  Elec       q    Type
REMARK                         _______ _______ _______ _____ _____    ______ ____
ROOT
ATOM      1  C   UNL     1       0.232  -0.612  -8.621  0.00  0.00    +0.156 A 
ATOM      2  N   UNL     1       0.004  -0.063  -7.428  0.00  0.00    -0.213 NA
ATOM      3  C   UNL     1      -0.540   1.133  -7.299  0.00  0.00    +0.131 A 
ATOM      4  C   UNL     1      -0.903   1.862  -8.468  0.00  0.00    +0.051 A 
ATOM      5  C   UNL     1      -1.506   3.192  -8.563  0.00  0.00    -0.025 A 
ATOM      6  C   UNL     1      -1.748   3.667  -9.803  0.00  0.00    -0.004 A 
ATOM      7  S   UNL     1      -1.190   2.395 -10.904  0.00  0.00    -0.073 S 
ATOM      8  C   UNL     1      -0.630   1.223  -9.695  0.00  0.00    +0.114 A 
ATOM      9  N   UNL     1      -0.083   0.026  -9.744  0.00  0.00    -0.221 NA
ATOM     10  C   UNL     1      -2.358   4.987 -10.165  0.00  0.00    +0.043 C 
ATOM     11  C   UNL     1      -3.013   5.580  -8.909  0.00  0.00    +0.005 C 
ATOM     12  C   UNL     1      -2.023   5.480  -7.744  0.00  0.00    +0.005 C 
ATOM     13  C   UNL     1      -1.857   4.018  -7.329  0.00  0.00    +0.037 C 
ATOM     14  N   UNL     1      -0.761   1.669  -6.043  0.00  0.00    -0.330 N 
ATOM     15  H   UNL     1      -1.304   2.620  -5.939  0.00  0.00    +0.147 HD
ENDROOT
BRANCH   1  17
ATOM     16  C   UNL     1       1.077  -2.514  -9.893  0.00  0.00    +0.011 C 
ATOM     17  C   UNL     1       0.843  -1.949  -8.697  0.00  0.00    +0.049 C 
BRANCH  16  21
ATOM     18  C   UNL     1       2.840  -6.367 -10.112  0.00  0.00    +0.000 A 
ATOM     19  C   UNL     1       2.508  -5.695 -11.275  0.00  0.00    +0.001 A 
ATOM     20  C   UNL     1       1.935  -4.443 -11.212  0.00  0.00    +0.008 A 
ATOM     21  C   UNL     1       1.689  -3.852  -9.969  0.00  0.00    -0.025 A 
ATOM     22  C   UNL     1       2.032  -4.535  -8.799  0.00  0.00    +0.008 A 
ATOM     23  C   UNL     1       2.599  -5.789  -8.878  0.00  0.00    +0.001 A 
ENDBRANCH  16  21
ENDBRANCH   1  17
BRANCH  14  24
ATOM     24  C   UNL     1      -0.273   0.970  -4.852  0.00  0.00    +0.084 C 
BRANCH  24  25
ATOM     25  C   UNL     1      -0.646   1.769  -3.602  0.00  0.00    -0.063 C 
BRANCH  25  26
ATOM     26  N   UNL     1      -0.156   1.068  -2.408  0.00  0.00    +0.383 N 
ATOM     27  H   UNL     1      -0.615   0.070  -2.355  0.00  0.00    -0.085 HD
ATOM     28  H   UNL     1       0.938   0.967  -2.465  0.00  0.00    -0.085 HD
BRANCH  26  29
ATOM     29  C   UNL     1      -0.498   1.808  -1.186  0.00  0.00    -0.049 C 
ATOM     30  C   UNL     1      -1.908   1.414  -0.717  0.00  0.00    +0.008 C 
ATOM     31  C   UNL     1      -2.151   1.933   0.721  0.00  0.00    +0.164 C 
ATOM     32  S   UNL     1      -0.452   1.970   1.429  0.00  0.00    -0.033 S 
ATOM     33  O   UNL     1      -0.344   0.963   2.427  0.00  0.00    -0.174 OA
ATOM     34  O   UNL     1      -0.114   3.312   1.750  0.00  0.00    -0.174 OA
ATOM     35  C   UNL     1       0.507   1.448  -0.055  0.00  0.00    +0.150 C 
ENDBRANCH  26  29
ENDBRANCH  25  26
ENDBRANCH  24  25
ENDBRANCH  14  24
TORSDOF 6
