REMARK  Name = ZINC12746058
REMARK  5 active torsions:
REMARK  status: ('A' for Active; 'I' for Inactive)
REMARK    1  A    between atoms: C_3  and  C_22
REMARK    2  A    between atoms: C_4  and  O_8
REMARK    3  A    between atoms: O_8  and  C_9
REMARK    4  A    between atoms: C_14  and  C_15
REMARK    5  A    between atoms: C_14  and  N_62
REMARK                            x       y       z     vdW  Elec       q    Type
REMARK                         _______ _______ _______ _____ _____    ______ ____
ROOT
ATOM      1  C   UNL     1      -1.300   6.235  -6.944  0.00  0.00    +0.021 A 
ATOM      2  C   UNL     1      -2.086   5.238  -7.479  0.00  0.00    +0.018 A 
ATOM      3  C   UNL     1      -2.519   4.183  -6.672  0.00  0.00    +0.079 A 
ATOM      4  C   UNL     1      -2.149   4.147  -5.320  0.00  0.00    +0.134 A 
ATOM      5  C   UNL     1      -1.362   5.160  -4.796  0.00  0.00    +0.066 A 
ATOM      6  C   UNL     1      -0.936   6.196  -5.606  0.00  0.00    +0.044 A 
ATOM      7 CL   UNL     1       0.056   7.458  -4.945  0.00  0.00    -0.083 Cl
ENDROOT
BRANCH   3   8
ATOM      8  C   UNL     1      -3.360   3.113  -7.239  0.00  0.00    +0.250 C 
ATOM      9  O   UNL     1      -4.376   2.769  -6.665  0.00  0.00    -0.270 OA
ATOM     10  N   UNL     1      -3.004   2.516  -8.394  0.00  0.00    -0.297 N 
ATOM     11  C   UNL     1      -1.724   2.839  -9.039  0.00  0.00    +0.108 C 
ATOM     12  C   UNL     1      -0.956   1.530  -9.284  0.00  0.00    +0.019 C 
ATOM     13  C   UNL     1      -1.839   0.570 -10.084  0.00  0.00    +0.003 C 
ATOM     14  C   UNL     1      -3.100   0.245  -9.281  0.00  0.00    +0.019 C 
ATOM     15  C   UNL     1      -3.890   1.534  -9.034  0.00  0.00    +0.108 C 
ENDBRANCH   3   8
BRANCH   4  16
ATOM     16  O   UNL     1      -2.564   3.128  -4.527  0.00  0.00    -0.488 OA
BRANCH  16  17
ATOM     17  C   UNL     1      -2.045   3.088  -3.196  0.00  0.00    +0.170 C 
ATOM     18  C   UNL     1      -2.040   1.642  -2.692  0.00  0.00    +0.026 C 
ATOM     19  C   UNL     1      -1.539   1.613  -1.246  0.00  0.00    -0.075 C 
ATOM     20  C   UNL     1      -2.400   3.842  -0.843  0.00  0.00    -0.075 C 
ATOM     21  C   UNL     1      -2.927   3.938  -2.277  0.00  0.00    +0.026 C 
ATOM     22  N   UNL     1      -2.443   2.430  -0.409  0.00  0.00    +0.380 N 
ATOM     23  H   UNL     1      -3.402   2.078  -0.514  0.00  0.00    -0.082 HD
BRANCH  22  24
ATOM     24  C   UNL     1      -2.047   2.326   1.011  0.00  0.00    -0.075 C 
BRANCH  24  25
ATOM     25  C   UNL     1      -2.321   0.900   1.495  0.00  0.00    -0.024 C 
ATOM     26  C   UNL     1      -1.804   0.735   2.930  0.00  0.00    +0.006 C 
ATOM     27  C   UNL     1      -1.927  -0.739   3.322  0.00  0.00    +0.027 C 
ATOM     28  C   UNL     1      -3.304  -1.244   3.005  0.00  0.00    -0.031 C 
ATOM     29  C   UNL     1      -4.129  -0.649   2.205  0.00  0.00    -0.031 C 
ATOM     30  C   UNL     1      -3.828   0.635   1.490  0.00  0.00    +0.028 C 
ENDBRANCH  24  25
ENDBRANCH  22  24
ENDBRANCH  16  17
ENDBRANCH   4  16
TORSDOF 5
