REMARK  Name = ZINC00946968
REMARK  11 active torsions:
REMARK  status: ('A' for Active; 'I' for Inactive)
REMARK    1  A    between atoms: C_1  and  C_2
REMARK    2  A    between atoms: C_2  and  O_3
REMARK    3  A    between atoms: O_3  and  C_4
REMARK    4  A    between atoms: C_7  and  C_12
REMARK    5  A    between atoms: C_9  and  O_10
REMARK    6  A    between atoms: O_10  and  C_11
REMARK    7  A    between atoms: C_13  and  C_14
REMARK    8  A    between atoms: C_13  and  C_16
REMARK    9  A    between atoms: N_18  and  C_19
REMARK   10  A    between atoms: C_20  and  C_30
REMARK   11  A    between atoms: C_25  and  C_29
REMARK                            x       y       z     vdW  Elec       q    Type
REMARK                         _______ _______ _______ _____ _____    ______ ____
ROOT
ATOM      1  C   UNL     1       3.783  -1.000   0.174  0.00  0.00    +0.259 C 
ATOM      2  O   UNL     1       4.824  -0.371   0.167  0.00  0.00    -0.269 OA
ATOM      3  N   UNL     1       3.808  -2.344   0.268  0.00  0.00    -0.275 N 
ATOM      4  H   UNL     1       2.977  -2.845   0.273  0.00  0.00    +0.156 HD
ENDROOT
BRANCH   3   5
ATOM      5  C   UNL     1       5.019  -3.010   0.356  0.00  0.00    +0.085 A 
ATOM      6  C   UNL     1       5.247  -4.375   0.464  0.00  0.00    +0.068 A 
ATOM      7  C   UNL     1       6.628  -4.821   0.539  0.00  0.00    -0.023 A 
ATOM      8  C   UNL     1       7.553  -3.837   0.504  0.00  0.00    -0.004 A 
ATOM      9  S   UNL     1       6.617  -2.341   0.367  0.00  0.00    -0.077 S 
ATOM     10  C   UNL     1       9.041  -3.994   0.566  0.00  0.00    +0.046 C 
ATOM     11  C   UNL     1       9.383  -5.467   0.300  0.00  0.00    -0.009 C 
ATOM     12  C   UNL     1       8.481  -6.348   1.169  0.00  0.00    +0.008 C 
ATOM     13  C   UNL     1       7.041  -6.283   0.656  0.00  0.00    +0.037 C 
ATOM     14  C   UNL     1      10.849  -5.726   0.656  0.00  0.00    +0.008 C 
BRANCH   6  15
ATOM     15  C   UNL     1       4.136  -5.331   0.498  0.00  0.00    +0.244 C 
ATOM     16  O   UNL     1       3.710  -5.805  -0.538  0.00  0.00    -0.270 OA
ATOM     17  N   UNL     1       3.587  -5.684   1.677  0.00  0.00    -0.325 N 
ATOM     18  H   UNL     1       3.927  -5.306   2.503  0.00  0.00    +0.145 HD
ATOM     19  H   UNL     1       2.852  -6.317   1.700  0.00  0.00    +0.145 HD
ENDBRANCH   6  15
ENDBRANCH   3   5
BRANCH   1  21
ATOM     20  C   UNL     1       2.471   1.082  -0.016  0.00  0.00    +0.032 C 
ATOM     21  C   UNL     1       2.497  -0.292   0.080  0.00  0.00    +0.114 C 
BRANCH  20  25
ATOM     22  C   UNL     1      -1.189   3.083  -0.773  0.00  0.00    +0.162 A 
ATOM     23  C   UNL     1      -0.942   1.845  -1.354  0.00  0.00    +0.050 A 
ATOM     24  C   UNL     1       0.242   1.188  -1.107  0.00  0.00    +0.012 A 
ATOM     25  C   UNL     1       1.208   1.775  -0.276  0.00  0.00    -0.020 A 
ATOM     26  C   UNL     1       0.960   3.027   0.304  0.00  0.00    +0.057 A 
ATOM     27  C   UNL     1      -0.233   3.675   0.054  0.00  0.00    +0.162 A 
BRANCH  27  28
ATOM     28  O   UNL     1      -0.477   4.889   0.615  0.00  0.00    -0.491 OA
ATOM     29  C   UNL     1       0.545   5.435   1.451  0.00  0.00    +0.277 C 
ENDBRANCH  27  28
BRANCH  22  30
ATOM     30  O   UNL     1      -2.361   3.723  -1.016  0.00  0.00    -0.489 OA
BRANCH  30  32
ATOM     31  C   UNL     1      -4.547   3.929  -2.027  0.00  0.00    +0.048 C 
ATOM     32  C   UNL     1      -3.296   3.062  -1.872  0.00  0.00    +0.226 C 
ENDBRANCH  30  32
ENDBRANCH  22  30
ENDBRANCH  20  25
BRANCH  21  33
ATOM     33  C   UNL     1       1.271  -1.032   0.088  0.00  0.00    +0.104 C 
ATOM     34  N   UNL     1       0.298  -1.619   0.094  0.00  0.00    -0.191 NA
ENDBRANCH  21  33
ENDBRANCH   1  21
TORSDOF 8
