REMARK  Name = ZINC55412234
REMARK  4 active torsions:
REMARK  status: ('A' for Active; 'I' for Inactive)
REMARK    1  A    between atoms: C_1  and  C_2
REMARK    2  A    between atoms: C_3  and  C_26
REMARK    3  A    between atoms: C_4  and  C_19
REMARK    4  A    between atoms: C_9  and  C_11
REMARK                            x       y       z     vdW  Elec       q    Type
REMARK                         _______ _______ _______ _____ _____    ______ ____
ROOT
ATOM      1  C   UNL     1      -0.013   1.086   0.008  0.00  0.00    +0.062 C 
ATOM      2  C   UNL     1      -0.742   1.585  -1.213  0.00  0.00    +0.034 C 
ATOM      3  C   UNL     1      -0.877   3.067  -1.412  0.00  0.00    +0.148 C 
ATOM      4  C   UNL     1      -0.876   3.432  -2.900  0.00  0.00    +0.158 C 
ATOM      5  N   UNL     1      -1.705   2.455  -3.606  0.00  0.00    -0.220 N 
ATOM      6  C   UNL     1      -1.855   1.168  -3.168  0.00  0.00    +0.250 A 
ATOM      7  N   UNL     1      -2.653   0.554  -4.001  0.00  0.00    -0.189 NA
ATOM      8  C   UNL     1      -3.027   1.400  -4.973  0.00  0.00    +0.185 A 
ATOM      9  N   UNL     1      -2.464   2.576  -4.765  0.00  0.00    -0.147 NA
ATOM     10  N   UNL     1      -1.219   0.717  -2.046  0.00  0.00    -0.220 NA
ENDROOT
BRANCH   8  11
ATOM     11  C   UNL     1      -3.930   1.067  -6.103  0.00  0.00    +0.039 A 
ATOM     12  C   UNL     1      -4.241   2.033  -7.057  0.00  0.00    +0.013 A 
ATOM     13  C   UNL     1      -5.081   1.718  -8.106  0.00  0.00    +0.001 A 
ATOM     14  C   UNL     1      -5.615   0.446  -8.210  0.00  0.00    +0.001 A 
ATOM     15  C   UNL     1      -5.311  -0.517  -7.266  0.00  0.00    +0.021 A 
ATOM     16  C   UNL     1      -4.465  -0.215  -6.216  0.00  0.00    +0.052 A 
ATOM     17 CL   UNL     1      -4.077  -1.427  -5.035  0.00  0.00    -0.083 Cl
ENDBRANCH   8  11
BRANCH   4  18
ATOM     18  C   UNL     1       0.532   3.388  -3.435  0.00  0.00    -0.022 A 
ATOM     19  C   UNL     1       1.252   2.208  -3.389  0.00  0.00    +0.008 A 
ATOM     20  C   UNL     1       2.543   2.167  -3.880  0.00  0.00    +0.038 A 
ATOM     21  C   UNL     1       3.116   3.307  -4.418  0.00  0.00    +0.123 A 
ATOM     22  C   UNL     1       2.394   4.487  -4.463  0.00  0.00    +0.038 A 
ATOM     23  C   UNL     1       1.101   4.526  -3.977  0.00  0.00    +0.008 A 
ATOM     24  F   UNL     1       4.378   3.267  -4.897  0.00  0.00    -0.205 F 
ENDBRANCH   4  18
BRANCH   3  25
ATOM     25  C   UNL     1      -2.168   3.533  -0.790  0.00  0.00    +0.221 C 
ATOM     26  O   UNL     1      -3.013   4.067  -1.476  0.00  0.00    -0.275 OA
ATOM     27  N   UNL     1      -2.384   3.354   0.528  0.00  0.00    -0.329 N 
ATOM     28  H   UNL     1      -1.708   2.927   1.077  0.00  0.00    +0.145 HD
ATOM     29  H   UNL     1      -3.215   3.654   0.929  0.00  0.00    +0.145 HD
ENDBRANCH   3  25
TORSDOF 3
