REMARK  Name = ZINC32074213
REMARK  9 active torsions:
REMARK  status: ('A' for Active; 'I' for Inactive)
REMARK    1  A    between atoms: C_1  and  C_2
REMARK    2  A    between atoms: C_2  and  C_3
REMARK    3  A    between atoms: C_3  and  O_4
REMARK    4  A    between atoms: O_4  and  C_5
REMARK    5  A    between atoms: C_8  and  C_11
REMARK    6  A    between atoms: C_14  and  O_30
REMARK    7  A    between atoms: C_18  and  C_29
REMARK    8  A    between atoms: C_24  and  O_27
REMARK    9  A    between atoms: O_27  and  C_28
REMARK                            x       y       z     vdW  Elec       q    Type
REMARK                         _______ _______ _______ _____ _____    ______ ____
ROOT
ATOM      1  C   UNL     1       3.240  -4.426  -5.648  0.00  0.00    +0.063 C 
ATOM      2  C   UNL     1       4.388  -5.314  -5.154  0.00  0.00    +0.108 C 
ATOM      3  C   UNL     1       4.795  -6.316  -6.196  0.00  0.00    +0.190 C 
ATOM      4  N   UNL     1       3.963  -6.858  -7.034  0.00  0.00    -0.197 NA
ATOM      5  C   UNL     1       2.655  -6.472  -7.014  0.00  0.00    +0.165 A 
ATOM      6  C   UNL     1       2.252  -5.311  -6.365  0.00  0.00    +0.027 A 
ATOM      7  C   UNL     1       0.884  -5.188  -6.521  0.00  0.00    +0.066 A 
ATOM      8  N   UNL     1       0.454  -6.202  -7.237  0.00  0.00    -0.168 NA
ATOM      9  N   UNL     1       1.549  -7.021  -7.567  0.00  0.00    -0.194 N 
ATOM     10  C   UNL     1       1.504  -8.190  -8.334  0.00  0.00    +0.178 A 
ATOM     11  C   UNL     1       0.323  -8.927  -8.415  0.00  0.00    +0.055 A 
ATOM     12  C   UNL     1       0.327 -10.077  -9.187  0.00  0.00    +0.072 A 
ATOM     13  C   UNL     1       1.511 -10.425  -9.834  0.00  0.00    +0.234 A 
ATOM     14  N   UNL     1       2.584  -9.664  -9.699  0.00  0.00    -0.110 NA
ATOM     15  N   UNL     1       2.579  -8.596  -8.988  0.00  0.00    -0.126 NA
ATOM     16  C   UNL     1       0.030  -4.079  -5.963  0.00  0.00    +0.068 C 
ENDROOT
BRANCH   1  20
ATOM     17  C   UNL     1       1.341  -2.529  -2.322  0.00  0.00    +0.121 A 
ATOM     18  C   UNL     1       1.909  -1.762  -3.329  0.00  0.00    +0.046 A 
ATOM     19  C   UNL     1       2.522  -2.377  -4.403  0.00  0.00    +0.008 A 
ATOM     20  C   UNL     1       2.571  -3.757  -4.475  0.00  0.00    -0.039 A 
ATOM     21  C   UNL     1       2.006  -4.524  -3.473  0.00  0.00    +0.008 A 
ATOM     22  C   UNL     1       1.397  -3.914  -2.394  0.00  0.00    +0.046 A 
BRANCH  17  23
ATOM     23  O   UNL     1       0.738  -1.926  -1.265  0.00  0.00    -0.492 OA
BRANCH  23  24
ATOM     24  C   UNL     1       0.718  -0.497  -1.257  0.00  0.00    +0.229 C 
BRANCH  24  26
ATOM     25  C   UNL     1      -0.019   1.526   0.010  0.00  0.00    +0.007 C 
ATOM     26  C   UNL     1       0.002  -0.004   0.002  0.00  0.00    +0.038 C 
ENDBRANCH  24  26
ENDBRANCH  23  24
ENDBRANCH  17  23
ENDBRANCH   1  20
BRANCH  13  27
ATOM     27  O   UNL     1       1.563 -11.544 -10.601  0.00  0.00    -0.479 OA
ATOM     28  C   UNL     1       2.810 -11.839 -11.235  0.00  0.00    +0.279 C 
ENDBRANCH  13  27
BRANCH   3  29
ATOM     29  O   UNL     1       6.094  -6.673  -6.265  0.00  0.00    -0.495 OA
ATOM     30  H   UNL     1       6.287  -7.321  -6.956  0.00  0.00    +0.293 HD
ENDBRANCH   3  29
TORSDOF 6
