REMARK  Name = ZINC00801140
REMARK  11 active torsions:
REMARK  status: ('A' for Active; 'I' for Inactive)
REMARK    1  A    between atoms: C_1  and  C_2
REMARK    2  A    between atoms: C_3  and  C_35
REMARK    3  A    between atoms: C_4  and  C_23
REMARK    4  A    between atoms: C_10  and  C_15
REMARK    5  A    between atoms: C_18  and  O_21
REMARK    6  A    between atoms: O_21  and  C_22
REMARK    7  A    between atoms: C_28  and  N_29
REMARK    8  A    between atoms: C_35  and  O_37
REMARK    9  A    between atoms: O_37  and  C_38
REMARK   10  A    between atoms: C_38  and  C_39
REMARK   11  A    between atoms: C_39  and  C_40
REMARK                            x       y       z     vdW  Elec       q    Type
REMARK                         _______ _______ _______ _____ _____    ______ ____
ROOT
ATOM      1  C   UNL     1       0.391   0.893   0.613  0.00  0.00    +0.061 C 
ATOM      2  C   UNL     1       0.381  -0.583   0.308  0.00  0.00    +0.016 C 
ATOM      3  C   UNL     1      -0.781  -1.258   0.321  0.00  0.00    +0.065 C 
ATOM      4  C   UNL     1      -0.831  -2.726   0.015  0.00  0.00    +0.095 C 
ATOM      5  C   UNL     1       0.535  -3.352   0.138  0.00  0.00    +0.024 C 
ATOM      6  C   UNL     1       1.647  -2.586   0.128  0.00  0.00    +0.016 C 
ATOM      7  N   UNL     1       1.552  -1.224   0.015  0.00  0.00    -0.321 N 
ATOM      8  C   UNL     1       3.018  -3.206   0.232  0.00  0.00    +0.059 C 
ATOM      9  C   UNL     1       2.941  -4.486   1.067  0.00  0.00    +0.032 C 
ATOM     10  C   UNL     1       1.946  -5.442   0.401  0.00  0.00    +0.088 C 
ATOM     11  C   UNL     1       0.618  -4.749   0.264  0.00  0.00    +0.162 C 
ATOM     12  O   UNL     1      -0.402  -5.410   0.262  0.00  0.00    -0.292 OA
ATOM     13  H   UNL     1       2.322  -0.709  -0.273  0.00  0.00    +0.152 HD
ENDROOT
BRANCH   4  14
ATOM     14  C   UNL     1      -1.339  -2.922  -1.391  0.00  0.00    -0.001 A 
ATOM     15  C   UNL     1      -0.577  -2.499  -2.465  0.00  0.00    +0.056 A 
ATOM     16  C   UNL     1      -1.042  -2.677  -3.757  0.00  0.00    +0.167 A 
ATOM     17  C   UNL     1      -2.277  -3.283  -3.972  0.00  0.00    +0.168 A 
ATOM     18  C   UNL     1      -3.035  -3.705  -2.892  0.00  0.00    +0.082 A 
ATOM     19  C   UNL     1      -2.562  -3.529  -1.604  0.00  0.00    +0.134 A 
ATOM     20  O   UNL     1      -2.507  -3.341  -5.316  0.00  0.00    -0.453 OA
ATOM     21  C   UNL     1      -1.590  -2.400  -5.904  0.00  0.00    +0.466 C 
ATOM     22  O   UNL     1      -0.497  -2.356  -4.967  0.00  0.00    -0.453 OA
BRANCH  19  23
ATOM     23  N   UNL     1      -3.371  -3.985  -0.452  0.00  0.00    +0.057 N 
ATOM     24  O   UNL     1      -4.239  -4.811  -0.612  0.00  0.00    -0.126 OA
ATOM     25  O   UNL     1      -3.163  -3.533   0.650  0.00  0.00    -0.126 OA
ENDBRANCH  19  23
ENDBRANCH   4  14
BRANCH   9  26
ATOM     26  C   UNL     1       4.302  -5.130   1.133  0.00  0.00    -0.043 A 
ATOM     27  C   UNL     1       4.936  -5.525  -0.031  0.00  0.00    +0.007 A 
ATOM     28  C   UNL     1       6.183  -6.117   0.027  0.00  0.00    +0.046 A 
ATOM     29  C   UNL     1       6.800  -6.314   1.254  0.00  0.00    +0.120 A 
ATOM     30  C   UNL     1       6.162  -5.916   2.420  0.00  0.00    +0.046 A 
ATOM     31  C   UNL     1       4.917  -5.321   2.357  0.00  0.00    +0.007 A 
BRANCH  29  32
ATOM     32  O   UNL     1       8.026  -6.896   1.314  0.00  0.00    -0.495 OA
ATOM     33  C   UNL     1       8.601  -7.067   2.611  0.00  0.00    +0.277 C 
ENDBRANCH  29  32
ENDBRANCH   9  26
BRANCH   3  34
ATOM     34  C   UNL     1      -1.979  -0.573   0.629  0.00  0.00    +0.338 C 
ATOM     35  O   UNL     1      -1.952   0.618   0.880  0.00  0.00    -0.245 OA
BRANCH  34  36
ATOM     36  O   UNL     1      -3.153  -1.239   0.646  0.00  0.00    -0.461 OA
BRANCH  36  37
ATOM     37  C   UNL     1      -4.323  -0.483   0.965  0.00  0.00    +0.237 C 
BRANCH  37  38
ATOM     38  C   UNL     1      -5.547  -1.401   0.935  0.00  0.00    +0.076 C 
BRANCH  38  39
ATOM     39  C   UNL     1      -6.781  -0.605   1.272  0.00  0.00    -0.044 A 
ATOM     40  C   UNL     1      -7.187  -0.483   2.587  0.00  0.00    +0.004 A 
ATOM     41  C   UNL     1      -8.319   0.248   2.897  0.00  0.00    +0.000 A 
ATOM     42  C   UNL     1      -9.045   0.857   1.890  0.00  0.00    +0.000 A 
ATOM     43  C   UNL     1      -8.638   0.735   0.574  0.00  0.00    +0.000 A 
ATOM     44  C   UNL     1      -7.504   0.008   0.266  0.00  0.00    +0.004 A 
ENDBRANCH  38  39
ENDBRANCH  37  38
ENDBRANCH  36  37
ENDBRANCH  34  36
ENDBRANCH   3  34
TORSDOF 9
