REMARK  Name = ZINC08751010
REMARK  10 active torsions:
REMARK  status: ('A' for Active; 'I' for Inactive)
REMARK    1  A    between atoms: C_1  and  N_2
REMARK    2  A    between atoms: C_4  and  S_11
REMARK    3  A    between atoms: N_7  and  C_10
REMARK    4  A    between atoms: S_11  and  N_14
REMARK    5  A    between atoms: N_14  and  C_15
REMARK    6  A    between atoms: C_15  and  C_16
REMARK    7  A    between atoms: C_16  and  C_18
REMARK    8  A    between atoms: C_16  and  N_58
REMARK    9  A    between atoms: C_21  and  O_24
REMARK   10  A    between atoms: O_24  and  C_25
REMARK                            x       y       z     vdW  Elec       q    Type
REMARK                         _______ _______ _______ _____ _____    ______ ____
ROOT
ATOM      1  C   UNL     1      -2.911   1.014   1.571  0.00  0.00    +0.095 C 
ENDROOT
BRANCH   1   2
ATOM      2  N   UNL     1      -1.994   0.142   2.310  0.00  0.00    -0.191 NA
ATOM      3  H   UNL     1      -1.398  -0.454   1.830  0.00  0.00    +0.148 HD
BRANCH   2   4
ATOM      4  S   UNL     1      -1.977   0.174   3.966  0.00  0.00    +0.065 S 
ATOM      5  O   UNL     1      -1.017  -0.788   4.380  0.00  0.00    -0.153 OA
ATOM      6  O   UNL     1      -1.898   1.541   4.345  0.00  0.00    -0.153 OA
BRANCH   4  10
ATOM      7  C   UNL     1      -6.678   0.912   5.947  0.00  0.00    +0.153 C 
ATOM      8  N   UNL     1      -5.679  -0.022   5.421  0.00  0.00    -0.301 N 
ATOM      9  C   UNL     1      -4.464   0.449   5.003  0.00  0.00    +0.124 A 
ATOM     10  C   UNL     1      -3.545  -0.412   4.515  0.00  0.00    +0.186 A 
ATOM     11  C   UNL     1      -3.857  -1.791   4.455  0.00  0.00    +0.283 A 
ATOM     12  O   UNL     1      -3.043  -2.587   4.022  0.00  0.00    -0.265 OA
ATOM     13  N   UNL     1      -5.064  -2.216   4.881  0.00  0.00    -0.262 N 
ATOM     14  C   UNL     1      -5.963  -1.335   5.359  0.00  0.00    +0.332 A 
ATOM     15  O   UNL     1      -7.047  -1.733   5.739  0.00  0.00    -0.246 OA
ATOM     16  C   UNL     1      -5.398  -3.641   4.823  0.00  0.00    +0.157 C 
ENDBRANCH   4  10
ENDBRANCH   2   4
ENDBRANCH   1   2
BRANCH   1  17
ATOM     17  C   UNL     1      -2.459   1.108   0.112  0.00  0.00    -0.022 C 
BRANCH  17  23
ATOM     18  C   UNL     1      -4.771   1.361  -0.562  0.00  0.00    -0.078 C 
ATOM     19  C   UNL     1      -5.763   2.312  -1.237  0.00  0.00    -0.019 C 
ATOM     20  C   UNL     1      -5.360   2.506  -2.701  0.00  0.00    -0.004 C 
ATOM     21  C   UNL     1      -3.929   3.048  -2.761  0.00  0.00    -0.019 C 
ATOM     22  C   UNL     1      -2.990   2.076  -2.042  0.00  0.00    -0.078 C 
ATOM     23  N   UNL     1      -3.417   1.952  -0.632  0.00  0.00    +0.385 N 
ATOM     24  H   UNL     1      -3.439   2.886  -0.207  0.00  0.00    -0.081 HD
ENDBRANCH  17  23
BRANCH  17  25
ATOM     25  C   UNL     1      -1.095   1.745   0.048  0.00  0.00    -0.059 A 
ATOM     26  C   UNL     1       0.029   0.954  -0.102  0.00  0.00    +0.005 A 
ATOM     27  C   UNL     1       1.280   1.536  -0.167  0.00  0.00    +0.046 A 
ATOM     28  C   UNL     1       1.409   2.915  -0.076  0.00  0.00    +0.120 A 
ATOM     29  C   UNL     1       0.279   3.705   0.080  0.00  0.00    +0.046 A 
ATOM     30  C   UNL     1      -0.970   3.118   0.145  0.00  0.00    +0.005 A 
BRANCH  28  31
ATOM     31  O   UNL     1       2.638   3.490  -0.140  0.00  0.00    -0.495 OA
ATOM     32  C   UNL     1       2.695   4.914  -0.039  0.00  0.00    +0.277 C 
ENDBRANCH  28  31
ENDBRANCH  17  25
ENDBRANCH   1  17
TORSDOF 7
