REMARK  Name = ZINC36029896
REMARK  8 active torsions:
REMARK  status: ('A' for Active; 'I' for Inactive)
REMARK    1  A    between atoms: C_1  and  C_2
REMARK    2  A    between atoms: C_2  and  C_3
REMARK    3  A    between atoms: C_3  and  C_5
REMARK    4  A    between atoms: C_3  and  C_6
REMARK    5  A    between atoms: N_10  and  C_29
REMARK    6  A    between atoms: N_15  and  S_18
REMARK    7  A    between atoms: S_18  and  C_21
REMARK    8  A    between atoms: C_29  and  C_30
REMARK                            x       y       z     vdW  Elec       q    Type
REMARK                         _______ _______ _______ _____ _____    ______ ____
ROOT
ATOM      1  C   UNL     1       1.380  -1.641  -1.115  0.00  0.00    +0.022 C 
ATOM      2  C   UNL     1       2.146  -2.409  -0.059  0.00  0.00    +0.201 C 
ATOM      3  O   UNL     1       2.277  -2.079   1.101  0.00  0.00    -0.277 OA
ATOM      4  N   UNL     1       2.658  -3.521  -0.625  0.00  0.00    -0.313 N 
ATOM      5  C   UNL     1       2.277  -3.570  -2.039  0.00  0.00    +0.006 C 
ATOM      6  N   UNL     1       1.846  -2.202  -2.406  0.00  0.00    +0.401 N 
ATOM      7  C   UNL     1       1.118  -4.544  -2.241  0.00  0.00    +0.023 C 
ATOM      8  C   UNL     1       1.558  -5.951  -1.821  0.00  0.00    +0.109 C 
ATOM      9  N   UNL     1       2.785  -6.299  -2.551  0.00  0.00    -0.177 NA
ATOM     10  C   UNL     1       3.933  -5.385  -2.482  0.00  0.00    +0.109 C 
ATOM     11  C   UNL     1       3.473  -3.983  -2.895  0.00  0.00    +0.023 C 
ATOM     12  H   UNL     1       1.091  -2.232  -3.075  0.00  0.00    -0.082 HD
ATOM     13  H   UNL     1       2.623  -1.669  -2.766  0.00  0.00    -0.082 HD
ENDROOT
BRANCH   9  14
ATOM     14  S   UNL     1       2.872  -7.696  -3.436  0.00  0.00    +0.062 S 
ATOM     15  O   UNL     1       4.228  -8.120  -3.392  0.00  0.00    -0.153 OA
ATOM     16  O   UNL     1       1.801  -8.521  -2.998  0.00  0.00    -0.153 OA
BRANCH  14  17
ATOM     17  C   UNL     1       2.531  -7.274  -5.112  0.00  0.00    +0.125 A 
ATOM     18  C   UNL     1       3.528  -7.368  -6.065  0.00  0.00    +0.030 A 
ATOM     19  C   UNL     1       3.261  -7.037  -7.380  0.00  0.00    +0.003 A 
ATOM     20  C   UNL     1       1.997  -6.611  -7.744  0.00  0.00    +0.021 A 
ATOM     21  C   UNL     1       0.999  -6.516  -6.792  0.00  0.00    +0.061 A 
ATOM     22  C   UNL     1       1.264  -6.854  -5.475  0.00  0.00    +0.086 A 
ATOM     23 CL   UNL     1       0.010  -6.743  -4.280  0.00  0.00    -0.080 Cl
ATOM     24 CL   UNL     1      -0.589  -5.981  -7.248  0.00  0.00    -0.082 Cl
ENDBRANCH  14  17
ENDBRANCH   9  14
BRANCH   1  25
ATOM     25  C   UNL     1       1.710  -0.149  -1.032  0.00  0.00    -0.020 C 
ATOM     26  C   UNL     1       3.219   0.049  -1.182  0.00  0.00    +0.006 C 
BRANCH  25  28
ATOM     27  C   UNL     1       1.470   1.913   0.357  0.00  0.00    +0.004 C 
ATOM     28  C   UNL     1       1.256   0.399   0.322  0.00  0.00    -0.001 C 
ENDBRANCH  25  28
ENDBRANCH   1  25
BRANCH   4  29
ATOM     29  C   UNL     1       3.469  -4.526   0.067  0.00  0.00    +0.109 C 
BRANCH  29  30
ATOM     30  C   UNL     1       4.934  -4.084   0.070  0.00  0.00    +0.006 C 
ATOM     31  C   UNL     1       5.972  -5.074  -0.463  0.00  0.00    +0.005 C 
ATOM     32  C   UNL     1       5.884  -4.792   1.038  0.00  0.00    +0.005 C 
ENDBRANCH  29  30
ENDBRANCH   4  29
TORSDOF 6
