REMARK  Name = ZINC36331932
REMARK  6 active torsions:
REMARK  status: ('A' for Active; 'I' for Inactive)
REMARK    1  A    between atoms: C_1  and  O_2
REMARK    2  A    between atoms: O_2  and  C_3
REMARK    3  A    between atoms: C_6  and  C_12
REMARK    4  A    between atoms: C_8  and  N_9
REMARK    5  A    between atoms: C_12  and  N_13
REMARK    6  A    between atoms: N_13  and  C_14
REMARK                            x       y       z     vdW  Elec       q    Type
REMARK                         _______ _______ _______ _____ _____    ______ ____
ROOT
ATOM      1  C   UNL     1      -4.981  -2.629   0.034  0.00  0.00    -0.046 C 
ENDROOT
BRANCH   1   5
ATOM      2  C   UNL     1      -1.200  -0.637   0.010  0.00  0.00    +0.150 A 
ATOM      3  C   UNL     1      -2.375   0.101   0.019  0.00  0.00    +0.048 A 
ATOM      4  C   UNL     1      -3.596  -0.545   0.027  0.00  0.00    +0.005 A 
ATOM      5  C   UNL     1      -3.648  -1.927   0.026  0.00  0.00    -0.062 A 
ATOM      6  C   UNL     1      -2.479  -2.665   0.017  0.00  0.00    +0.038 A 
ATOM      7  C   UNL     1      -1.255  -2.023   0.003  0.00  0.00    +0.168 A 
BRANCH   7   8
ATOM      8  N   UNL     1      -0.004  -2.814  -0.013  0.00  0.00    +0.060 N 
ATOM      9  O   UNL     1      -0.053  -4.022  -0.019  0.00  0.00    -0.126 OA
ATOM     10  O   UNL     1       1.066  -2.252  -0.019  0.00  0.00    -0.126 OA
ENDBRANCH   7   8
BRANCH   2  12
ATOM     11  C   UNL     1      -0.017   1.425   0.010  0.00  0.00    +0.277 C 
ATOM     12  O   UNL     1       0.002  -0.004   0.002  0.00  0.00    -0.493 OA
ENDBRANCH   2  12
ENDBRANCH   1   5
BRANCH   1  13
ATOM     13  N   UNL     1      -5.424  -2.855  -1.348  0.00  0.00    +0.384 N 
ATOM     14  H   UNL     1      -5.514  -1.969  -1.822  0.00  0.00    -0.085 HD
ATOM     15  H   UNL     1      -4.746  -3.427  -1.829  0.00  0.00    -0.085 HD
BRANCH  13  16
ATOM     16  C   UNL     1      -6.724  -3.540  -1.340  0.00  0.00    -0.068 C 
ATOM     17  C   UNL     1      -6.562  -4.919  -0.707  0.00  0.00    +0.007 C 
ATOM     18  C   UNL     1      -7.937  -5.538  -0.443  0.00  0.00    +0.164 C 
ATOM     19  S   UNL     1      -8.786  -5.782  -2.030  0.00  0.00    -0.031 S 
ATOM     20  O   UNL     1     -10.149  -6.088  -1.771  0.00  0.00    -0.174 OA
ATOM     21  O   UNL     1      -8.014  -6.673  -2.824  0.00  0.00    -0.174 OA
ATOM     22  C   UNL     1      -8.697  -4.122  -2.766  0.00  0.00    +0.164 C 
ATOM     23  C   UNL     1      -7.237  -3.661  -2.772  0.00  0.00    +0.007 C 
ENDBRANCH  13  16
ENDBRANCH   1  13
TORSDOF 5
