REMARK  Name = ZINC11235785
REMARK  3 active torsions:
REMARK  status: ('A' for Active; 'I' for Inactive)
REMARK    1  A    between atoms: C_2  and  N_12
REMARK    2  A    between atoms: C_13  and  C_15
REMARK    3  A    between atoms: C_15  and  N_16
REMARK                            x       y       z     vdW  Elec       q    Type
REMARK                         _______ _______ _______ _____ _____    ______ ____
ROOT
ATOM      1  N   UNL     1      -1.156  -0.694   0.009  0.00  0.00    -0.283 N 
ATOM      2  C   UNL     1       0.002  -0.004   0.008  0.00  0.00    +0.235 C 
ATOM      3  O   UNL     1       1.061  -0.597  -0.010  0.00  0.00    -0.274 OA
ATOM      4  H   UNL     1      -2.000  -0.223   0.089  0.00  0.00    +0.155 HD
ENDROOT
BRANCH   1   6
ATOM      5  C   UNL     1      -0.112  -2.822   0.473  0.00  0.00    +0.073 A 
ATOM      6  C   UNL     1      -1.140  -2.090  -0.104  0.00  0.00    +0.051 A 
ATOM      7  C   UNL     1      -2.156  -2.743  -0.790  0.00  0.00    +0.043 A 
ATOM      8  C   UNL     1      -2.139  -4.121  -0.905  0.00  0.00    +0.066 A 
ATOM      9  C   UNL     1      -1.114  -4.855  -0.327  0.00  0.00    +0.163 A 
ATOM     10  C   UNL     1      -0.098  -4.204   0.363  0.00  0.00    +0.164 A 
ATOM     11  O   UNL     1       0.919  -4.908   0.932  0.00  0.00    -0.485 OA
ATOM     12  C   UNL     1       0.706  -6.311   1.120  0.00  0.00    +0.270 C 
ATOM     13  C   UNL     1       0.117  -6.885  -0.176  0.00  0.00    +0.270 C 
ATOM     14  O   UNL     1      -1.119  -6.212  -0.443  0.00  0.00    -0.485 OA
ATOM     15 BR   UNL     1      -3.560  -1.747  -1.572  0.00  0.00    -0.048 Br
ENDBRANCH   1   6
BRANCH   2  16
ATOM     16  C   UNL     1      -0.017   1.502   0.027  0.00  0.00    +0.214 C 
BRANCH  16  17
ATOM     17  N   UNL     1       1.357   2.009   0.021  0.00  0.00    -0.215 N 
ATOM     18  C   UNL     1       2.058   2.285  -1.097  0.00  0.00    +0.247 C 
ATOM     19  O   UNL     1       1.686   2.167  -2.245  0.00  0.00    -0.273 OA
ATOM     20  C   UNL     1       3.406   2.774  -0.619  0.00  0.00    +0.113 C 
ATOM     21  C   UNL     1       3.646   4.207  -1.080  0.00  0.00    +0.035 C 
ATOM     22  C   UNL     1       5.002   4.693  -0.562  0.00  0.00    +0.003 C 
ATOM     23  C   UNL     1       6.107   3.777  -1.092  0.00  0.00    +0.000 C 
ATOM     24  C   UNL     1       5.866   2.348  -0.600  0.00  0.00    +0.003 C 
ATOM     25  C   UNL     1       4.514   1.853  -1.119  0.00  0.00    +0.035 C 
ATOM     26  N   UNL     1       3.308   2.714   0.845  0.00  0.00    -0.285 N 
ATOM     27  C   UNL     1       2.071   2.260   1.125  0.00  0.00    +0.310 C 
ATOM     28  O   UNL     1       1.652   2.094   2.254  0.00  0.00    -0.252 OA
ATOM     29  H   UNL     1       3.996   2.957   1.484  0.00  0.00    +0.151 HD
ENDBRANCH  16  17
ENDBRANCH   2  16
TORSDOF 3
