REMARK  Name = ZINC02354002
REMARK  15 active torsions:
REMARK  status: ('A' for Active; 'I' for Inactive)
REMARK    1  A    between atoms: C_1  and  C_2
REMARK    2  A    between atoms: C_4  and  C_36
REMARK    3  A    between atoms: C_5  and  O_35
REMARK    4  A    between atoms: C_6  and  C_8
REMARK    5  A    between atoms: N_16  and  C_28
REMARK    6  A    between atoms: C_17  and  C_19
REMARK    7  A    between atoms: C_22  and  O_27
REMARK    8  A    between atoms: C_23  and  O_25
REMARK    9  A    between atoms: O_25  and  C_26
REMARK   10  A    between atoms: C_28  and  C_29
REMARK   11  A    between atoms: C_29  and  C_30
REMARK   12  A    between atoms: C_30  and  O_31
REMARK   13  A    between atoms: O_31  and  C_32
REMARK   14  A    between atoms: C_32  and  C_33
REMARK   15  A    between atoms: C_32  and  C_34
REMARK                            x       y       z     vdW  Elec       q    Type
REMARK                         _______ _______ _______ _____ _____    ______ ____
ROOT
ATOM      1  C   UNL     1      -0.144  -2.494   2.269  0.00  0.00    +0.102 A 
ATOM      2  C   UNL     1       0.078  -2.145   3.606  0.00  0.00    +0.035 A 
ATOM      3  C   UNL     1       0.270  -3.336   4.279  0.00  0.00    +0.126 A 
ATOM      4  N   UNL     1       0.158  -4.324   3.343  0.00  0.00    -0.272 N 
ATOM      5  H   UNL     1       0.245  -5.273   3.522  0.00  0.00    +0.189 HD
ATOM      6  N   UNL     1      -0.087  -3.809   2.191  0.00  0.00    -0.173 NA
ATOM      7  C   UNL     1       0.509  -3.037   5.696  0.00  0.00    +0.265 C 
ATOM      8  O   UNL     1       0.714  -3.872   6.556  0.00  0.00    -0.268 OA
ATOM      9  N   UNL     1       0.470  -1.709   5.908  0.00  0.00    -0.285 N 
ATOM     10  C   UNL     1       0.199  -1.046   4.626  0.00  0.00    +0.141 C 
ENDROOT
BRANCH   1  16
ATOM     11  C   UNL     1      -0.979   2.143   0.619  0.00  0.00    +0.044 C 
ATOM     12  C   UNL     1      -0.805   0.670   0.349  0.00  0.00    -0.049 A 
ATOM     13  C   UNL     1      -0.888   0.193  -0.947  0.00  0.00    +0.010 A 
ATOM     14  C   UNL     1      -0.729  -1.156  -1.204  0.00  0.00    -0.008 A 
ATOM     15  C   UNL     1      -0.487  -2.037  -0.163  0.00  0.00    +0.129 A 
ATOM     16  C   UNL     1      -0.403  -1.558   1.147  0.00  0.00    +0.044 A 
ATOM     17  C   UNL     1      -0.558  -0.196   1.395  0.00  0.00    +0.017 A 
ATOM     18  C   UNL     1      -0.821  -1.668  -2.618  0.00  0.00    +0.047 C 
BRANCH  15  19
ATOM     19  O   UNL     1      -0.332  -3.363  -0.414  0.00  0.00    -0.506 OA
ATOM     20  H   UNL     1       0.582  -3.627  -0.587  0.00  0.00    +0.292 HD
ENDBRANCH  15  19
ENDBRANCH   1  16
BRANCH  10  21
ATOM     21  C   UNL     1       1.338  -0.127   4.266  0.00  0.00    -0.019 A 
ATOM     22  C   UNL     1       1.077   1.169   3.863  0.00  0.00    +0.009 A 
ATOM     23  C   UNL     1       2.119   2.016   3.532  0.00  0.00    +0.049 A 
ATOM     24  C   UNL     1       3.427   1.566   3.604  0.00  0.00    +0.158 A 
ATOM     25  C   UNL     1       3.689   0.261   4.011  0.00  0.00    +0.162 A 
ATOM     26  C   UNL     1       2.641  -0.581   4.346  0.00  0.00    +0.055 A 
BRANCH  25  27
ATOM     27  O   UNL     1       4.972  -0.185   4.084  0.00  0.00    -0.491 OA
ATOM     28  C   UNL     1       5.170  -1.514   4.570  0.00  0.00    +0.277 C 
ENDBRANCH  25  27
BRANCH  24  29
ATOM     29  O   UNL     1       4.453   2.398   3.279  0.00  0.00    -0.503 OA
ATOM     30  H   UNL     1       4.796   2.909   4.024  0.00  0.00    +0.292 HD
ENDBRANCH  24  29
ENDBRANCH  10  21
BRANCH   9  31
ATOM     31  C   UNL     1       0.665  -1.040   7.196  0.00  0.00    +0.111 C 
BRANCH  31  32
ATOM     32  C   UNL     1       2.150  -0.723   7.387  0.00  0.00    +0.047 C 
BRANCH  32  33
ATOM     33  C   UNL     1       2.354  -0.024   8.732  0.00  0.00    +0.161 C 
BRANCH  33  34
ATOM     34  O   UNL     1       3.740   0.271   8.911  0.00  0.00    -0.377 OA
BRANCH  34  35
ATOM     35  C   UNL     1       4.041   0.929  10.143  0.00  0.00    +0.112 C 
ATOM     36  C   UNL     1       5.454   0.550  10.592  0.00  0.00    +0.037 C 
ATOM     37  C   UNL     1       3.957   2.444   9.947  0.00  0.00    +0.037 C 
ENDBRANCH  34  35
ENDBRANCH  33  34
ENDBRANCH  32  33
ENDBRANCH  31  32
ENDBRANCH   9  31
TORSDOF 10
