REMARK  Name = ZINC44592827
REMARK  3 active torsions:
REMARK  status: ('A' for Active; 'I' for Inactive)
REMARK    1  A    between atoms: C_1  and  C_2
REMARK    2  A    between atoms: C_2  and  C_3
REMARK    3  A    between atoms: C_3  and  N_4
REMARK                            x       y       z     vdW  Elec       q    Type
REMARK                         _______ _______ _______ _____ _____    ______ ____
ROOT
ATOM      1  N   UNL     1       0.738  -1.962  -1.265  0.00  0.00    -0.224 N 
ATOM      2  C   UNL     1       1.719  -2.711  -0.715  0.00  0.00    +0.248 C 
ATOM      3  O   UNL     1       2.681  -2.317  -0.092  0.00  0.00    -0.273 OA
ATOM      4  C   UNL     1       1.363  -4.143  -1.039  0.00  0.00    +0.195 C 
ATOM      5  C   UNL     1       1.233  -4.964   0.240  0.00  0.00    -0.008 A 
ATOM      6  C   UNL     1       2.238  -5.049   1.201  0.00  0.00    +0.014 A 
ATOM      7  C   UNL     1       2.054  -5.808   2.305  0.00  0.00    +0.046 A 
ATOM      8  S   UNL     1       0.412  -6.455   2.038  0.00  0.00    -0.101 S 
ATOM      9  C   UNL     1       0.087  -5.660   0.482  0.00  0.00    -0.003 A 
ATOM     10  C   UNL     1      -1.162  -5.742  -0.335  0.00  0.00    +0.062 C 
ATOM     11  C   UNL     1      -0.907  -5.173  -1.742  0.00  0.00    +0.115 C 
ATOM     12  N   UNL     1      -0.001  -4.026  -1.600  0.00  0.00    -0.269 N 
ATOM     13  C   UNL     1      -0.219  -2.727  -1.815  0.00  0.00    +0.312 C 
ATOM     14  O   UNL     1      -1.167  -2.289  -2.436  0.00  0.00    -0.252 OA
ENDROOT
BRANCH   1  15
ATOM     15  C   UNL     1       0.718  -0.497  -1.257  0.00  0.00    +0.118 C 
BRANCH  15  17
ATOM     16  C   UNL     1      -0.019   1.526   0.010  0.00  0.00    +0.005 C 
ATOM     17  C   UNL     1       0.002  -0.004   0.002  0.00  0.00    +0.016 C 
ENDBRANCH  15  17
ENDBRANCH   1  15
TORSDOF 2
