REMARK  Name = ZINC14964585
REMARK  5 active torsions:
REMARK  status: ('A' for Active; 'I' for Inactive)
REMARK    1  A    between atoms: C_3  and  C_8
REMARK    2  A    between atoms: C_8  and  N_9
REMARK    3  A    between atoms: C_15  and  C_17
REMARK    4  A    between atoms: C_17  and  C_18
REMARK    5  A    between atoms: N_20  and  C_21
REMARK                            x       y       z     vdW  Elec       q    Type
REMARK                         _______ _______ _______ _____ _____    ______ ____
ROOT
ATOM      1  N   UNL     1       5.678   4.213   0.658  0.00  0.00    -0.285 NA
ATOM      2  C   UNL     1       4.602   5.126   1.076  0.00  0.00    +0.104 C 
ATOM      3  C   UNL     1       3.283   4.639   0.473  0.00  0.00    +0.119 C 
ATOM      4  N   UNL     1       3.100   3.217   0.751  0.00  0.00    -0.313 N 
ATOM      5  C   UNL     1       4.105   2.412   1.113  0.00  0.00    +0.231 C 
ATOM      6  O   UNL     1       3.871   1.236   1.295  0.00  0.00    -0.274 OA
ATOM      7  C   UNL     1       5.512   2.904   1.304  0.00  0.00    +0.152 C 
ATOM      8  H   UNL     1       2.211   2.839   0.669  0.00  0.00    +0.149 HD
ENDROOT
BRANCH   1   9
ATOM      9  C   UNL     1       6.998   4.784   0.957  0.00  0.00    +0.120 C 
BRANCH   9  12
ATOM     10  C   UNL     1       7.188   8.225  -0.584  0.00  0.00    +0.003 A 
ATOM     11  C   UNL     1       6.918   7.198   0.300  0.00  0.00    +0.005 A 
ATOM     12  C   UNL     1       7.292   5.903  -0.008  0.00  0.00    -0.031 A 
ATOM     13  C   UNL     1       7.935   5.635  -1.202  0.00  0.00    +0.043 A 
ATOM     14  C   UNL     1       8.205   6.663  -2.088  0.00  0.00    +0.124 A 
ATOM     15  C   UNL     1       7.830   7.959  -1.778  0.00  0.00    +0.038 A 
ATOM     16  F   UNL     1       8.834   6.402  -3.255  0.00  0.00    -0.205 F 
ENDBRANCH   9  12
ENDBRANCH   1   9
BRANCH   7  17
ATOM     17  C   UNL     1       6.488   1.903   0.683  0.00  0.00    +0.124 C 
BRANCH  17  18
ATOM     18  C   UNL     1       6.242   1.816  -0.801  0.00  0.00    +0.215 C 
ATOM     19  O   UNL     1       5.437   2.555  -1.327  0.00  0.00    -0.276 OA
ATOM     20  N   UNL     1       6.916   0.916  -1.544  0.00  0.00    -0.312 N 
ATOM     21  H   UNL     1       7.560   0.325  -1.124  0.00  0.00    +0.149 HD
BRANCH  20  22
ATOM     22  C   UNL     1       6.676   0.831  -2.987  0.00  0.00    +0.073 C 
ATOM     23  C   UNL     1       5.416  -0.023  -3.234  0.00  0.00    +0.022 C 
ATOM     24  C   UNL     1       4.882   0.300  -4.604  0.00  0.00    +0.002 C 
ATOM     25  C   UNL     1       5.401  -0.669  -5.683  0.00  0.00    +0.000 C 
ATOM     26  C   UNL     1       6.897  -0.999  -5.519  0.00  0.00    +0.000 C 
ATOM     27  C   UNL     1       7.718   0.211  -5.164  0.00  0.00    +0.002 C 
ATOM     28  C   UNL     1       7.858   0.275  -3.629  0.00  0.00    +0.022 C 
ENDBRANCH  20  22
ENDBRANCH  17  18
ENDBRANCH   7  17
TORSDOF 5
