REMARK  Name = ZINC63362158
REMARK  8 active torsions:
REMARK  status: ('A' for Active; 'I' for Inactive)
REMARK    1  A    between atoms: C_1  and  C_2
REMARK    2  A    between atoms: C_2  and  C_4
REMARK    3  A    between atoms: C_2  and  N_11
REMARK    4  A    between atoms: N_6  and  C_7
REMARK    5  A    between atoms: C_7  and  C_8
REMARK    6  A    between atoms: C_8  and  O_9
REMARK    7  A    between atoms: O_9  and  C_10
REMARK    8  A    between atoms: C_14  and  C_30
REMARK                            x       y       z     vdW  Elec       q    Type
REMARK                         _______ _______ _______ _____ _____    ______ ____
ROOT
ATOM      1  N   UNL     1      -1.372  -0.511   0.012  0.00  0.00    -0.212 N 
ATOM      2  C   UNL     1      -1.897  -1.296  -0.951  0.00  0.00    +0.249 C 
ATOM      3  O   UNL     1      -1.351  -1.676  -1.964  0.00  0.00    -0.273 OA
ATOM      4  C   UNL     1      -3.310  -1.604  -0.505  0.00  0.00    +0.136 C 
ATOM      5  C   UNL     1      -4.316  -1.053  -1.522  0.00  0.00    +0.139 C 
ATOM      6  C   UNL     1      -5.639  -0.901  -0.782  0.00  0.00    -0.034 C 
ATOM      7  C   UNL     1      -6.528  -1.627  -1.454  0.00  0.00    -0.001 A 
ATOM      8  C   UNL     1      -7.974  -1.824  -1.261  0.00  0.00    +0.010 A 
ATOM      9  C   UNL     1      -8.587  -2.658  -2.142  0.00  0.00    +0.001 A 
ATOM     10  C   UNL     1      -7.915  -3.308  -3.182  0.00  0.00    +0.002 A 
ATOM     11  C   UNL     1      -6.588  -3.180  -3.435  0.00  0.00    +0.026 A 
ATOM     12  C   UNL     1      -5.835  -2.326  -2.578  0.00  0.00    +0.043 A 
ATOM     13  N   UNL     1      -4.562  -2.011  -2.603  0.00  0.00    -0.375 N 
ATOM     14  C   UNL     1      -5.788  -0.113   0.496  0.00  0.00    +0.052 C 
ATOM     15  C   UNL     1      -4.709  -0.623   1.473  0.00  0.00    +0.115 C 
ATOM     16  N   UNL     1      -3.459  -0.796   0.727  0.00  0.00    -0.269 N 
ATOM     17  C   UNL     1      -2.261  -0.257   0.982  0.00  0.00    +0.313 C 
ATOM     18  O   UNL     1      -2.008   0.391   1.979  0.00  0.00    -0.252 OA
ATOM     19  C   UNL     1      -3.513  -3.097  -0.240  0.00  0.00    +0.044 C 
ATOM     20  H   UNL     1      -3.896  -2.350  -3.222  0.00  0.00    +0.160 HD
ENDROOT
BRANCH   1  22
ATOM     21  C   UNL     1      -0.019   1.526   0.010  0.00  0.00    +0.038 C 
ATOM     22  C   UNL     1       0.002  -0.004   0.002  0.00  0.00    +0.168 C 
BRANCH  22  23
ATOM     23  C   UNL     1       0.731  -0.503   1.223  0.00  0.00    +0.234 C 
ATOM     24  O   UNL     1       0.159  -1.213   2.023  0.00  0.00    -0.274 OA
ATOM     25  N   UNL     1       2.019  -0.161   1.426  0.00  0.00    -0.312 N 
ATOM     26  H   UNL     1       2.476   0.406   0.786  0.00  0.00    +0.149 HD
BRANCH  25  27
ATOM     27  C   UNL     1       2.727  -0.647   2.613  0.00  0.00    +0.132 C 
BRANCH  27  28
ATOM     28  C   UNL     1       4.163  -0.117   2.602  0.00  0.00    +0.178 C 
BRANCH  28  29
ATOM     29  O   UNL     1       4.146   1.306   2.727  0.00  0.00    -0.381 OA
ATOM     30  C   UNL     1       5.444   1.905   2.728  0.00  0.00    +0.194 C 
ENDBRANCH  28  29
ENDBRANCH  27  28
ENDBRANCH  25  27
ENDBRANCH  22  23
ENDBRANCH   1  22
TORSDOF 5
