REMARK  Name = ZINC03137443
REMARK  10 active torsions:
REMARK  status: ('A' for Active; 'I' for Inactive)
REMARK    1  A    between atoms: C_1  and  N_35
REMARK    2  A    between atoms: C_2  and  N_35
REMARK    3  A    between atoms: C_3  and  C_5
REMARK    4  A    between atoms: C_3  and  N_9
REMARK    5  A    between atoms: C_3  and  N_35
REMARK    6  A    between atoms: N_12  and  C_13
REMARK    7  A    between atoms: C_13  and  C_15
REMARK    8  A    between atoms: C_13  and  N_37
REMARK    9  A    between atoms: C_19  and  N_37
REMARK   10  A    between atoms: C_20  and  N_37
REMARK                            x       y       z     vdW  Elec       q    Type
REMARK                         _______ _______ _______ _____ _____    ______ ____
ROOT
ATOM      1  N   UNL     1       1.015   0.666   0.060  0.00  0.00    -0.309 N 
ATOM      2  C   UNL     1       1.905   0.337   1.017  0.00  0.00    +0.297 C 
ATOM      3  O   UNL     1       1.912  -0.787   1.481  0.00  0.00    -0.253 OA
ATOM      4  N   UNL     1       2.787   1.255   1.461  0.00  0.00    -0.309 N 
ATOM      5  H   UNL     1       1.009   1.562  -0.310  0.00  0.00    +0.148 HD
ATOM      6  H   UNL     1       2.782   2.151   1.091  0.00  0.00    +0.148 HD
ENDROOT
BRANCH   1   7
ATOM      7  C   UNL     1       0.056  -0.332  -0.422  0.00  0.00    +0.071 C 
BRANCH   7  10
ATOM      8  C   UNL     1      -2.223  -1.115  -0.186  0.00  0.00    -0.094 C 
ATOM      9  C   UNL     1      -1.201   0.187   1.582  0.00  0.00    -0.094 C 
ATOM     10  N   UNL     1      -1.282  -0.016   0.120  0.00  0.00    +0.391 N 
ATOM     11  H   UNL     1      -1.625   0.847  -0.318  0.00  0.00    -0.080 HD
ENDBRANCH   7  10
BRANCH   7  12
ATOM     12  C   UNL     1      -0.006  -0.282  -1.950  0.00  0.00    +0.194 C 
ATOM     13 CL   UNL     1       1.658  -0.442  -2.624  0.00  0.00    -0.084 Cl
ATOM     14 CL   UNL     1      -1.031  -1.637  -2.553  0.00  0.00    -0.084 Cl
ATOM     15 CL   UNL     1      -0.719   1.289  -2.472  0.00  0.00    -0.084 Cl
ENDBRANCH   7  12
ENDBRANCH   1   7
BRANCH   4  16
ATOM     16  C   UNL     1       3.755   0.898   2.501  0.00  0.00    +0.071 C 
BRANCH  16  17
ATOM     17  C   UNL     1       3.810   2.010   3.550  0.00  0.00    +0.194 C 
ATOM     18 CL   UNL     1       2.160   2.283   4.224  0.00  0.00    -0.084 Cl
ATOM     19 CL   UNL     1       4.929   1.529   4.879  0.00  0.00    -0.084 Cl
ATOM     20 CL   UNL     1       4.405   3.530   2.783  0.00  0.00    -0.084 Cl
ENDBRANCH  16  17
BRANCH  16  23
ATOM     21  C   UNL     1       6.046   0.212   2.880  0.00  0.00    -0.094 C 
ATOM     22  C   UNL     1       5.017  -0.144   0.717  0.00  0.00    -0.094 C 
ATOM     23  N   UNL     1       5.092   0.754   1.889  0.00  0.00    +0.391 N 
ATOM     24  H   UNL     1       5.419   1.677   1.581  0.00  0.00    -0.080 HD
ENDBRANCH  16  23
ENDBRANCH   4  16
TORSDOF 6
