REMARK  Name = ZINC39669385
REMARK  7 active torsions:
REMARK  status: ('A' for Active; 'I' for Inactive)
REMARK    1  A    between atoms: C_1  and  C_2
REMARK    2  A    between atoms: C_2  and  C_4
REMARK    3  A    between atoms: C_2  and  O_34
REMARK    4  A    between atoms: C_8  and  C_17
REMARK    5  A    between atoms: N_19  and  C_20
REMARK    6  A    between atoms: C_20  and  C_21
REMARK    7  A    between atoms: O_34  and  C_35
REMARK                            x       y       z     vdW  Elec       q    Type
REMARK                         _______ _______ _______ _____ _____    ______ ____
ROOT
ATOM      1  C   UNL     1       0.741  -0.380   1.129  0.00  0.00    +0.256 C 
ATOM      2  O   UNL     1       1.863  -0.794   0.925  0.00  0.00    -0.272 OA
ATOM      3  N   UNL     1       0.348  -0.087   2.384  0.00  0.00    -0.297 N 
ATOM      4  C   UNL     1      -0.973   0.419   2.827  0.00  0.00    +0.121 C 
ATOM      5  C   UNL     1      -1.251  -0.325   4.152  0.00  0.00    +0.100 C 
ATOM      6  C   UNL     1       0.138  -0.725   4.677  0.00  0.00    -0.004 C 
ATOM      7  C   UNL     1       1.137  -0.203   3.634  0.00  0.00    +0.115 C 
ATOM      8  C   UNL     1       0.399  -0.074   6.032  0.00  0.00    -0.010 C 
ATOM      9  C   UNL     1       1.761  -0.533   6.559  0.00  0.00    -0.082 C 
ATOM     10  N   UNL     1       1.772  -1.995   6.687  0.00  0.00    +0.379 N 
ATOM     11  C   UNL     1       1.613  -2.614   5.365  0.00  0.00    -0.082 C 
ATOM     12  C   UNL     1       0.244  -2.243   4.787  0.00  0.00    -0.010 C 
ATOM     13  H   UNL     1       2.647  -2.290   7.092  0.00  0.00    -0.086 HD
ATOM     14  H   UNL     1       1.013  -2.285   7.286  0.00  0.00    -0.086 HD
ENDROOT
BRANCH   5  15
ATOM     15  C   UNL     1      -1.942   0.588   5.132  0.00  0.00    +0.218 C 
ATOM     16  O   UNL     1      -1.724   1.781   5.106  0.00  0.00    -0.275 OA
ATOM     17  N   UNL     1      -2.801   0.079   6.037  0.00  0.00    -0.315 N 
ATOM     18  H   UNL     1      -2.976  -0.875   6.057  0.00  0.00    +0.149 HD
BRANCH  17  19
ATOM     19  C   UNL     1      -3.473   0.967   6.989  0.00  0.00    +0.109 C 
BRANCH  19  20
ATOM     20  C   UNL     1      -4.387   0.142   7.897  0.00  0.00    +0.024 C 
ATOM     21  C   UNL     1      -5.181   1.080   8.810  0.00  0.00    +0.008 C 
ATOM     22  C   UNL     1      -6.120   0.258   9.696  0.00  0.00    +0.019 C 
ATOM     23  C   UNL     1      -5.292  -0.684  10.575  0.00  0.00    +0.108 C 
ATOM     24  N   UNL     1      -4.418  -1.490   9.711  0.00  0.00    -0.299 N 
ATOM     25  C   UNL     1      -3.539  -0.802   8.755  0.00  0.00    +0.113 C 
ATOM     26  C   UNL     1      -4.423  -2.872   9.795  0.00  0.00    +0.218 A 
ATOM     27  N   UNL     1      -3.620  -3.571   9.007  0.00  0.00    -0.223 NA
ATOM     28  C   UNL     1      -3.599  -4.892   9.062  0.00  0.00    +0.116 A 
ATOM     29  C   UNL     1      -4.431  -5.544   9.960  0.00  0.00    +0.039 A 
ATOM     30  C   UNL     1      -5.258  -4.782  10.770  0.00  0.00    +0.116 A 
ATOM     31  N   UNL     1      -5.226  -3.464  10.667  0.00  0.00    -0.223 NA
ENDBRANCH  19  20
ENDBRANCH  17  19
ENDBRANCH   5  15
BRANCH   1  33
ATOM     32  C   UNL     1      -0.540   1.292  -0.180  0.00  0.00    +0.062 C 
ATOM     33  C   UNL     1      -0.213  -0.194  -0.023  0.00  0.00    +0.256 C 
BRANCH  33  34
ATOM     34  O   UNL     1       0.389  -0.679  -1.224  0.00  0.00    -0.480 OA
BRANCH  34  35
ATOM     35  C   UNL     1      -0.448  -1.077  -2.218  0.00  0.00    +0.122 A 
ATOM     36  C   UNL     1       0.065  -1.664  -3.365  0.00  0.00    +0.045 A 
ATOM     37  C   UNL     1      -0.789  -2.069  -4.374  0.00  0.00    +0.004 A 
ATOM     38  C   UNL     1      -2.153  -1.889  -4.240  0.00  0.00    +0.000 A 
ATOM     39  C   UNL     1      -2.667  -1.304  -3.097  0.00  0.00    +0.004 A 
ATOM     40  C   UNL     1      -1.818  -0.903  -2.083  0.00  0.00    +0.045 A 
ENDBRANCH  34  35
ENDBRANCH  33  34
ENDBRANCH   1  33
TORSDOF 6
