REMARK  Name = ZINC61088846
REMARK  7 active torsions:
REMARK  status: ('A' for Active; 'I' for Inactive)
REMARK    1  A    between atoms: C_1  and  C_2
REMARK    2  A    between atoms: C_4  and  C_8
REMARK    3  A    between atoms: C_5  and  C_7
REMARK    4  A    between atoms: C_8  and  C_10
REMARK    5  A    between atoms: C_8  and  N_11
REMARK    6  A    between atoms: C_12  and  C_14
REMARK    7  A    between atoms: C_16  and  N_22
REMARK                            x       y       z     vdW  Elec       q    Type
REMARK                         _______ _______ _______ _____ _____    ______ ____
ROOT
ATOM      1  N   UNL     1      -3.103  -2.609   0.585  0.00  0.00    -0.305 N 
ATOM      2  C   UNL     1      -4.000  -3.372   1.240  0.00  0.00    +0.246 C 
ATOM      3  O   UNL     1      -3.822  -4.571   1.339  0.00  0.00    -0.270 OA
ATOM      4  H   UNL     1      -3.245  -1.653   0.506  0.00  0.00    +0.150 HD
ENDROOT
BRANCH   2   5
ATOM      5  C   UNL     1      -5.200  -2.752   1.838  0.00  0.00    +0.053 A 
ATOM      6  C   UNL     1      -5.410  -1.376   1.720  0.00  0.00    +0.039 A 
ATOM      7  C   UNL     1      -6.536  -0.802   2.282  0.00  0.00    +0.061 A 
ATOM      8  C   UNL     1      -7.457  -1.595   2.963  0.00  0.00    +0.145 A 
ATOM      9  C   UNL     1      -7.250  -2.958   3.080  0.00  0.00    +0.056 A 
ATOM     10  C   UNL     1      -6.131  -3.541   2.517  0.00  0.00    +0.033 A 
ATOM     11 BR   UNL     1      -5.857  -5.405   2.673  0.00  0.00    -0.049 Br
ATOM     12  F   UNL     1      -8.556  -1.032   3.510  0.00  0.00    -0.204 F 
BRANCH   7  13
ATOM     13  N   UNL     1      -6.750   0.576   2.167  0.00  0.00    -0.356 N 
ATOM     14  H   UNL     1      -6.109   1.129   1.694  0.00  0.00    +0.142 HD
ATOM     15  H   UNL     1      -7.540   0.979   2.561  0.00  0.00    +0.142 HD
ENDBRANCH   7  13
ENDBRANCH   2   5
BRANCH   1  16
ATOM     16  C   UNL     1      -1.912  -3.224  -0.008  0.00  0.00    +0.101 C 
ATOM     17  C   UNL     1      -2.240  -3.712  -1.420  0.00  0.00    +0.033 C 
BRANCH  16  21
ATOM     18  C   UNL     1      -0.117   1.532  -0.303  0.00  0.00    +0.051 C 
ATOM     19  C   UNL     1      -0.066   0.029  -0.210  0.00  0.00    -0.013 A 
ATOM     20  C   UNL     1      -1.089  -0.859  -0.154  0.00  0.00    +0.016 A 
ATOM     21  C   UNL     1      -0.801  -2.208  -0.072  0.00  0.00    -0.017 A 
ATOM     22  C   UNL     1       0.495  -2.604  -0.049  0.00  0.00    -0.008 A 
ATOM     23  S   UNL     1       1.359  -1.046  -0.153  0.00  0.00    -0.098 S 
ATOM     24  C   UNL     1       1.060  -3.999   0.036  0.00  0.00    +0.052 C 
ENDBRANCH  16  21
ENDBRANCH   1  16
TORSDOF 4
