REMARK  Name = ZINC33281152
REMARK  12 active torsions:
REMARK  status: ('A' for Active; 'I' for Inactive)
REMARK    1  A    between atoms: C_1  and  C_2
REMARK    2  A    between atoms: C_2  and  C_3
REMARK    3  A    between atoms: C_5  and  C_8
REMARK    4  A    between atoms: C_8  and  N_9
REMARK    5  A    between atoms: C_15  and  C_38
REMARK    6  A    between atoms: N_19  and  C_23
REMARK    7  A    between atoms: C_23  and  C_24
REMARK    8  A    between atoms: N_26  and  C_27
REMARK    9  A    between atoms: C_27  and  C_29
REMARK   10  A    between atoms: C_27  and  C_30
REMARK   11  A    between atoms: C_30  and  C_31
REMARK   12  A    between atoms: C_31  and  C_32
REMARK                            x       y       z     vdW  Elec       q    Type
REMARK                         _______ _______ _______ _____ _____    ______ ____
ROOT
ATOM      1  N   UNL     1      -5.906   0.523  -0.735  0.00  0.00    -0.288 N 
ATOM      2  C   UNL     1      -5.724   1.292  -1.839  0.00  0.00    +0.203 A 
ATOM      3  N   UNL     1      -5.919   0.828  -3.041  0.00  0.00    -0.235 NA
ATOM      4  C   UNL     1      -6.323  -0.439  -3.242  0.00  0.00    +0.103 A 
ATOM      5  C   UNL     1      -6.626  -1.231  -4.441  0.00  0.00    +0.026 A 
ATOM      6  C   UNL     1      -6.604  -0.954  -5.809  0.00  0.00    +0.015 A 
ATOM      7  C   UNL     1      -6.949  -1.925  -6.706  0.00  0.00    -0.050 A 
ATOM      8  C   UNL     1      -7.322  -3.188  -6.267  0.00  0.00    +0.005 A 
ATOM      9  C   UNL     1      -7.350  -3.483  -4.923  0.00  0.00    +0.027 A 
ATOM     10  C   UNL     1      -7.002  -2.508  -3.991  0.00  0.00    +0.052 A 
ATOM     11  N   UNL     1      -6.939  -2.515  -2.614  0.00  0.00    -0.325 N 
ATOM     12  C   UNL     1      -6.532  -1.279  -2.151  0.00  0.00    +0.134 A 
ATOM     13  C   UNL     1      -6.310  -0.760  -0.854  0.00  0.00    +0.279 A 
ATOM     14  O   UNL     1      -6.479  -1.455   0.134  0.00  0.00    -0.265 OA
ATOM     15  C   UNL     1      -6.924  -1.623  -8.182  0.00  0.00    +0.044 C 
ENDROOT
BRANCH   1  16
ATOM     16  C   UNL     1      -5.667   1.091   0.594  0.00  0.00    +0.225 C 
BRANCH  16  19
ATOM     17  C   UNL     1      -2.143   1.058   1.278  0.00  0.00    +0.172 A 
ATOM     18  N   UNL     1      -3.220   1.668   0.754  0.00  0.00    -0.195 NA
ATOM     19  C   UNL     1      -4.230   0.864   0.987  0.00  0.00    +0.247 A 
ATOM     20  O   UNL     1      -3.741  -0.192   1.643  0.00  0.00    -0.336 OA
ATOM     21  N   UNL     1      -2.545  -0.062   1.800  0.00  0.00    -0.061 NA
BRANCH  17  23
ATOM     22  C   UNL     1      -0.013   1.086   0.008  0.00  0.00    +0.012 C 
ATOM     23  C   UNL     1      -0.729   1.579   1.267  0.00  0.00    +0.076 C 
ENDBRANCH  17  23
ENDBRANCH  16  19
ENDBRANCH   1  16
BRANCH  11  24
ATOM     24  C   UNL     1      -7.257  -3.666  -1.765  0.00  0.00    +0.218 C 
BRANCH  24  25
ATOM     25  C   UNL     1      -8.721  -3.639  -1.409  0.00  0.00    +0.233 C 
ATOM     26  O   UNL     1      -9.429  -2.747  -1.824  0.00  0.00    -0.274 OA
ATOM     27  N   UNL     1      -9.243  -4.607  -0.630  0.00  0.00    -0.311 N 
ATOM     28  H   UNL     1      -8.600  -5.417  -0.254  0.00  0.00    +0.149 HD
BRANCH  27  29
ATOM     29  C   UNL     1     -10.666  -4.581  -0.285  0.00  0.00    +0.070 C 
ATOM     30  C   UNL     1     -11.475  -5.247  -1.400  0.00  0.00    +0.028 C 
BRANCH  29  31
ATOM     31  C   UNL     1     -10.887  -5.339   1.026  0.00  0.00    +0.026 C 
BRANCH  31  32
ATOM     32  C   UNL     1     -10.180  -4.603   2.166  0.00  0.00    +0.037 C 
BRANCH  32  33
ATOM     33  C   UNL     1     -10.397  -5.349   3.457  0.00  0.00    -0.047 A 
ATOM     34  C   UNL     1     -11.485  -5.049   4.255  0.00  0.00    +0.003 A 
ATOM     35  C   UNL     1     -11.687  -5.737   5.436  0.00  0.00    +0.000 A 
ATOM     36  C   UNL     1     -10.795  -6.718   5.826  0.00  0.00    +0.000 A 
ATOM     37  C   UNL     1      -9.703  -7.015   5.031  0.00  0.00    +0.000 A 
ATOM     38  C   UNL     1      -9.505  -6.330   3.847  0.00  0.00    +0.003 A 
ENDBRANCH  32  33
ENDBRANCH  31  32
ENDBRANCH  29  31
ENDBRANCH  27  29
ENDBRANCH  24  25
ENDBRANCH  11  24
TORSDOF 9
