REMARK  Name = ZINC08923472
REMARK  8 active torsions:
REMARK  status: ('A' for Active; 'I' for Inactive)
REMARK    1  A    between atoms: C_1  and  C_2
REMARK    2  A    between atoms: C_2  and  C_3
REMARK    3  A    between atoms: C_2  and  N_57
REMARK    4  A    between atoms: C_11  and  O_32
REMARK    5  A    between atoms: C_13  and  C_16
REMARK    6  A    between atoms: C_19  and  O_22
REMARK    7  A    between atoms: O_22  and  C_23
REMARK    8  A    between atoms: C_23  and  C_25
REMARK                            x       y       z     vdW  Elec       q    Type
REMARK                         _______ _______ _______ _____ _____    ______ ____
ROOT
ATOM      1  C   UNL     1      -3.147   1.815   2.773  0.00  0.00    -0.073 C 
ATOM      2  C   UNL     1      -4.636   1.517   2.571  0.00  0.00    +0.018 C 
ATOM      3  C   UNL     1      -4.767   0.104   2.013  0.00  0.00    -0.027 A 
ATOM      4  C   UNL     1      -3.694  -0.505   1.455  0.00  0.00    -0.021 A 
ATOM      5  S   UNL     1      -4.285  -2.098   0.952  0.00  0.00    -0.080 S 
ATOM      6  C   UNL     1      -5.910  -1.954   1.470  0.00  0.00    +0.080 A 
ATOM      7  C   UNL     1      -5.992  -0.671   2.029  0.00  0.00    +0.067 A 
ATOM      8  C   UNL     1      -7.306  -0.257   2.586  0.00  0.00    +0.220 C 
ATOM      9  N   UNL     1      -8.340  -1.011   2.331  0.00  0.00    -0.223 NA
ATOM     10  C   UNL     1      -8.320  -2.180   1.460  0.00  0.00    +0.224 C 
ATOM     11  N   UNL     1      -6.986  -2.807   1.423  0.00  0.00    -0.313 N 
ATOM     12  C   UNL     1      -2.321   0.071   1.308  0.00  0.00    -0.035 C 
ATOM     13  H   UNL     1      -6.874  -3.769   1.369  0.00  0.00    +0.149 HD
ATOM     14  N   UNL     1      -2.417   1.536   1.519  0.00  0.00    +0.384 N 
ATOM     15  H   UNL     1      -2.930   1.954   0.734  0.00  0.00    -0.081 HD
ENDROOT
BRANCH  10  16
ATOM     16  C   UNL     1      -8.705  -1.759   0.065  0.00  0.00    -0.005 A 
ATOM     17  C   UNL     1      -8.229  -2.465  -1.024  0.00  0.00    +0.011 A 
ATOM     18  C   UNL     1      -8.585  -2.084  -2.304  0.00  0.00    +0.047 A 
ATOM     19  C   UNL     1      -9.411  -0.987  -2.495  0.00  0.00    +0.132 A 
ATOM     20  C   UNL     1      -9.883  -0.277  -1.401  0.00  0.00    +0.047 A 
ATOM     21  C   UNL     1      -9.529  -0.665  -0.123  0.00  0.00    +0.011 A 
BRANCH  19  22
ATOM     22  O   UNL     1      -9.757  -0.607  -3.753  0.00  0.00    -0.422 OA
BRANCH  22  23
ATOM     23  C   UNL     1      -9.246   0.556  -4.204  0.00  0.00    +0.344 C 
ATOM     24  O   UNL     1      -8.430   1.160  -3.536  0.00  0.00    -0.245 OA
BRANCH  23  25
ATOM     25  C   UNL     1      -9.677   1.096  -5.509  0.00  0.00    +0.059 A 
ATOM     26  C   UNL     1     -10.611   0.401  -6.281  0.00  0.00    +0.016 A 
ATOM     27  C   UNL     1     -11.014   0.913  -7.496  0.00  0.00    +0.021 A 
ATOM     28  C   UNL     1     -10.486   2.109  -7.956  0.00  0.00    +0.041 A 
ATOM     29  C   UNL     1      -9.556   2.800  -7.198  0.00  0.00    +0.021 A 
ATOM     30  C   UNL     1      -9.149   2.300  -5.978  0.00  0.00    +0.016 A 
ATOM     31 CL   UNL     1     -10.994   2.744  -9.490  0.00  0.00    -0.084 Cl
ENDBRANCH  23  25
ENDBRANCH  22  23
ENDBRANCH  19  22
ENDBRANCH  10  16
BRANCH  14  33
ATOM     32  C   UNL     1      -0.276   1.704   0.338  0.00  0.00    -0.014 C 
ATOM     33  C   UNL     1      -1.064   2.129   1.579  0.00  0.00    -0.074 C 
ATOM     34  C   UNL     1      -1.192   3.653   1.605  0.00  0.00    -0.014 C 
ENDBRANCH  14  33
BRANCH   8  35
ATOM     35  O   UNL     1      -7.426   0.864   3.333  0.00  0.00    -0.492 OA
ATOM     36  H   UNL     1      -8.326   1.036   3.643  0.00  0.00    +0.294 HD
ENDBRANCH   8  35
TORSDOF 6
