REMARK  Name = ZINC58919596
REMARK  5 active torsions:
REMARK  status: ('A' for Active; 'I' for Inactive)
REMARK    1  A    between atoms: N_8  and  C_12
REMARK    2  A    between atoms: C_12  and  C_13
REMARK    3  A    between atoms: C_13  and  C_14
REMARK    4  A    between atoms: C_14  and  C_15
REMARK    5  A    between atoms: C_21  and  N_23
REMARK                            x       y       z     vdW  Elec       q    Type
REMARK                         _______ _______ _______ _____ _____    ______ ____
ROOT
ATOM      1  C   UNL     1       3.184  -4.638  -4.290  0.00  0.00    +0.097 C 
ENDROOT
BRANCH   1   2
ATOM      2  C   UNL     1       4.420  -4.518  -5.143  0.00  0.00    +0.216 C 
ATOM      3  O   UNL     1       5.168  -3.574  -4.997  0.00  0.00    -0.276 OA
ATOM      4  N   UNL     1       4.695  -5.458  -6.068  0.00  0.00    -0.303 N 
ATOM      5  C   UNL     1       3.795  -6.604  -6.261  0.00  0.00    +0.107 C 
ATOM      6  C   UNL     1       3.407  -6.682  -7.742  0.00  0.00    +0.017 C 
ATOM      7  C   UNL     1       4.676  -6.729  -8.595  0.00  0.00    -0.012 C 
ATOM      8  C   UNL     1       5.489  -5.450  -8.376  0.00  0.00    -0.051 C 
ATOM      9  C   UNL     1       5.897  -5.355  -6.907  0.00  0.00    +0.092 C 
BRANCH   8  10
ATOM     10  N   UNL     1       6.691  -5.482  -9.220  0.00  0.00    +0.383 N 
ATOM     11  C   UNL     1       6.309  -5.488 -10.655  0.00  0.00    -0.078 C 
ATOM     12  C   UNL     1       7.583  -4.961 -11.363  0.00  0.00    -0.020 C 
ATOM     13  C   UNL     1       8.104  -3.886 -10.382  0.00  0.00    -0.020 C 
ATOM     14  C   UNL     1       7.487  -4.252  -9.019  0.00  0.00    -0.078 C 
ATOM     15  H   UNL     1       7.247  -6.296  -9.003  0.00  0.00    -0.081 HD
ENDBRANCH   8  10
ENDBRANCH   1   2
BRANCH   1  16
ATOM     16  C   UNL     1       3.109  -3.450  -3.330  0.00  0.00    +0.029 C 
BRANCH  16  17
ATOM     17  C   UNL     1       1.853  -3.572  -2.464  0.00  0.00    +0.118 C 
BRANCH  17  25
ATOM     18  C   UNL     1      -0.019   1.541   0.011  0.00  0.00    +0.003 C 
ATOM     19  C   UNL     1       1.478   1.942  -0.002  0.00  0.00    +0.003 C 
ATOM     20  C   UNL     1       2.113   0.877  -0.934  0.00  0.00    +0.035 C 
ATOM     21  C   UNL     1       1.349  -0.411  -0.599  0.00  0.00    +0.113 C 
ATOM     22  C   UNL     1       0.002  -0.004   0.002  0.00  0.00    +0.035 C 
ATOM     23  C   UNL     1       1.165  -1.266  -1.827  0.00  0.00    +0.246 C 
ATOM     24  O   UNL     1       0.587  -0.969  -2.850  0.00  0.00    -0.273 OA
ATOM     25  N   UNL     1       1.782  -2.434  -1.544  0.00  0.00    -0.224 N 
ATOM     26  C   UNL     1       2.321  -2.422  -0.318  0.00  0.00    +0.309 C 
ATOM     27  O   UNL     1       2.928  -3.358   0.163  0.00  0.00    -0.252 OA
ATOM     28  N   UNL     1       2.113  -1.254   0.323  0.00  0.00    -0.285 N 
ATOM     29  H   UNL     1       2.410  -1.019   1.216  0.00  0.00    +0.151 HD
ENDBRANCH  17  25
ENDBRANCH  16  17
ENDBRANCH   1  16
TORSDOF 5
