REMARK  Name = ZINC63521473
REMARK  10 active torsions:
REMARK  status: ('A' for Active; 'I' for Inactive)
REMARK    1  A    between atoms: C_1  and  C_2
REMARK    2  A    between atoms: C_5  and  S_8
REMARK    3  A    between atoms: S_8  and  N_11
REMARK    4  A    between atoms: C_15  and  C_17
REMARK    5  A    between atoms: C_17  and  C_18
REMARK    6  A    between atoms: C_17  and  C_19
REMARK    7  A    between atoms: C_20  and  C_22
REMARK    8  A    between atoms: C_22  and  S_23
REMARK    9  A    between atoms: S_23  and  C_24
REMARK   10  A    between atoms: C_30  and  N_34
REMARK                            x       y       z     vdW  Elec       q    Type
REMARK                         _______ _______ _______ _____ _____    ______ ____
ROOT
ATOM      1  N   UNL     1       2.139  -4.917   0.033  0.00  0.00    -0.154 NA
ATOM      2  C   UNL     1       3.341  -5.010  -0.812  0.00  0.00    +0.130 C 
ATOM      3  C   UNL     1       4.521  -4.740   0.143  0.00  0.00    +0.126 C 
ATOM      4  N   UNL     1       4.030  -5.193   1.458  0.00  0.00    -0.282 N 
ATOM      5  C   UNL     1       2.571  -5.022   1.433  0.00  0.00    +0.170 C 
ATOM      6  C   UNL     1       4.773  -5.663   2.480  0.00  0.00    +0.227 C 
ATOM      7  O   UNL     1       4.231  -6.079   3.482  0.00  0.00    -0.275 OA
ENDROOT
BRANCH   1   8
ATOM      8  S   UNL     1       0.582  -4.723  -0.498  0.00  0.00    +0.063 S 
ATOM      9  O   UNL     1      -0.158  -4.202   0.597  0.00  0.00    -0.153 OA
ATOM     10  O   UNL     1       0.224  -5.931  -1.155  0.00  0.00    -0.153 OA
BRANCH   8  15
ATOM     11  C   UNL     1       0.661  -0.420  -4.726  0.00  0.00    +0.044 C 
ATOM     12  C   UNL     1       0.642  -1.494  -3.670  0.00  0.00    -0.050 A 
ATOM     13  C   UNL     1       0.817  -2.818  -4.028  0.00  0.00    +0.005 A 
ATOM     14  C   UNL     1       0.799  -3.804  -3.059  0.00  0.00    +0.029 A 
ATOM     15  C   UNL     1       0.606  -3.466  -1.733  0.00  0.00    +0.106 A 
ATOM     16  C   UNL     1       0.432  -2.142  -1.375  0.00  0.00    +0.029 A 
ATOM     17  C   UNL     1       0.454  -1.156  -2.343  0.00  0.00    +0.005 A 
ENDBRANCH   8  15
ENDBRANCH   1   8
BRANCH   5  18
ATOM     18  C   UNL     1       1.903  -6.231   2.089  0.00  0.00    +0.020 C 
ATOM     19  C   UNL     1       0.432  -5.914   2.365  0.00  0.00    +0.010 C 
ATOM     20  C   UNL     1       1.998  -7.438   1.152  0.00  0.00    +0.010 C 
ENDBRANCH   5  18
BRANCH   6  21
ATOM     21  C   UNL     1       6.276  -5.671   2.378  0.00  0.00    +0.168 C 
BRANCH  21  22
ATOM     22  S   UNL     1       6.982  -6.357   3.901  0.00  0.00    -0.106 S 
BRANCH  22  23
ATOM     23  C   UNL     1       8.774  -6.298   3.621  0.00  0.00    +0.236 C 
ATOM     24  N   UNL     1       9.195  -4.919   3.343  0.00  0.00    -0.355 N 
ATOM     25  C   UNL     1       9.720  -4.903   2.152  0.00  0.00    +0.061 A 
ATOM     26  C   UNL     1      10.310  -3.834   1.335  0.00  0.00    +0.029 A 
ATOM     27  C   UNL     1      10.786  -4.122   0.107  0.00  0.00    +0.035 A 
ATOM     28  C   UNL     1      10.744  -5.417  -0.438  0.00  0.00    +0.128 A 
ATOM     29  C   UNL     1      10.225  -6.469   0.226  0.00  0.00    +0.060 A 
ATOM     30  C   UNL     1       9.675  -6.274   1.575  0.00  0.00    +0.063 A 
ATOM     31  N   UNL     1       9.124  -7.086   2.433  0.00  0.00    -0.355 N 
ATOM     32  H   UNL     1       8.973  -8.036   2.309  0.00  0.00    +0.162 HD
ATOM     33  H   UNL     1       9.098  -4.159   3.938  0.00  0.00    +0.162 HD
BRANCH  28  34
ATOM     34  N   UNL     1      11.291  -5.635  -1.796  0.00  0.00    +0.056 N 
ATOM     35  O   UNL     1      11.763  -4.708  -2.413  0.00  0.00    -0.126 OA
ATOM     36  O   UNL     1      11.267  -6.739  -2.288  0.00  0.00    -0.126 OA
ENDBRANCH  28  34
ENDBRANCH  22  23
ENDBRANCH  21  22
ENDBRANCH   6  21
TORSDOF 7
