REMARK  Name = ZINC36698857
REMARK  11 active torsions:
REMARK  status: ('A' for Active; 'I' for Inactive)
REMARK    1  A    between atoms: C_1  and  C_2
REMARK    2  A    between atoms: C_7  and  C_8
REMARK    3  A    between atoms: N_12  and  C_13
REMARK    4  A    between atoms: C_13  and  C_14
REMARK    5  A    between atoms: C_14  and  N_15
REMARK    6  A    between atoms: N_15  and  C_16
REMARK    7  A    between atoms: N_15  and  C_17
REMARK    8  A    between atoms: C_18  and  C_20
REMARK    9  A    between atoms: C_23  and  S_26
REMARK   10  A    between atoms: S_26  and  N_29
REMARK   11  A    between atoms: C_34  and  C_36
REMARK                            x       y       z     vdW  Elec       q    Type
REMARK                         _______ _______ _______ _____ _____    ______ ____
ROOT
ATOM      1  C   UNL     1       2.530  -0.130   1.171  0.00  0.00    +0.044 C 
ATOM      2  C   UNL     1       2.439  -1.591   0.811  0.00  0.00    -0.045 A 
ATOM      3  C   UNL     1       2.090  -1.946  -0.466  0.00  0.00    +0.032 A 
ATOM      4  C   UNL     1       1.994  -3.307  -0.837  0.00  0.00    +0.081 A 
ATOM      5  C   UNL     1       2.277  -4.251   0.176  0.00  0.00    +0.041 A 
ATOM      6  C   UNL     1       2.626  -3.887   1.452  0.00  0.00    +0.021 A 
ATOM      7  C   UNL     1       2.715  -2.546   1.779  0.00  0.00    -0.046 A 
ATOM      8  C   UNL     1       3.102  -2.126   3.174  0.00  0.00    +0.044 C 
ATOM      9  S   UNL     1       2.051  -5.795  -0.673  0.00  0.00    -0.052 S 
ATOM     10  C   UNL     1       1.611  -5.114  -2.265  0.00  0.00    +0.168 A 
ATOM     11  N   UNL     1       1.666  -3.821  -2.042  0.00  0.00    -0.224 NA
ATOM     12  N   UNL     1       1.292  -5.779  -3.437  0.00  0.00    -0.248 N 
ATOM     13  C   UNL     1       1.291  -7.127  -3.467  0.00  0.00    +0.252 C 
ATOM     14  O   UNL     1       1.514  -7.758  -2.452  0.00  0.00    -0.270 OA
ENDROOT
BRANCH  13  15
ATOM     15  C   UNL     1       1.018  -7.837  -4.734  0.00  0.00    +0.037 A 
ATOM     16  C   UNL     1       1.545  -7.357  -5.934  0.00  0.00    +0.015 A 
ATOM     17  C   UNL     1       1.287  -8.025  -7.113  0.00  0.00    +0.029 A 
ATOM     18  C   UNL     1       0.508  -9.169  -7.108  0.00  0.00    +0.106 A 
ATOM     19  C   UNL     1      -0.018  -9.650  -5.922  0.00  0.00    +0.029 A 
ATOM     20  C   UNL     1       0.238  -8.995  -4.735  0.00  0.00    +0.015 A 
BRANCH  18  21
ATOM     21  S   UNL     1       0.183 -10.016  -8.618  0.00  0.00    +0.061 S 
ATOM     22  O   UNL     1      -1.099 -10.614  -8.481  0.00  0.00    -0.153 OA
ATOM     23  O   UNL     1       0.492  -9.109  -9.667  0.00  0.00    -0.153 OA
BRANCH  21  24
ATOM     24  N   UNL     1       1.275 -11.257  -8.728  0.00  0.00    -0.174 NA
ATOM     25  C   UNL     1       0.897 -12.623  -8.341  0.00  0.00    +0.110 C 
ATOM     26  C   UNL     1       1.209 -13.569  -9.505  0.00  0.00    +0.017 C 
ATOM     27  C   UNL     1       2.677 -13.412  -9.905  0.00  0.00    +0.003 C 
ATOM     28  C   UNL     1       2.931 -11.976 -10.369  0.00  0.00    +0.020 C 
ATOM     29  C   UNL     1       2.637 -11.013  -9.221  0.00  0.00    +0.077 C 
ATOM     30  C   UNL     1       2.752  -9.572  -9.721  0.00  0.00    +0.026 C 
ENDBRANCH  21  24
ENDBRANCH  18  21
ENDBRANCH  13  15
BRANCH  12  31
ATOM     31  C   UNL     1       0.957  -5.019  -4.643  0.00  0.00    +0.097 C 
BRANCH  31  32
ATOM     32  C   UNL     1       2.233  -4.421  -5.240  0.00  0.00    -0.060 C 
BRANCH  32  33
ATOM     33  N   UNL     1       1.920  -3.785  -6.527  0.00  0.00    +0.377 N 
ATOM     34  C   UNL     1       1.024  -2.644  -6.303  0.00  0.00    -0.097 C 
ATOM     35  C   UNL     1       3.162  -3.317  -7.156  0.00  0.00    -0.097 C 
ATOM     36  H   UNL     1       1.469  -4.455  -7.132  0.00  0.00    -0.083 HD
ENDBRANCH  32  33
ENDBRANCH  31  32
ENDBRANCH  12  31
TORSDOF 6
