REMARK  Name = ZINC28815339
REMARK  10 active torsions:
REMARK  status: ('A' for Active; 'I' for Inactive)
REMARK    1  A    between atoms: C_1  and  N_2
REMARK    2  A    between atoms: C_4  and  S_7
REMARK    3  A    between atoms: S_7  and  N_10
REMARK    4  A    between atoms: N_10  and  C_11
REMARK    5  A    between atoms: N_10  and  C_18
REMARK    6  A    between atoms: C_11  and  C_12
REMARK    7  A    between atoms: C_23  and  C_36
REMARK    8  A    between atoms: N_27  and  C_29
REMARK    9  A    between atoms: C_29  and  C_30
REMARK   10  A    between atoms: N_34  and  C_35
REMARK                            x       y       z     vdW  Elec       q    Type
REMARK                         _______ _______ _______ _____ _____    ______ ____
ROOT
ATOM      1  C   UNL     1       0.005  -2.854  -1.097  0.00  0.00    +0.102 C 
ATOM      2  C   UNL     1       1.463  -2.400  -1.206  0.00  0.00    +0.059 C 
ATOM      3  C   UNL     1       1.599  -0.999  -0.663  0.00  0.00    -0.024 A 
ATOM      4  C   UNL     1       2.868  -0.536  -0.374  0.00  0.00    +0.024 A 
ATOM      5  C   UNL     1       3.053   0.755   0.123  0.00  0.00    +0.052 A 
ATOM      6  C   UNL     1       1.943   1.580   0.328  0.00  0.00    +0.021 A 
ATOM      7  C   UNL     1       0.683   1.114   0.042  0.00  0.00    +0.024 A 
ATOM      8  C   UNL     1       0.498  -0.181  -0.455  0.00  0.00    +0.033 A 
ATOM      9  N   UNL     1      -0.805  -0.589  -0.713  0.00  0.00    -0.322 N 
ATOM     10  C   UNL     1      -0.882  -1.724  -1.635  0.00  0.00    +0.126 C 
ENDROOT
BRANCH   5  11
ATOM     11  C   UNL     1       4.370   1.232   0.420  0.00  0.00    +0.099 C 
ATOM     12  N   UNL     1       5.415   1.609   0.657  0.00  0.00    -0.191 NA
ENDBRANCH   5  11
BRANCH   1  13
ATOM     13  N   UNL     1      -0.328  -3.122   0.304  0.00  0.00    -0.164 NA
BRANCH  13  14
ATOM     14  S   UNL     1       0.698  -4.023   1.241  0.00  0.00    +0.080 S 
ATOM     15  O   UNL     1      -0.088  -4.574   2.289  0.00  0.00    -0.151 OA
ATOM     16  O   UNL     1       1.457  -4.831   0.352  0.00  0.00    -0.151 OA
BRANCH  14  20
ATOM     17  C   UNL     1       3.039  -0.664   4.550  0.00  0.00    +0.150 C 
ATOM     18  N   UNL     1       2.776  -1.516   3.388  0.00  0.00    -0.338 N 
ATOM     19  C   UNL     1       1.665  -2.290   3.183  0.00  0.00    +0.135 A 
ATOM     20  C   UNL     1       1.832  -2.905   1.996  0.00  0.00    +0.211 A 
ATOM     21  N   UNL     1       3.014  -2.521   1.493  0.00  0.00    -0.216 NA
ATOM     22  C   UNL     1       3.583  -1.686   2.318  0.00  0.00    +0.201 A 
ENDBRANCH  14  20
ENDBRANCH  13  14
BRANCH  13  23
ATOM     23  C   UNL     1      -1.568  -2.592   0.876  0.00  0.00    +0.165 C 
BRANCH  23  24
ATOM     24  C   UNL     1      -2.711  -3.514   0.537  0.00  0.00    +0.057 A 
ATOM     25  C   UNL     1      -3.103  -4.479   1.445  0.00  0.00    +0.025 A 
ATOM     26  C   UNL     1      -4.156  -5.322   1.123  0.00  0.00    +0.003 A 
ATOM     27  C   UNL     1      -4.779  -5.160  -0.106  0.00  0.00    +0.020 A 
ATOM     28  C   UNL     1      -4.332  -4.172  -0.962  0.00  0.00    +0.111 A 
ATOM     29  N   UNL     1      -3.330  -3.385  -0.620  0.00  0.00    -0.259 NA
ENDBRANCH  23  24
ENDBRANCH  13  23
ENDBRANCH   1  13
BRANCH   9  30
ATOM     30  C   UNL     1      -1.623   0.533  -1.191  0.00  0.00    +0.160 C 
BRANCH  30  31
ATOM     31  C   UNL     1      -1.312   0.800  -2.642  0.00  0.00    +0.053 A 
ATOM     32  C   UNL     1      -1.960   0.293  -3.708  0.00  0.00    +0.106 A 
ATOM     33  N   UNL     1      -1.376   0.774  -4.815  0.00  0.00    -0.352 N 
ATOM     34  C   UNL     1      -0.392   1.561  -4.476  0.00  0.00    +0.173 A 
ATOM     35  N   UNL     1      -0.321   1.609  -3.128  0.00  0.00    -0.337 N 
ATOM     36  C   UNL     1       0.640   2.380  -2.335  0.00  0.00    +0.150 C 
ATOM     37  H   UNL     1      -1.754   0.483  -5.807  0.00  0.00    +0.166 HD
ENDBRANCH  30  31
ENDBRANCH   9  30
TORSDOF 8
