REMARK  Name = ZINC26510379
REMARK  11 active torsions:
REMARK  status: ('A' for Active; 'I' for Inactive)
REMARK    1  A    between atoms: C_1  and  C_2
REMARK    2  A    between atoms: C_4  and  C_21
REMARK    3  A    between atoms: C_6  and  S_9
REMARK    4  A    between atoms: C_7  and  C_8
REMARK    5  A    between atoms: S_9  and  N_12
REMARK    6  A    between atoms: N_12  and  C_13
REMARK    7  A    between atoms: C_16  and  O_19
REMARK    8  A    between atoms: O_19  and  C_20
REMARK    9  A    between atoms: C_21  and  C_22
REMARK   10  A    between atoms: C_21  and  C_23
REMARK   11  A    between atoms: C_21  and  C_24
REMARK                            x       y       z     vdW  Elec       q    Type
REMARK                         _______ _______ _______ _____ _____    ______ ____
ROOT
ATOM      1  S   UNL     1       4.092  -0.729  -0.067  0.00  0.00    +0.073 S 
ATOM      2  O   UNL     1       4.088  -1.676  -1.126  0.00  0.00    -0.150 OA
ATOM      3  O   UNL     1       5.106   0.257   0.069  0.00  0.00    -0.150 OA
ENDROOT
BRANCH   1   9
ATOM      4  C   UNL     1      -1.121  -0.660  -0.445  0.00  0.00    +0.044 C 
ATOM      5  C   UNL     1       0.171   0.108  -0.333  0.00  0.00    -0.045 A 
ATOM      6  C   UNL     1       0.153   1.490  -0.302  0.00  0.00    +0.008 A 
ATOM      7  C   UNL     1       1.338   2.194  -0.200  0.00  0.00    -0.040 A 
ATOM      8  C   UNL     1       2.541   1.517  -0.129  0.00  0.00    +0.033 A 
ATOM      9  C   UNL     1       2.559   0.135  -0.159  0.00  0.00    +0.112 A 
ATOM     10  C   UNL     1       1.374  -0.570  -0.262  0.00  0.00    -0.021 A 
ATOM     11  C   UNL     1       1.393  -2.076  -0.295  0.00  0.00    +0.046 C 
BRANCH   7  12
ATOM     12  C   UNL     1       1.319   3.701  -0.166  0.00  0.00    -0.013 C 
ATOM     13  C   UNL     1      -0.126   4.194  -0.260  0.00  0.00    +0.015 C 
ATOM     14  C   UNL     1       1.941   4.190   1.143  0.00  0.00    +0.015 C 
ATOM     15  C   UNL     1       2.122   4.247  -1.348  0.00  0.00    +0.015 C 
ENDBRANCH   7  12
ENDBRANCH   1   9
BRANCH   1  16
ATOM     16  N   UNL     1       4.082  -1.596   1.343  0.00  0.00    -0.216 N 
ATOM     17  H   UNL     1       4.154  -2.693   1.315  0.00  0.00    +0.174 HD
BRANCH  16  18
ATOM     18  C   UNL     1       3.982  -0.932   2.572  0.00  0.00    +0.048 A 
ATOM     19  C   UNL     1       4.774   0.179   2.827  0.00  0.00    +0.028 A 
ATOM     20  C   UNL     1       4.671   0.837   4.037  0.00  0.00    +0.047 A 
ATOM     21  C   UNL     1       3.785   0.380   5.002  0.00  0.00    +0.120 A 
ATOM     22  C   UNL     1       2.998  -0.734   4.750  0.00  0.00    +0.047 A 
ATOM     23  C   UNL     1       3.095  -1.389   3.538  0.00  0.00    +0.028 A 
BRANCH  21  24
ATOM     24  O   UNL     1       3.688   1.024   6.196  0.00  0.00    -0.495 OA
ATOM     25  C   UNL     1       4.529   2.163   6.388  0.00  0.00    +0.277 C 
ENDBRANCH  21  24
ENDBRANCH  16  18
ENDBRANCH   1  16
TORSDOF 5
