REMARK  Name = ZINC13655120
REMARK  7 active torsions:
REMARK  status: ('A' for Active; 'I' for Inactive)
REMARK    1  A    between atoms: C_1  and  O_2
REMARK    2  A    between atoms: O_2  and  C_3
REMARK    3  A    between atoms: C_12  and  O_31
REMARK    4  A    between atoms: C_14  and  O_18
REMARK    5  A    between atoms: O_18  and  C_19
REMARK    6  A    between atoms: C_19  and  C_20
REMARK    7  A    between atoms: N_22  and  C_23
REMARK                            x       y       z     vdW  Elec       q    Type
REMARK                         _______ _______ _______ _____ _____    ______ ____
ROOT
ATOM      1  C   UNL     1      -0.787   2.893   1.346  0.00  0.00    +0.121 A 
ATOM      2  C   UNL     1      -0.256   3.752   0.390  0.00  0.00    +0.049 A 
ATOM      3  C   UNL     1      -0.355   5.118   0.541  0.00  0.00    +0.050 A 
ATOM      4  C   UNL     1      -0.991   5.655   1.657  0.00  0.00    +0.139 A 
ATOM      5  C   UNL     1      -1.526   4.787   2.620  0.00  0.00    +0.068 A 
ATOM      6  C   UNL     1      -1.428   3.406   2.459  0.00  0.00    +0.061 A 
ATOM      7  C   UNL     1      -2.200   5.364   3.803  0.00  0.00    +0.204 A 
ATOM      8  O   UNL     1      -2.683   4.658   4.670  0.00  0.00    -0.286 OA
ATOM      9  C   UNL     1      -2.259   6.832   3.882  0.00  0.00    +0.106 A 
ATOM     10  C   UNL     1      -2.879   7.468   4.968  0.00  0.00    +0.135 A 
ATOM     11  C   UNL     1      -2.919   8.849   5.018  0.00  0.00    +0.092 A 
ATOM     12  C   UNL     1      -2.349   9.599   3.995  0.00  0.00    +0.128 A 
ATOM     13  C   UNL     1      -1.735   8.977   2.919  0.00  0.00    +0.092 A 
ATOM     14  C   UNL     1      -1.683   7.591   2.849  0.00  0.00    +0.146 A 
ATOM     15  O   UNL     1      -1.084   6.994   1.799  0.00  0.00    -0.454 OA
ENDROOT
BRANCH   1  17
ATOM     16  C   UNL     1      -0.013   1.086   0.008  0.00  0.00    +0.277 C 
ATOM     17  O   UNL     1      -0.682   1.547   1.184  0.00  0.00    -0.495 OA
ENDBRANCH   1  17
BRANCH  10  18
ATOM     18  O   UNL     1      -3.434   6.732   5.964  0.00  0.00    -0.506 OA
ATOM     19  H   UNL     1      -2.826   6.527   6.687  0.00  0.00    +0.292 HD
ENDBRANCH  10  18
BRANCH  12  20
ATOM     20  O   UNL     1      -2.394  10.954   4.050  0.00  0.00    -0.483 OA
BRANCH  20  21
ATOM     21  C   UNL     1      -3.040  11.536   5.185  0.00  0.00    +0.324 C 
BRANCH  21  22
ATOM     22  C   UNL     1      -2.993  13.038   5.074  0.00  0.00    +0.251 C 
ATOM     23  O   UNL     1      -2.459  13.559   4.118  0.00  0.00    -0.272 OA
ATOM     24  N   UNL     1      -3.545  13.802   6.038  0.00  0.00    -0.308 N 
ATOM     25  H   UNL     1      -3.972  13.385   6.802  0.00  0.00    +0.149 HD
BRANCH  24  26
ATOM     26  C   UNL     1      -3.499  15.262   5.930  0.00  0.00    +0.095 C 
ATOM     27  C   UNL     1      -4.672  15.748   5.063  0.00  0.00    +0.046 C 
ATOM     28  C   UNL     1      -4.786  17.291   5.222  0.00  0.00    +0.168 C 
ATOM     29  S   UNL     1      -4.477  17.467   7.030  0.00  0.00    -0.029 S 
ATOM     30  O   UNL     1      -5.721  17.447   7.715  0.00  0.00    -0.174 OA
ATOM     31  O   UNL     1      -3.579  18.548   7.242  0.00  0.00    -0.174 OA
ATOM     32  C   UNL     1      -3.595  15.885   7.344  0.00  0.00    +0.188 C 
ENDBRANCH  24  26
ENDBRANCH  21  22
ENDBRANCH  20  21
ENDBRANCH  12  20
TORSDOF 6
