REMARK  Name = ZINC12512987
REMARK  7 active torsions:
REMARK  status: ('A' for Active; 'I' for Inactive)
REMARK    1  A    between atoms: C_1  and  O_2
REMARK    2  A    between atoms: O_2  and  C_3
REMARK    3  A    between atoms: C_3  and  C_4
REMARK    4  A    between atoms: C_4  and  C_5
REMARK    5  A    between atoms: C_5  and  N_6
REMARK    6  A    between atoms: C_17  and  N_61
REMARK    7  A    between atoms: N_23  and  C_26
REMARK                            x       y       z     vdW  Elec       q    Type
REMARK                         _______ _______ _______ _____ _____    ______ ____
ROOT
ATOM      1  N   UNL     1       1.100   6.067   0.038  0.00  0.00    -0.299 N 
ATOM      2  C   UNL     1      -0.234   6.300  -0.026  0.00  0.00    +0.203 A 
ATOM      3  N   UNL     1      -1.127   5.337  -0.080  0.00  0.00    -0.230 NA
ATOM      4  C   UNL     1      -0.678   4.086  -0.068  0.00  0.00    +0.116 A 
ATOM      5  C   UNL     1       0.690   3.741  -0.004  0.00  0.00    +0.076 A 
ATOM      6  C   UNL     1       1.632   4.822   0.053  0.00  0.00    +0.262 A 
ATOM      7  O   UNL     1       2.835   4.632   0.111  0.00  0.00    -0.267 OA
ATOM      8  C   UNL     1       0.994   2.321  -0.003  0.00  0.00    -0.023 A 
ATOM      9  C   UNL     1      -0.061   1.475  -0.065  0.00  0.00    -0.006 A 
ATOM     10  S   UNL     1      -1.494   2.522  -0.132  0.00  0.00    -0.073 S 
ATOM     11  C   UNL     1      -0.024  -0.022  -0.080  0.00  0.00    +0.027 C 
ATOM     12  C   UNL     1       1.412  -0.469  -0.389  0.00  0.00    -0.063 C 
ATOM     13  C   UNL     1       2.373   0.317   0.508  0.00  0.00    -0.010 C 
ATOM     14  C   UNL     1       2.419   1.779   0.063  0.00  0.00    +0.035 C 
ENDROOT
BRANCH  12  20
ATOM     15  C   UNL     1       2.882  -2.390  -0.507  0.00  0.00    -0.059 C 
ATOM     16  C   UNL     1       3.012  -3.870  -0.137  0.00  0.00    +0.086 C 
ATOM     17  N   UNL     1       1.957  -4.637  -0.813  0.00  0.00    -0.331 N 
ATOM     18  C   UNL     1       0.626  -4.153  -0.423  0.00  0.00    +0.086 C 
ATOM     19  C   UNL     1       0.495  -2.674  -0.794  0.00  0.00    -0.059 C 
ATOM     20  N   UNL     1       1.547  -1.911  -0.090  0.00  0.00    +0.384 N 
ATOM     21  H   UNL     1       1.443  -2.053   0.921  0.00  0.00    -0.081 HD
BRANCH  17  22
ATOM     22  C   UNL     1       2.088  -6.005  -0.555  0.00  0.00    +0.065 A 
ATOM     23  C   UNL     1       1.232  -6.913  -1.163  0.00  0.00    +0.026 A 
ATOM     24  C   UNL     1       1.366  -8.264  -0.909  0.00  0.00    +0.002 A 
ATOM     25  C   UNL     1       2.347  -8.713  -0.043  0.00  0.00    +0.003 A 
ATOM     26  C   UNL     1       3.200  -7.812   0.568  0.00  0.00    +0.040 A 
ATOM     27  C   UNL     1       3.074  -6.459   0.315  0.00  0.00    +0.144 A 
ATOM     28  F   UNL     1       3.906  -5.579   0.913  0.00  0.00    -0.204 F 
ENDBRANCH  17  22
ENDBRANCH  12  20
BRANCH   1  29
ATOM     29  C   UNL     1       2.007   7.216   0.093  0.00  0.00    +0.128 C 
BRANCH  29  30
ATOM     30  C   UNL     1       2.394   7.629  -1.329  0.00  0.00    +0.050 C 
BRANCH  30  31
ATOM     31  C   UNL     1       3.342   8.828  -1.271  0.00  0.00    +0.161 C 
BRANCH  31  33
ATOM     32  C   UNL     1       4.592  10.332  -2.658  0.00  0.00    +0.193 C 
ATOM     33  O   UNL     1       3.704   9.214  -2.599  0.00  0.00    -0.383 OA
ENDBRANCH  31  33
ENDBRANCH  30  31
ENDBRANCH  29  30
ENDBRANCH   1  29
TORSDOF 6
