REMARK  Name = ZINC34747446
REMARK  6 active torsions:
REMARK  status: ('A' for Active; 'I' for Inactive)
REMARK    1  A    between atoms: C_1  and  N_2
REMARK    2  A    between atoms: N_2  and  C_3
REMARK    3  A    between atoms: C_4  and  C_6
REMARK    4  A    between atoms: C_6  and  N_7
REMARK    5  A    between atoms: N_26  and  C_27
REMARK    6  A    between atoms: C_27  and  C_28
REMARK                            x       y       z     vdW  Elec       q    Type
REMARK                         _______ _______ _______ _____ _____    ______ ____
ROOT
ATOM      1  N   UNL     1      -0.161  -1.743  -3.718  0.00  0.00    +0.387 N 
ATOM      2  C   UNL     1      -0.368  -2.014  -5.146  0.00  0.00    -0.059 C 
ATOM      3  C   UNL     1      -0.364  -3.528  -5.384  0.00  0.00    +0.089 C 
ATOM      4  N   UNL     1       0.883  -4.082  -4.835  0.00  0.00    -0.304 N 
ATOM      5  C   UNL     1       1.253  -3.726  -3.456  0.00  0.00    +0.089 C 
ATOM      6  C   UNL     1       1.172  -2.203  -3.310  0.00  0.00    -0.059 C 
ATOM      7  C   UNL     1       1.679  -4.909  -5.588  0.00  0.00    +0.202 A 
ATOM      8  N   UNL     1       2.625  -4.389  -6.343  0.00  0.00    -0.208 NA
ATOM      9  C   UNL     1       3.410  -5.166  -7.081  0.00  0.00    +0.117 A 
ATOM     10  C   UNL     1       3.276  -6.564  -7.096  0.00  0.00    +0.076 A 
ATOM     11  C   UNL     1       4.212  -7.286  -7.960  0.00  0.00    -0.023 A 
ATOM     12  C   UNL     1       5.104  -6.547  -8.649  0.00  0.00    -0.004 A 
ATOM     13  S   UNL     1       4.757  -4.868  -8.198  0.00  0.00    -0.073 S 
ATOM     14  C   UNL     1       6.159  -7.042  -9.591  0.00  0.00    +0.043 C 
ATOM     15  C   UNL     1       6.325  -8.554  -9.382  0.00  0.00    +0.005 C 
ATOM     16  C   UNL     1       4.938  -9.203  -9.365  0.00  0.00    +0.005 C 
ATOM     17  C   UNL     1       4.195  -8.807  -8.088  0.00  0.00    +0.037 C 
ATOM     18  C   UNL     1       2.241  -7.100  -6.267  0.00  0.00    +0.264 A 
ATOM     19  O   UNL     1       2.050  -8.303  -6.215  0.00  0.00    -0.267 OA
ATOM     20  N   UNL     1       1.484  -6.258  -5.539  0.00  0.00    -0.271 N 
ATOM     21  H   UNL     1      -0.863  -2.230  -3.181  0.00  0.00    -0.081 HD
ENDROOT
BRANCH   1  22
ATOM     22  C   UNL     1      -0.275  -0.299  -3.474  0.00  0.00    +0.019 C 
BRANCH  22  26
ATOM     23  C   UNL     1      -3.386   1.887  -3.918  0.00  0.00    +0.131 C 
ATOM     24  N   UNL     1      -2.019   1.448  -3.623  0.00  0.00    -0.309 N 
ATOM     25  C   UNL     1      -1.022   2.417  -3.163  0.00  0.00    +0.131 C 
ATOM     26  C   UNL     1      -1.680   0.153  -3.777  0.00  0.00    +0.199 C 
ATOM     27  O   UNL     1      -2.506  -0.649  -4.158  0.00  0.00    -0.278 OA
ENDBRANCH  22  26
ENDBRANCH   1  22
BRANCH  20  28
ATOM     28  C   UNL     1       0.426  -6.800  -4.683  0.00  0.00    +0.224 C 
BRANCH  28  29
ATOM     29  C   UNL     1      -0.834  -6.973  -5.491  0.00  0.00    +0.236 C 
ATOM     30  O   UNL     1      -0.847  -6.673  -6.666  0.00  0.00    -0.274 OA
ATOM     31  N   UNL     1      -1.947  -7.461  -4.908  0.00  0.00    -0.300 N 
ATOM     32  C   UNL     1      -2.072  -7.857  -3.498  0.00  0.00    +0.108 C 
ATOM     33  C   UNL     1      -3.511  -8.377  -3.293  0.00  0.00    +0.020 C 
ATOM     34  C   UNL     1      -3.944  -8.774  -4.729  0.00  0.00    +0.020 C 
ATOM     35  C   UNL     1      -3.242  -7.681  -5.577  0.00  0.00    +0.108 C 
ENDBRANCH  28  29
ENDBRANCH  20  28
TORSDOF 4
