REMARK  Name = ZINC36663560
REMARK  17 active torsions:
REMARK  status: ('A' for Active; 'I' for Inactive)
REMARK    1  A    between atoms: C_1  and  C_2
REMARK    2  A    between atoms: C_6  and  C_33
REMARK    3  A    between atoms: C_7  and  N_8
REMARK    4  A    between atoms: C_9  and  C_11
REMARK    5  A    between atoms: C_11  and  C_13
REMARK    6  A    between atoms: C_11  and  S_14
REMARK    7  A    between atoms: S_14  and  C_15
REMARK    8  A    between atoms: C_18  and  C_21
REMARK    9  A    between atoms: N_19  and  N_20
REMARK   10  A    between atoms: C_21  and  O_22
REMARK   11  A    between atoms: O_22  and  C_23
REMARK   12  A    between atoms: C_26  and  C_29
REMARK   13  A    between atoms: C_29  and  C_30
REMARK   14  A    between atoms: C_29  and  C_31
REMARK   15  A    between atoms: C_29  and  C_32
REMARK   16  A    between atoms: C_33  and  C_34
REMARK   17  A    between atoms: C_33  and  C_35
REMARK                            x       y       z     vdW  Elec       q    Type
REMARK                         _______ _______ _______ _____ _____    ______ ____
ROOT
ATOM      1  C   UNL     1      -0.987   4.287   5.238  0.00  0.00    +0.209 A 
ATOM      2  N   UNL     1      -0.080   3.957   6.128  0.00  0.00    -0.121 NA
ATOM      3  N   UNL     1      -0.166   4.734   7.148  0.00  0.00    -0.128 NA
ATOM      4  C   UNL     1      -1.125   5.599   6.972  0.00  0.00    +0.189 A 
ATOM      5  N   UNL     1      -1.678   5.349   5.747  0.00  0.00    -0.225 N 
ENDROOT
BRANCH   5   6
ATOM      6  N   UNL     1      -2.710   6.021   5.155  0.00  0.00    -0.295 N 
ATOM      7  H   UNL     1      -3.598   5.607   5.400  0.00  0.00    +0.163 HD
ATOM      8  H   UNL     1      -2.689   7.000   5.396  0.00  0.00    +0.163 HD
ENDBRANCH   5   6
BRANCH   1   9
ATOM      9  S   UNL     1      -1.256   3.511   3.679  0.00  0.00    -0.072 S 
BRANCH   9  10
ATOM     10  C   UNL     1      -0.016   2.188   3.628  0.00  0.00    +0.137 C 
ATOM     11  C   UNL     1       1.385   2.803   3.609  0.00  0.00    +0.029 C 
BRANCH  10  13
ATOM     12  N   UNL     1       0.203   0.079   2.354  0.00  0.00    -0.284 N 
ATOM     13  C   UNL     1      -0.217   1.359   2.386  0.00  0.00    +0.230 C 
ATOM     14  O   UNL     1      -0.758   1.843   1.414  0.00  0.00    -0.274 OA
ATOM     15  H   UNL     1       0.566  -0.332   3.155  0.00  0.00    +0.155 HD
BRANCH  12  22
ATOM     16  C   UNL     1      -2.383  -0.569   1.361  0.00  0.00    +0.045 C 
ATOM     17  C   UNL     1      -1.126  -0.995   0.648  0.00  0.00    -0.029 A 
ATOM     18  C   UNL     1      -1.208  -1.717  -0.527  0.00  0.00    +0.005 A 
ATOM     19  C   UNL     1      -0.055  -2.108  -1.182  0.00  0.00    +0.001 A 
ATOM     20  C   UNL     1       1.184  -1.778  -0.664  0.00  0.00    +0.006 A 
ATOM     21  C   UNL     1       1.273  -1.056   0.510  0.00  0.00    -0.023 A 
ATOM     22  C   UNL     1       0.117  -0.657   1.168  0.00  0.00    +0.040 A 
BRANCH  21  23
ATOM     23  C   UNL     1       2.623  -0.697   1.074  0.00  0.00    +0.015 C 
ATOM     24  C   UNL     1       3.410  -1.976   1.366  0.00  0.00    +0.012 C 
ATOM     25  C   UNL     1       3.390   0.153   0.059  0.00  0.00    +0.012 C 
ENDBRANCH  21  23
ENDBRANCH  12  22
ENDBRANCH  10  13
ENDBRANCH   9  10
ENDBRANCH   1   9
BRANCH   4  26
ATOM     26  C   UNL     1      -1.542   6.679   7.937  0.00  0.00    +0.306 C 
BRANCH  26  27
ATOM     27  O   UNL     1      -0.801   7.871   7.668  0.00  0.00    -0.484 OA
BRANCH  27  28
ATOM     28  C   UNL     1      -1.059   8.948   8.454  0.00  0.00    +0.121 A 
ATOM     29  C   UNL     1      -2.001   8.859   9.469  0.00  0.00    +0.046 A 
ATOM     30  C   UNL     1      -2.261   9.956  10.267  0.00  0.00    +0.008 A 
ATOM     31  C   UNL     1      -1.583  11.142  10.056  0.00  0.00    -0.042 A 
ATOM     32  C   UNL     1      -0.644  11.234   9.046  0.00  0.00    +0.008 A 
ATOM     33  C   UNL     1      -0.376  10.138   8.248  0.00  0.00    +0.046 A 
BRANCH  31  34
ATOM     34  C   UNL     1      -1.869  12.337  10.928  0.00  0.00    -0.013 C 
ATOM     35  C   UNL     1      -1.562  11.989  12.386  0.00  0.00    +0.015 C 
ATOM     36  C   UNL     1      -0.992  13.511  10.489  0.00  0.00    +0.015 C 
ATOM     37  C   UNL     1      -3.343  12.724  10.796  0.00  0.00    +0.015 C 
ENDBRANCH  31  34
ENDBRANCH  27  28
ENDBRANCH  26  27
ENDBRANCH   4  26
TORSDOF 10
