REMARK  Name = ZINC11784958
REMARK  4 active torsions:
REMARK  status: ('A' for Active; 'I' for Inactive)
REMARK    1  A    between atoms: C_9  and  C_12
REMARK    2  A    between atoms: C_17  and  C_18
REMARK    3  A    between atoms: C_17  and  N_62
REMARK    4  A    between atoms: C_23  and  C_26
REMARK                            x       y       z     vdW  Elec       q    Type
REMARK                         _______ _______ _______ _____ _____    ______ ____
ROOT
ATOM      1  C   UNL     1       4.062   0.121   1.549  0.00  0.00    +0.019 C 
ENDROOT
BRANCH   1  12
ATOM      2  C   UNL     1      -1.218   1.755   0.017  0.00  0.00    +0.000 A 
ATOM      3  C   UNL     1      -1.235   3.138   0.022  0.00  0.00    +0.004 A 
ATOM      4  C   UNL     1      -0.050   3.848   0.016  0.00  0.00    +0.046 A 
ATOM      5  C   UNL     1       1.160   3.167   0.015  0.00  0.00    +0.123 A 
ATOM      6  C   UNL     1       1.170   1.785   0.001  0.00  0.00    -0.022 A 
ATOM      7  C   UNL     1      -0.013   1.076   0.008  0.00  0.00    +0.005 A 
ATOM      8  C   UNL     1       2.498   1.054  -0.044  0.00  0.00    -0.038 C 
ATOM      9  C   UNL     1       3.949   2.514   1.256  0.00  0.00    -0.028 C 
ATOM     10  C   UNL     1       3.074   3.749   1.268  0.00  0.00    +0.188 C 
ATOM     11  O   UNL     1       2.332   3.857   0.046  0.00  0.00    -0.486 OA
ATOM     12  N   UNL     1       3.172   1.257   1.261  0.00  0.00    +0.391 N 
ATOM     13  H   UNL     1       2.458   1.314   1.995  0.00  0.00    -0.080 HD
BRANCH  10  14
ATOM     14  C   UNL     1       3.941   4.971   1.430  0.00  0.00    -0.002 A 
ATOM     15  C   UNL     1       4.158   5.516   2.681  0.00  0.00    +0.015 A 
ATOM     16  C   UNL     1       4.943   6.615   2.792  0.00  0.00    +0.045 A 
ATOM     17  S   UNL     1       5.405   6.912   1.094  0.00  0.00    -0.105 S 
ATOM     18  C   UNL     1       4.525   5.548   0.351  0.00  0.00    +0.052 A 
ENDBRANCH  10  14
ENDBRANCH   1  12
BRANCH   1  19
ATOM     19  C   UNL     1       5.177   0.037   0.538  0.00  0.00    +0.199 C 
ATOM     20  O   UNL     1       5.244   0.849  -0.360  0.00  0.00    -0.278 OA
ATOM     21  N   UNL     1       6.100  -0.941   0.633  0.00  0.00    -0.303 N 
ATOM     22  C   UNL     1       6.036  -1.928   1.719  0.00  0.00    +0.108 C 
ATOM     23  C   UNL     1       7.380  -1.956   2.446  0.00  0.00    +0.030 C 
ATOM     24  C   UNL     1       8.500  -2.207   1.433  0.00  0.00    +0.058 C 
ATOM     25  C   UNL     1       8.527  -1.071   0.408  0.00  0.00    +0.030 C 
ATOM     26  C   UNL     1       7.193  -1.036  -0.345  0.00  0.00    +0.108 C 
BRANCH  24  27
ATOM     27  C   UNL     1       9.823  -2.265   2.152  0.00  0.00    +0.111 A 
ATOM     28  N   UNL     1      10.154  -1.514   3.237  0.00  0.00    -0.342 N 
ATOM     29  H   UNL     1       9.574  -0.836   3.688  0.00  0.00    +0.167 HD
ATOM     30  C   UNL     1      11.440  -1.861   3.599  0.00  0.00    +0.066 A 
ATOM     31  C   UNL     1      12.306  -1.451   4.604  0.00  0.00    +0.028 A 
ATOM     32  C   UNL     1      13.564  -2.008   4.691  0.00  0.00    +0.002 A 
ATOM     33  C   UNL     1      13.970  -2.974   3.781  0.00  0.00    +0.002 A 
ATOM     34  C   UNL     1      13.133  -3.389   2.785  0.00  0.00    +0.030 A 
ATOM     35  C   UNL     1      11.852  -2.839   2.678  0.00  0.00    +0.089 A 
ATOM     36  N   UNL     1      10.816  -3.038   1.823  0.00  0.00    -0.232 NA
ENDBRANCH  24  27
ENDBRANCH   1  19
TORSDOF 4
