REMARK  Name = ZINC39966856
REMARK  8 active torsions:
REMARK  status: ('A' for Active; 'I' for Inactive)
REMARK    1  A    between atoms: C_4  and  N_10
REMARK    2  A    between atoms: C_5  and  C_7
REMARK    3  A    between atoms: C_11  and  C_13
REMARK    4  A    between atoms: C_13  and  S_14
REMARK    5  A    between atoms: S_14  and  C_15
REMARK    6  A    between atoms: C_18  and  C_27
REMARK    7  A    between atoms: N_19  and  C_20
REMARK    8  A    between atoms: C_20  and  C_21
REMARK                            x       y       z     vdW  Elec       q    Type
REMARK                         _______ _______ _______ _____ _____    ______ ____
ROOT
ATOM      1  C   UNL     1       8.647   0.086  -0.766  0.00  0.00    +0.192 A 
ATOM      2  N   UNL     1       8.796  -1.218  -0.752  0.00  0.00    -0.122 NA
ATOM      3  N   UNL     1      10.036  -1.522  -0.899  0.00  0.00    -0.128 NA
ATOM      4  C   UNL     1      10.755  -0.431  -1.017  0.00  0.00    +0.166 A 
ATOM      5  N   UNL     1       9.888   0.634  -0.942  0.00  0.00    -0.300 N 
ENDROOT
BRANCH   4   6
ATOM      6  C   UNL     1      12.221  -0.359  -1.203  0.00  0.00    +0.030 A 
ATOM      7  C   UNL     1      12.749   0.415  -2.194  0.00  0.00    +0.057 A 
ATOM      8  S   UNL     1      14.500   0.146  -1.975  0.00  0.00    -0.101 S 
ATOM      9  C   UNL     1      14.407  -0.961  -0.591  0.00  0.00    -0.006 A 
ATOM     10  C   UNL     1      13.079  -1.087  -0.353  0.00  0.00    -0.026 A 
ATOM     11  C   UNL     1      12.535  -1.980   0.759  0.00  0.00    +0.036 C 
ATOM     12  C   UNL     1      13.572  -2.118   1.867  0.00  0.00    +0.005 C 
ATOM     13  C   UNL     1      14.492  -3.308   1.601  0.00  0.00    +0.001 C 
ATOM     14  C   UNL     1      15.272  -3.089   0.308  0.00  0.00    +0.005 C 
ATOM     15  C   UNL     1      15.541  -1.593   0.149  0.00  0.00    +0.043 C 
ENDBRANCH   4   6
BRANCH   1  16
ATOM     16  S   UNL     1       7.130   0.967  -0.598  0.00  0.00    -0.077 S 
BRANCH  16  17
ATOM     17  C   UNL     1       5.886  -0.338  -0.399  0.00  0.00    +0.173 C 
BRANCH  17  19
ATOM     18  N   UNL     1       3.438  -0.494  -0.081  0.00  0.00    -0.284 N 
ATOM     19  C   UNL     1       4.523   0.287  -0.244  0.00  0.00    +0.228 C 
ATOM     20  O   UNL     1       4.404   1.494  -0.265  0.00  0.00    -0.275 OA
ATOM     21  H   UNL     1       3.541  -1.454   0.018  0.00  0.00    +0.155 HD
BRANCH  18  25
ATOM     22  C   UNL     1      -0.367   1.212  -0.004  0.00  0.00    +0.001 A 
ATOM     23  C   UNL     1       0.672   1.851  -0.660  0.00  0.00    +0.002 A 
ATOM     24  C   UNL     1       1.933   1.288  -0.688  0.00  0.00    +0.024 A 
ATOM     25  C   UNL     1       2.167   0.075  -0.054  0.00  0.00    +0.046 A 
ATOM     26  C   UNL     1       1.117  -0.574   0.612  0.00  0.00    +0.058 A 
ATOM     27  C   UNL     1      -0.153   0.007   0.630  0.00  0.00    +0.015 A 
BRANCH  26  28
ATOM     28  C   UNL     1       1.353  -1.864   1.288  0.00  0.00    +0.243 C 
ATOM     29  O   UNL     1       2.478  -2.320   1.353  0.00  0.00    -0.270 OA
ATOM     30  N   UNL     1       0.321  -2.537   1.835  0.00  0.00    -0.325 N 
ATOM     31  H   UNL     1      -0.577  -2.173   1.784  0.00  0.00    +0.145 HD
ATOM     32  H   UNL     1       0.476  -3.385   2.280  0.00  0.00    +0.145 HD
ENDBRANCH  26  28
ENDBRANCH  18  25
ENDBRANCH  17  19
ENDBRANCH  16  17
ENDBRANCH   1  16
BRANCH   5  33
ATOM     33  C   UNL     1      10.224   2.058  -1.028  0.00  0.00    +0.157 C 
BRANCH  33  34
ATOM     34  C   UNL     1      10.646   2.566   0.352  0.00  0.00    +0.138 C 
ATOM     35  C   UNL     1      11.092   4.048   0.266  0.00  0.00    +0.035 C 
ATOM     36  C   UNL     1      10.840   4.517   1.725  0.00  0.00    +0.031 C 
ATOM     37  C   UNL     1       9.593   3.698   2.122  0.00  0.00    +0.160 C 
ATOM     38  O   UNL     1       9.525   2.562   1.250  0.00  0.00    -0.375 OA
ENDBRANCH  33  34
ENDBRANCH   5  33
TORSDOF 8
