REMARK  Name = ZINC38132060
REMARK  6 active torsions:
REMARK  status: ('A' for Active; 'I' for Inactive)
REMARK    1  A    between atoms: C_1  and  N_2
REMARK    2  A    between atoms: N_2  and  C_3
REMARK    3  A    between atoms: C_3  and  C_5
REMARK    4  A    between atoms: C_3  and  C_15
REMARK    5  A    between atoms: C_5  and  C_6
REMARK    6  A    between atoms: C_11  and  N_12
REMARK                            x       y       z     vdW  Elec       q    Type
REMARK                         _______ _______ _______ _____ _____    ______ ____
ROOT
ATOM      1  C   UNL     1       0.475  -0.610   1.048  0.00  0.00    -0.036 C 
ENDROOT
BRANCH   1   2
ATOM      2  C   UNL     1      -0.325   0.025   2.156  0.00  0.00    -0.047 A 
ATOM      3  C   UNL     1      -1.705   0.060   2.080  0.00  0.00    +0.003 A 
ATOM      4  C   UNL     1      -2.439   0.642   3.096  0.00  0.00    +0.000 A 
ATOM      5  C   UNL     1      -1.793   1.190   4.189  0.00  0.00    +0.001 A 
ATOM      6  C   UNL     1      -0.414   1.155   4.266  0.00  0.00    +0.015 A 
ATOM      7  C   UNL     1       0.321   0.568   3.252  0.00  0.00    +0.019 A 
ATOM      8 BR   UNL     1       2.208   0.514   3.360  0.00  0.00    -0.050 Br
ENDBRANCH   1   2
BRANCH   1  10
ATOM      9  C   UNL     1      -0.418   0.884  -0.604  0.00  0.00    -0.100 C 
ATOM     10  N   UNL     1      -0.278  -0.525  -0.211  0.00  0.00    +0.382 N 
ATOM     11  H   UNL     1      -1.193  -0.931  -0.083  0.00  0.00    -0.085 HD
ATOM     12  H   UNL     1       0.215  -1.028  -0.933  0.00  0.00    -0.085 HD
ENDBRANCH   1  10
BRANCH   1  13
ATOM     13  C   UNL     1       0.739  -2.079   1.386  0.00  0.00    +0.026 C 
BRANCH  13  14
ATOM     14  C   UNL     1       1.667  -2.672   0.358  0.00  0.00    -0.018 A 
ATOM     15  C   UNL     1       2.242  -1.862  -0.604  0.00  0.00    +0.006 A 
ATOM     16  C   UNL     1       3.093  -2.406  -1.547  0.00  0.00    +0.000 A 
ATOM     17  C   UNL     1       3.371  -3.760  -1.528  0.00  0.00    +0.002 A 
ATOM     18  C   UNL     1       2.797  -4.570  -0.565  0.00  0.00    +0.033 A 
ATOM     19  C   UNL     1       1.949  -4.025   0.380  0.00  0.00    +0.129 A 
BRANCH  19  20
ATOM     20  N   UNL     1       1.338  -4.891   1.414  0.00  0.00    +0.057 N 
ATOM     21  O   UNL     1       1.655  -6.055   1.491  0.00  0.00    -0.126 OA
ATOM     22  O   UNL     1       0.523  -4.434   2.181  0.00  0.00    -0.126 OA
ENDBRANCH  19  20
ENDBRANCH  13  14
ENDBRANCH   1  13
TORSDOF 5
