REMARK  Name = ZINC39886755
REMARK  1 active torsions:
REMARK  status: ('A' for Active; 'I' for Inactive)
REMARK    1  A    between atoms: C_6  and  C_7
REMARK                            x       y       z     vdW  Elec       q    Type
REMARK                         _______ _______ _______ _____ _____    ______ ____
ROOT
ATOM      1  C   UNL     1      -1.293  -0.775   0.010  0.00  0.00    +0.072 C 
ATOM      2  C   UNL     1      -1.372  -1.642  -1.210  0.00  0.00    +0.032 A 
ATOM      3  C   UNL     1      -1.828  -2.924  -1.339  0.00  0.00    +0.110 A 
ATOM      4  N   UNL     1      -1.739  -3.430  -2.568  0.00  0.00    -0.225 NA
ATOM      5  C   UNL     1      -1.265  -2.729  -3.575  0.00  0.00    +0.147 A 
ATOM      6  S   UNL     1      -1.074  -3.220  -5.256  0.00  0.00    -0.023 SA
ATOM      7  S   UNL     1      -0.882  -1.248  -2.869  0.00  0.00    -0.063 S 
ATOM      8  S   UNL     1      -2.498  -3.802   0.065  0.00  0.00    -0.091 S 
ATOM      9  C   UNL     1      -2.705  -2.429   1.229  0.00  0.00    +0.152 C 
ATOM     10  C   UNL     1      -1.349  -1.661   1.231  0.00  0.00    +0.110 C 
ATOM     11  C   UNL     1      -1.394  -1.029   2.586  0.00  0.00    +0.235 C 
ATOM     12  O   UNL     1      -0.890   0.019   2.916  0.00  0.00    -0.274 OA
ATOM     13  N   UNL     1      -2.115  -1.871   3.372  0.00  0.00    -0.162 N 
ATOM     14  C   UNL     1      -2.797  -2.838   2.673  0.00  0.00    +0.244 C 
ATOM     15  O   UNL     1      -3.347  -3.819   3.115  0.00  0.00    -0.273 OA
ATOM     16  C   UNL     1      -2.172  -1.761   4.714  0.00  0.00    +0.313 C 
ATOM     17  O   UNL     1      -1.561  -0.875   5.277  0.00  0.00    -0.252 OA
ATOM     18  N   UNL     1      -2.909  -2.633   5.430  0.00  0.00    -0.313 N 
ATOM     19  H   UNL     1      -3.397  -3.340   4.980  0.00  0.00    +0.147 HD
ATOM     20  H   UNL     1      -2.950  -2.554   6.396  0.00  0.00    +0.147 HD
ENDROOT
BRANCH   1  26
ATOM     21  C   UNL     1      -0.017   1.378   0.010  0.00  0.00    +0.007 A 
ATOM     22  C   UNL     1       1.170   2.086   0.002  0.00  0.00    +0.038 A 
ATOM     23  C   UNL     1       2.379   1.410  -0.013  0.00  0.00    +0.123 A 
ATOM     24  C   UNL     1       2.396   0.026  -0.021  0.00  0.00    +0.038 A 
ATOM     25  C   UNL     1       1.208  -0.680  -0.013  0.00  0.00    +0.007 A 
ATOM     26  C   UNL     1       0.002  -0.004   0.002  0.00  0.00    -0.038 A 
ATOM     27  F   UNL     1       3.540   2.101  -0.021  0.00  0.00    -0.205 F 
ENDBRANCH   1  26
TORSDOF 1
