REMARK  Name = ZINC09091523
REMARK  9 active torsions:
REMARK  status: ('A' for Active; 'I' for Inactive)
REMARK    1  A    between atoms: C_1  and  C_2
REMARK    2  A    between atoms: C_2  and  C_3
REMARK    3  A    between atoms: C_2  and  C_4
REMARK    4  A    between atoms: C_4  and  N_5
REMARK    5  A    between atoms: C_15  and  S_16
REMARK    6  A    between atoms: S_16  and  C_17
REMARK    7  A    between atoms: C_17  and  C_18
REMARK    8  A    between atoms: C_30  and  C_31
REMARK    9  A    between atoms: C_30  and  C_32
REMARK                            x       y       z     vdW  Elec       q    Type
REMARK                         _______ _______ _______ _____ _____    ______ ____
ROOT
ATOM      1  S   UNL     1       1.632   3.356   1.827  0.00  0.00    -0.078 S 
ENDROOT
BRANCH   1  12
ATOM      2  N   UNL     1       0.348   1.070   2.448  0.00  0.00    -0.287 N 
ATOM      3  C   UNL     1      -0.596   0.312   3.052  0.00  0.00    +0.262 A 
ATOM      4  O   UNL     1      -0.629  -0.895   2.899  0.00  0.00    -0.267 OA
ATOM      5  C   UNL     1      -1.581   0.999   3.898  0.00  0.00    +0.066 A 
ATOM      6  C   UNL     1      -2.592   0.306   4.563  0.00  0.00    +0.035 A 
ATOM      7  C   UNL     1      -3.488   1.003   5.345  0.00  0.00    +0.042 A 
ATOM      8  C   UNL     1      -3.390   2.384   5.473  0.00  0.00    +0.022 A 
ATOM      9  C   UNL     1      -2.407   3.081   4.831  0.00  0.00    +0.030 A 
ATOM     10  C   UNL     1      -1.483   2.403   4.031  0.00  0.00    +0.079 A 
ATOM     11  N   UNL     1      -0.495   3.059   3.379  0.00  0.00    -0.223 NA
ATOM     12  C   UNL     1       0.375   2.423   2.633  0.00  0.00    +0.173 A 
ATOM     13 CL   UNL     1      -4.751   0.148   6.176  0.00  0.00    -0.084 Cl
BRANCH   2  14
ATOM     14  C   UNL     1       1.354   0.433   1.593  0.00  0.00    +0.130 C 
BRANCH  14  16
ATOM     15  C   UNL     1       0.689   1.802  -0.388  0.00  0.00    +0.009 C 
ATOM     16  C   UNL     1       0.839   0.380   0.154  0.00  0.00    +0.003 C 
ATOM     17  C   UNL     1       1.833  -0.395  -0.714  0.00  0.00    +0.009 C 
ENDBRANCH  14  16
ENDBRANCH   2  14
ENDBRANCH   1  12
BRANCH   1  18
ATOM     18  C   UNL     1       1.206   5.019   2.400  0.00  0.00    +0.173 C 
BRANCH  18  19
ATOM     19  C   UNL     1       2.177   6.015   1.819  0.00  0.00    +0.231 C 
ATOM     20  O   UNL     1       2.856   5.712   0.861  0.00  0.00    -0.274 OA
ATOM     21  N   UNL     1       2.291   7.242   2.365  0.00  0.00    -0.255 N 
ATOM     22  C   UNL     1       1.573   7.591   3.520  0.00  0.00    +0.059 A 
ATOM     23  C   UNL     1       0.349   7.011   3.803  0.00  0.00    +0.025 A 
ATOM     24  C   UNL     1      -0.336   7.379   4.947  0.00  0.00    +0.002 A 
ATOM     25  C   UNL     1       0.199   8.322   5.805  0.00  0.00    +0.002 A 
ATOM     26  C   UNL     1       1.423   8.904   5.529  0.00  0.00    +0.025 A 
ATOM     27  C   UNL     1       2.117   8.540   4.386  0.00  0.00    +0.055 A 
ATOM     28  N   UNL     1       3.362   9.109   4.094  0.00  0.00    -0.282 N 
ATOM     29  C   UNL     1       3.908   8.976   2.870  0.00  0.00    +0.241 C 
ATOM     30  O   UNL     1       5.008   9.440   2.652  0.00  0.00    -0.273 OA
ATOM     31  C   UNL     1       3.175   8.257   1.772  0.00  0.00    +0.113 C 
ATOM     32  C   UNL     1       4.184   7.578   0.844  0.00  0.00    +0.042 C 
ATOM     33  C   UNL     1       2.340   9.262   0.977  0.00  0.00    +0.042 C 
ATOM     34  H   UNL     1       3.836   9.604   4.780  0.00  0.00    +0.155 HD
ENDBRANCH  18  19
ENDBRANCH   1  18
TORSDOF 5
