REMARK  Name = ZINC30982866
REMARK  10 active torsions:
REMARK  status: ('A' for Active; 'I' for Inactive)
REMARK    1  A    between atoms: C_1  and  C_2
REMARK    2  A    between atoms: C_2  and  C_3
REMARK    3  A    between atoms: C_2  and  O_4
REMARK    4  A    between atoms: O_4  and  C_5
REMARK    5  A    between atoms: C_9  and  C_11
REMARK    6  A    between atoms: C_11  and  N_12
REMARK    7  A    between atoms: C_13  and  C_15
REMARK    8  A    between atoms: N_18  and  C_21
REMARK    9  A    between atoms: C_21  and  C_22
REMARK   10  A    between atoms: C_24  and  C_27
REMARK                            x       y       z     vdW  Elec       q    Type
REMARK                         _______ _______ _______ _____ _____    ______ ____
ROOT
ATOM      1  C   UNL     1      -0.363   8.090  -2.133  0.00  0.00    +0.071 C 
ATOM      2  C   UNL     1       0.811   7.734  -3.049  0.00  0.00    -0.006 C 
ATOM      3  C   UNL     1       0.688   8.519  -4.357  0.00  0.00    -0.077 C 
ATOM      4  N   UNL     1       0.689   9.959  -4.066  0.00  0.00    +0.386 N 
ATOM      5  C   UNL     1      -0.456  10.332  -3.226  0.00  0.00    -0.077 C 
ATOM      6  C   UNL     1      -0.366   9.601  -1.885  0.00  0.00    -0.006 C 
ATOM      7  H   UNL     1       1.606  10.186  -3.503  0.00  0.00    -0.081 HD
ENDROOT
BRANCH   1   9
ATOM      8  N   UNL     1      -0.186   6.017  -0.793  0.00  0.00    -0.311 N 
ATOM      9  C   UNL     1      -0.214   7.365  -0.820  0.00  0.00    +0.216 C 
ATOM     10  O   UNL     1      -0.121   7.993   0.213  0.00  0.00    -0.276 OA
ATOM     11  H   UNL     1      -0.270   5.447  -1.730  0.00  0.00    +0.149 HD
BRANCH   8  12
ATOM     12  C   UNL     1      -0.042   5.313   0.483  0.00  0.00    +0.139 C 
BRANCH  12  17
ATOM     13  C   UNL     1      -1.223   1.754   0.016  0.00  0.00    +0.121 A 
ATOM     14  C   UNL     1      -0.024   1.094  -0.213  0.00  0.00    +0.045 A 
ATOM     15  C   UNL     1       1.162   1.803  -0.221  0.00  0.00    +0.004 A 
ATOM     16  C   UNL     1       1.155   3.167   0.004  0.00  0.00    +0.005 A 
ATOM     17  C   UNL     1      -0.038   3.826   0.238  0.00  0.00    -0.027 A 
ATOM     18  C   UNL     1      -1.227   3.122   0.247  0.00  0.00    +0.050 A 
BRANCH  13  19
ATOM     19  O   UNL     1      -2.392   1.060   0.019  0.00  0.00    -0.489 OA
BRANCH  19  21
ATOM     20  C   UNL     1      -3.544  -1.004   0.522  0.00  0.00    +0.051 C 
ATOM     21  C   UNL     1      -2.303  -0.361  -0.100  0.00  0.00    +0.167 C 
ATOM     22  C   UNL     1      -2.216  -0.745  -1.579  0.00  0.00    +0.051 C 
ENDBRANCH  19  21
ENDBRANCH  13  19
ENDBRANCH  12  17
ENDBRANCH   8  12
ENDBRANCH   1   9
BRANCH   4  23
ATOM     23  C   UNL     1       0.712  10.746  -5.306  0.00  0.00    +0.022 C 
BRANCH  23  24
ATOM     24  C   UNL     1       2.018  10.518  -6.023  0.00  0.00    +0.211 A 
ATOM     25  N   UNL     1       2.264   9.590  -6.914  0.00  0.00    -0.193 NA
ATOM     26  C   UNL     1       3.554   9.769  -7.277  0.00  0.00    +0.202 A 
ATOM     27  N   UNL     1       4.011  10.785  -6.592  0.00  0.00    -0.056 NA
ATOM     28  O   UNL     1       3.140  11.227  -5.872  0.00  0.00    -0.340 OA
BRANCH  26  29
ATOM     29  C   UNL     1       4.311   8.964  -8.268  0.00  0.00    +0.023 A 
ATOM     30  C   UNL     1       3.692   7.899  -8.921  0.00  0.00    +0.014 A 
ATOM     31  C   UNL     1       4.398   7.156  -9.844  0.00  0.00    +0.039 A 
ATOM     32  C   UNL     1       5.723   7.460 -10.115  0.00  0.00    +0.123 A 
ATOM     33  C   UNL     1       6.343   8.514  -9.464  0.00  0.00    +0.039 A 
ATOM     34  C   UNL     1       5.643   9.266  -8.543  0.00  0.00    +0.014 A 
ATOM     35  F   UNL     1       6.411   6.726 -11.017  0.00  0.00    -0.205 F 
ENDBRANCH  26  29
ENDBRANCH  23  24
ENDBRANCH   4  23
TORSDOF 8
