REMARK  Name = ZINC06258347
REMARK  6 active torsions:
REMARK  status: ('A' for Active; 'I' for Inactive)
REMARK    1  A    between atoms: C_5  and  O_27
REMARK    2  A    between atoms: C_7  and  C_25
REMARK    3  A    between atoms: C_10  and  C_11
REMARK    4  A    between atoms: C_11  and  C_12
REMARK    5  A    between atoms: C_17  and  O_24
REMARK    6  A    between atoms: C_19  and  C_22
REMARK                            x       y       z     vdW  Elec       q    Type
REMARK                         _______ _______ _______ _____ _____    ______ ____
ROOT
ATOM      1  C   UNL     1       6.144   3.005   0.411  0.00  0.00    +0.070 C 
ENDROOT
BRANCH   1  11
ATOM      2  C   UNL     1       7.242   3.666   2.564  0.00  0.00    +0.004 A 
ATOM      3  C   UNL     1       7.558   3.460   3.872  0.00  0.00    +0.009 A 
ATOM      4  C   UNL     1       7.120   2.290   4.517  0.00  0.00    -0.014 A 
ATOM      5  C   UNL     1       7.432   2.040   5.864  0.00  0.00    +0.054 A 
ATOM      6  C   UNL     1       6.996   0.890   6.480  0.00  0.00    +0.118 A 
ATOM      7  C   UNL     1       6.236  -0.059   5.799  0.00  0.00    +0.061 A 
ATOM      8  C   UNL     1       5.897   0.133   4.467  0.00  0.00    +0.074 A 
ATOM      9  C   UNL     1       6.350   1.347   3.793  0.00  0.00    -0.003 A 
ATOM     10  C   UNL     1       6.038   1.595   2.450  0.00  0.00    +0.013 A 
ATOM     11  C   UNL     1       6.480   2.740   1.856  0.00  0.00    -0.042 A 
BRANCH   8  12
ATOM     12  C   UNL     1       5.094  -0.871   3.746  0.00  0.00    +0.387 C 
ATOM     13  O   UNL     1       4.891  -0.744   2.554  0.00  0.00    -0.241 OA
ATOM     14  O   UNL     1       4.585  -1.929   4.408  0.00  0.00    -0.241 OA
ENDBRANCH   8  12
BRANCH   6  15
ATOM     15  O   UNL     1       7.313   0.675   7.784  0.00  0.00    -0.507 OA
ATOM     16  H   UNL     1       8.145   0.199   7.913  0.00  0.00    +0.292 HD
ENDBRANCH   6  15
ENDBRANCH   1  11
BRANCH   1  17
ATOM     17  C   UNL     1       4.841   3.759   0.328  0.00  0.00    -0.042 A 
ATOM     18  C   UNL     1       4.852   5.151   0.342  0.00  0.00    +0.004 A 
ATOM     19  C   UNL     1       3.693   5.862   0.269  0.00  0.00    +0.009 A 
ATOM     20  C   UNL     1       2.466   5.183   0.179  0.00  0.00    -0.014 A 
ATOM     21  C   UNL     1       1.250   5.883   0.102  0.00  0.00    +0.054 A 
ATOM     22  C   UNL     1       0.058   5.203   0.014  0.00  0.00    +0.118 A 
ATOM     23  C   UNL     1       0.011   3.810  -0.003  0.00  0.00    +0.061 A 
ATOM     24  C   UNL     1       1.179   3.065   0.070  0.00  0.00    +0.074 A 
ATOM     25  C   UNL     1       2.458   3.767   0.171  0.00  0.00    -0.003 A 
ATOM     26  C   UNL     1       3.669   3.068   0.242  0.00  0.00    +0.013 A 
BRANCH  24  27
ATOM     27  C   UNL     1       1.132   1.592   0.053  0.00  0.00    +0.387 C 
ATOM     28  O   UNL     1       2.163   0.951   0.011  0.00  0.00    -0.241 OA
ATOM     29  O   UNL     1      -0.056   0.956   0.083  0.00  0.00    -0.241 OA
ENDBRANCH  24  27
BRANCH  22  30
ATOM     30  O   UNL     1      -1.103   5.907  -0.059  0.00  0.00    -0.507 OA
ATOM     31  H   UNL     1      -1.499   6.102   0.801  0.00  0.00    +0.292 HD
ENDBRANCH  22  30
ENDBRANCH   1  17
TORSDOF 6
