REMARK  Name = ZINC00666868
REMARK  11 active torsions:
REMARK  status: ('A' for Active; 'I' for Inactive)
REMARK    1  A    between atoms: C_1  and  C_2
REMARK    2  A    between atoms: C_3  and  C_30
REMARK    3  A    between atoms: C_4  and  C_21
REMARK    4  A    between atoms: C_10  and  C_15
REMARK    5  A    between atoms: C_24  and  O_29
REMARK    6  A    between atoms: C_25  and  O_27
REMARK    7  A    between atoms: O_27  and  C_28
REMARK    8  A    between atoms: C_30  and  O_32
REMARK    9  A    between atoms: O_32  and  C_33
REMARK   10  A    between atoms: C_33  and  C_34
REMARK   11  A    between atoms: C_34  and  C_35
REMARK                            x       y       z     vdW  Elec       q    Type
REMARK                         _______ _______ _______ _____ _____    ______ ____
ROOT
ATOM      1  C   UNL     1       3.806  -3.580  -2.543  0.00  0.00    +0.061 C 
ATOM      2  C   UNL     1       3.163  -3.115  -1.262  0.00  0.00    +0.016 C 
ATOM      3  C   UNL     1       1.897  -2.663  -1.276  0.00  0.00    +0.065 C 
ATOM      4  C   UNL     1       1.227  -2.186  -0.021  0.00  0.00    +0.092 C 
ATOM      5  C   UNL     1       1.957  -2.679   1.203  0.00  0.00    +0.024 C 
ATOM      6  C   UNL     1       3.227  -3.127   1.114  0.00  0.00    +0.016 C 
ATOM      7  N   UNL     1       3.871  -3.155  -0.094  0.00  0.00    -0.321 N 
ATOM      8  C   UNL     1       3.968  -3.610   2.336  0.00  0.00    +0.059 C 
ATOM      9  C   UNL     1       2.976  -4.216   3.332  0.00  0.00    +0.032 C 
ATOM     10  C   UNL     1       1.938  -3.149   3.694  0.00  0.00    +0.088 C 
ATOM     11  C   UNL     1       1.279  -2.659   2.434  0.00  0.00    +0.162 C 
ATOM     12  O   UNL     1       0.139  -2.240   2.481  0.00  0.00    -0.292 OA
ATOM     13  H   UNL     1       4.970  -3.210  -0.118  0.00  0.00    +0.152 HD
ENDROOT
BRANCH   9  14
ATOM     14  C   UNL     1       3.709  -4.653   4.574  0.00  0.00    -0.044 A 
ATOM     15  C   UNL     1       4.430  -3.732   5.311  0.00  0.00    +0.004 A 
ATOM     16  C   UNL     1       5.099  -4.132   6.453  0.00  0.00    +0.000 A 
ATOM     17  C   UNL     1       5.053  -5.455   6.853  0.00  0.00    +0.000 A 
ATOM     18  C   UNL     1       4.336  -6.376   6.113  0.00  0.00    +0.000 A 
ATOM     19  C   UNL     1       3.664  -5.976   4.974  0.00  0.00    +0.004 A 
ENDBRANCH   9  14
BRANCH   4  20
ATOM     20  C   UNL     1       1.208  -0.679  -0.013  0.00  0.00    -0.032 A 
ATOM     21  C   UNL     1       2.398   0.026  -0.020  0.00  0.00    +0.008 A 
ATOM     22  C   UNL     1       2.386   1.408  -0.013  0.00  0.00    +0.049 A 
ATOM     23  C   UNL     1       1.181   2.091   0.002  0.00  0.00    +0.158 A 
ATOM     24  C   UNL     1      -0.017   1.381   0.010  0.00  0.00    +0.162 A 
ATOM     25  C   UNL     1       0.002  -0.004   0.002  0.00  0.00    +0.054 A 
BRANCH  24  26
ATOM     26  O   UNL     1      -1.203   2.047   0.019  0.00  0.00    -0.491 OA
ATOM     27  C   UNL     1      -2.392   1.254   0.020  0.00  0.00    +0.277 C 
ENDBRANCH  24  26
BRANCH  23  28
ATOM     28  O   UNL     1       1.167   3.450   0.009  0.00  0.00    -0.503 OA
ATOM     29  H   UNL     1       0.209   3.991   0.021  0.00  0.00    +0.292 HD
ENDBRANCH  23  28
ENDBRANCH   4  20
BRANCH   3  30
ATOM     30  C   UNL     1       1.183  -2.638  -2.497  0.00  0.00    +0.338 C 
ATOM     31  O   UNL     1       1.715  -3.023  -3.521  0.00  0.00    -0.245 OA
BRANCH  30  32
ATOM     32  O   UNL     1      -0.089  -2.188  -2.525  0.00  0.00    -0.461 OA
BRANCH  32  33
ATOM     33  C   UNL     1      -0.750  -2.191  -3.792  0.00  0.00    +0.237 C 
BRANCH  33  34
ATOM     34  C   UNL     1      -2.172  -1.649  -3.627  0.00  0.00    +0.076 C 
BRANCH  34  35
ATOM     35  C   UNL     1      -2.869  -1.652  -4.963  0.00  0.00    -0.044 A 
ATOM     36  C   UNL     1      -2.796  -0.542  -5.783  0.00  0.00    +0.004 A 
ATOM     37  C   UNL     1      -3.432  -0.546  -7.010  0.00  0.00    +0.000 A 
ATOM     38  C   UNL     1      -4.148  -1.658  -7.414  0.00  0.00    +0.000 A 
ATOM     39  C   UNL     1      -4.226  -2.766  -6.591  0.00  0.00    +0.000 A 
ATOM     40  C   UNL     1      -3.587  -2.763  -5.365  0.00  0.00    +0.004 A 
ENDBRANCH  34  35
ENDBRANCH  33  34
ENDBRANCH  32  33
ENDBRANCH  30  32
ENDBRANCH   3  30
TORSDOF 9
