REMARK  Name = ZINC36297769
REMARK  6 active torsions:
REMARK  status: ('A' for Active; 'I' for Inactive)
REMARK    1  A    between atoms: C_4  and  C_7
REMARK    2  A    between atoms: C_7  and  C_9
REMARK    3  A    between atoms: C_7  and  N_22
REMARK    4  A    between atoms: C_9  and  N_10
REMARK    5  A    between atoms: N_10  and  S_11
REMARK    6  A    between atoms: S_11  and  C_14
REMARK                            x       y       z     vdW  Elec       q    Type
REMARK                         _______ _______ _______ _____ _____    ______ ____
ROOT
ATOM      1  N   UNL     1       5.265  -1.998   1.341  0.00  0.00    -0.191 NA
ATOM      2  H   UNL     1       5.595  -2.340   0.495  0.00  0.00    +0.148 HD
ENDROOT
BRANCH   1   3
ATOM      3  S   UNL     1       6.076  -2.338   2.744  0.00  0.00    +0.060 S 
ATOM      4  O   UNL     1       7.179  -3.159   2.387  0.00  0.00    -0.153 OA
ATOM      5  O   UNL     1       6.234  -1.104   3.431  0.00  0.00    -0.153 OA
BRANCH   3   6
ATOM      6  C   UNL     1       5.009  -3.332   3.735  0.00  0.00    +0.125 A 
ATOM      7  C   UNL     1       5.360  -4.635   4.034  0.00  0.00    +0.030 A 
ATOM      8  C   UNL     1       4.524  -5.416   4.810  0.00  0.00    +0.003 A 
ATOM      9  C   UNL     1       3.336  -4.894   5.288  0.00  0.00    +0.021 A 
ATOM     10  C   UNL     1       2.984  -3.590   4.990  0.00  0.00    +0.061 A 
ATOM     11  C   UNL     1       3.825  -2.806   4.217  0.00  0.00    +0.085 A 
ATOM     12 CL   UNL     1       3.388  -1.167   3.848  0.00  0.00    -0.080 Cl
ATOM     13 CL   UNL     1       1.493  -2.934   5.590  0.00  0.00    -0.082 Cl
ENDBRANCH   3   6
ENDBRANCH   1   3
BRANCH   1  14
ATOM     14  C   UNL     1       4.049  -1.182   1.377  0.00  0.00    +0.094 C 
BRANCH  14  15
ATOM     15  C   UNL     1       3.711  -0.707  -0.038  0.00  0.00    -0.029 C 
BRANCH  15  19
ATOM     16  C   UNL     1      -0.017   1.378   0.010  0.00  0.00    +0.000 A 
ATOM     17  C   UNL     1       1.171   2.086   0.002  0.00  0.00    +0.000 A 
ATOM     18  C   UNL     1       2.377   1.411  -0.013  0.00  0.00    +0.002 A 
ATOM     19  C   UNL     1       2.396   0.029  -0.020  0.00  0.00    -0.061 A 
ATOM     20  C   UNL     1       1.208  -0.679  -0.012  0.00  0.00    +0.002 A 
ATOM     21  C   UNL     1       0.002  -0.004   0.002  0.00  0.00    +0.000 A 
ENDBRANCH  15  19
BRANCH  15  22
ATOM     22  N   UNL     1       3.611  -1.868  -0.933  0.00  0.00    +0.383 N 
ATOM     23  H   UNL     1       4.492  -2.360  -0.944  0.00  0.00    -0.089 HD
ATOM     24  H   UNL     1       2.885  -2.485  -0.603  0.00  0.00    -0.089 HD
ATOM     25  H   UNL     1       3.389  -1.555  -1.866  0.00  0.00    -0.089 HD
ENDBRANCH  15  22
ENDBRANCH  14  15
ENDBRANCH   1  14
TORSDOF 6
