REMARK  Name = ZINC59391895
REMARK  12 active torsions:
REMARK  status: ('A' for Active; 'I' for Inactive)
REMARK    1  A    between atoms: C_1  and  C_2
REMARK    2  A    between atoms: C_2  and  O_3
REMARK    3  A    between atoms: O_3  and  C_4
REMARK    4  A    between atoms: C_4  and  C_6
REMARK    5  A    between atoms: C_7  and  C_31
REMARK    6  A    between atoms: C_11  and  C_13
REMARK    7  A    between atoms: C_14  and  O_22
REMARK    8  A    between atoms: C_17  and  O_20
REMARK    9  A    between atoms: O_20  and  C_21
REMARK   10  A    between atoms: O_22  and  C_23
REMARK   11  A    between atoms: C_27  and  C_29
REMARK   12  A    between atoms: C_27  and  C_30
REMARK                            x       y       z     vdW  Elec       q    Type
REMARK                         _______ _______ _______ _____ _____    ______ ____
ROOT
ATOM      1  C   UNL     1       1.606  -2.472   2.478  0.00  0.00    +0.065 C 
ATOM      2  C   UNL     1       1.489  -3.750   2.879  0.00  0.00    +0.016 C 
ATOM      3  N   UNL     1       2.066  -4.165   4.046  0.00  0.00    -0.321 N 
ATOM      4  C   UNL     1       3.078  -3.443   4.620  0.00  0.00    +0.016 C 
ATOM      5  C   UNL     1       3.263  -2.146   4.294  0.00  0.00    +0.024 C 
ATOM      6  C   UNL     1       2.365  -1.467   3.294  0.00  0.00    +0.097 C 
ATOM      7  C   UNL     1       4.296  -1.392   4.878  0.00  0.00    +0.162 C 
ATOM      8  O   UNL     1       4.446  -0.232   4.551  0.00  0.00    -0.292 OA
ATOM      9  C   UNL     1       5.220  -1.997   5.900  0.00  0.00    +0.086 C 
ATOM     10  C   UNL     1       4.479  -3.113   6.643  0.00  0.00    -0.023 C 
ATOM     11  C   UNL     1       3.979  -4.131   5.615  0.00  0.00    +0.058 C 
ATOM     12  C   UNL     1       3.290  -2.524   7.404  0.00  0.00    +0.011 C 
ATOM     13  C   UNL     1       5.433  -3.799   7.623  0.00  0.00    +0.011 C 
ATOM     14  C   UNL     1       0.716  -4.731   2.036  0.00  0.00    +0.061 C 
ATOM     15  H   UNL     1       1.755  -4.979   4.473  0.00  0.00    +0.152 HD
ENDROOT
BRANCH   6  16
ATOM     16  C   UNL     1       1.388  -0.588   4.030  0.00  0.00    +0.024 A 
ATOM     17  C   UNL     1       0.478  -1.150   4.913  0.00  0.00    +0.125 A 
ATOM     18  C   UNL     1      -0.422  -0.341   5.591  0.00  0.00    +0.049 A 
ATOM     19  C   UNL     1      -0.411   1.026   5.388  0.00  0.00    +0.050 A 
ATOM     20  C   UNL     1       0.499   1.589   4.506  0.00  0.00    +0.135 A 
ATOM     21  C   UNL     1       1.403   0.780   3.831  0.00  0.00    +0.067 A 
ATOM     22 BR   UNL     1       2.648   1.547   2.633  0.00  0.00    -0.046 Br
BRANCH  20  23
ATOM     23  O   UNL     1       0.509   2.934   4.305  0.00  0.00    -0.494 OA
ATOM     24  C   UNL     1      -0.446   3.706   5.037  0.00  0.00    +0.277 C 
ENDBRANCH  20  23
BRANCH  17  25
ATOM     25  O   UNL     1       0.467  -2.495   5.113  0.00  0.00    -0.495 OA
ATOM     26  C   UNL     1      -0.498  -3.006   6.036  0.00  0.00    +0.277 C 
ENDBRANCH  17  25
ENDBRANCH   6  16
BRANCH   1  27
ATOM     27  C   UNL     1       1.007  -2.069   1.262  0.00  0.00    +0.338 C 
ATOM     28  O   UNL     1       0.499  -2.897   0.530  0.00  0.00    -0.245 OA
BRANCH  27  29
ATOM     29  O   UNL     1       0.999  -0.765   0.914  0.00  0.00    -0.462 OA
BRANCH  29  31
ATOM     30  C   UNL     1       0.465   1.082  -0.550  0.00  0.00    +0.048 C 
ATOM     31  C   UNL     1       0.376  -0.429  -0.328  0.00  0.00    +0.229 C 
ENDBRANCH  29  31
ENDBRANCH  27  29
ENDBRANCH   1  27
TORSDOF 6
