REMARK  Name = ZINC11012841
REMARK  9 active torsions:
REMARK  status: ('A' for Active; 'I' for Inactive)
REMARK    1  A    between atoms: C_1  and  N_57
REMARK    2  A    between atoms: C_2  and  C_3
REMARK    3  A    between atoms: C_2  and  N_57
REMARK    4  A    between atoms: C_5  and  N_10
REMARK    5  A    between atoms: C_13  and  C_14
REMARK    6  A    between atoms: C_13  and  N_57
REMARK    7  A    between atoms: N_19  and  S_22
REMARK    8  A    between atoms: S_22  and  C_25
REMARK    9  A    between atoms: C_25  and  C_26
REMARK                            x       y       z     vdW  Elec       q    Type
REMARK                         _______ _______ _______ _____ _____    ______ ____
ROOT
ATOM      1  C   UNL     1      -0.723   1.951   1.250  0.00  0.00    +0.199 C 
ATOM      2  O   UNL     1      -1.166   1.152   2.048  0.00  0.00    -0.278 OA
ATOM      3  N   UNL     1      -0.862   3.273   1.472  0.00  0.00    -0.300 N 
ATOM      4  C   UNL     1      -0.326   4.252   0.516  0.00  0.00    +0.125 C 
ATOM      5  C   UNL     1      -1.469   5.186   0.085  0.00  0.00    +0.128 C 
ATOM      6  N   UNL     1      -2.155   5.675   1.289  0.00  0.00    -0.178 NA
ATOM      7  C   UNL     1      -2.686   4.695   2.248  0.00  0.00    +0.128 C 
ATOM      8  C   UNL     1      -1.548   3.761   2.676  0.00  0.00    +0.125 C 
ENDROOT
BRANCH   6   9
ATOM      9  S   UNL     1      -2.325   7.299   1.562  0.00  0.00    +0.036 S 
ATOM     10  O   UNL     1      -2.293   7.889   0.269  0.00  0.00    -0.158 OA
ATOM     11  O   UNL     1      -3.482   7.410   2.380  0.00  0.00    -0.158 OA
BRANCH   9  12
ATOM     12  C   UNL     1      -0.847   7.772   2.501  0.00  0.00    +0.220 C 
BRANCH  12  13
ATOM     13  C   UNL     1      -0.898   9.247   2.808  0.00  0.00    -0.025 A 
ATOM     14  C   UNL     1      -0.340  10.155   1.927  0.00  0.00    +0.005 A 
ATOM     15  C   UNL     1      -0.390  11.508   2.206  0.00  0.00    +0.000 A 
ATOM     16  C   UNL     1      -0.989  11.952   3.370  0.00  0.00    +0.000 A 
ATOM     17  C   UNL     1      -1.542  11.044   4.253  0.00  0.00    +0.000 A 
ATOM     18  C   UNL     1      -1.497   9.691   3.971  0.00  0.00    +0.005 A 
ENDBRANCH  12  13
ENDBRANCH   9  12
ENDBRANCH   6   9
BRANCH   1  19
ATOM     19  C   UNL     1      -0.018   1.465   0.010  0.00  0.00    +0.019 C 
BRANCH  19  21
ATOM     20  C   UNL     1      -1.356  -0.548  -0.132  0.00  0.00    -0.095 C 
ATOM     21  N   UNL     1       0.013  -0.013   0.027  0.00  0.00    +0.386 N 
ATOM     22  H   UNL     1       0.391  -0.328   0.928  0.00  0.00    -0.081 HD
BRANCH  21  23
ATOM     23  C   UNL     1       0.881  -0.513  -1.060  0.00  0.00    -0.041 C 
BRANCH  23  24
ATOM     24  C   UNL     1       1.071  -1.998  -0.886  0.00  0.00    -0.043 A 
ATOM     25  C   UNL     1       0.414  -2.881  -1.722  0.00  0.00    +0.036 A 
ATOM     26  C   UNL     1       0.592  -4.243  -1.566  0.00  0.00    +0.126 A 
ATOM     27  C   UNL     1       1.419  -4.723  -0.568  0.00  0.00    +0.034 A 
ATOM     28  C   UNL     1       2.072  -3.841   0.272  0.00  0.00    +0.022 A 
ATOM     29  C   UNL     1       1.898  -2.477   0.114  0.00  0.00    +0.042 A 
ATOM     30 CL   UNL     1       2.718  -1.368   1.168  0.00  0.00    -0.083 Cl
BRANCH  26  31
ATOM     31  N   UNL     1      -0.108  -5.188  -2.465  0.00  0.00    +0.056 N 
ATOM     32  O   UNL     1       0.045  -6.388  -2.325  0.00  0.00    -0.126 OA
ATOM     33  O   UNL     1      -0.836  -4.766  -3.345  0.00  0.00    -0.126 OA
ENDBRANCH  26  31
ENDBRANCH  23  24
ENDBRANCH  21  23
ENDBRANCH  19  21
ENDBRANCH   1  19
TORSDOF 8
