REMARK  Name = ZINC13639682
REMARK  3 active torsions:
REMARK  status: ('A' for Active; 'I' for Inactive)
REMARK    1  A    between atoms: C_3  and  C_9
REMARK    2  A    between atoms: C_4  and  O_8
REMARK    3  A    between atoms: C_6  and  O_7
REMARK                            x       y       z     vdW  Elec       q    Type
REMARK                         _______ _______ _______ _____ _____    ______ ____
ROOT
ATOM      1  C   UNL     1       3.568   1.744   0.423  0.00  0.00    +0.108 C 
ATOM      2  C   UNL     1       4.333   2.866  -0.286  0.00  0.00    +0.029 C 
ATOM      3  C   UNL     1       5.641   3.117   0.522  0.00  0.00    +0.033 C 
ATOM      4  C   UNL     1       5.186   4.021   1.652  0.00  0.00    -0.030 C 
ATOM      5  C   UNL     1       4.070   4.630   1.332  0.00  0.00    -0.023 C 
ATOM      6  C   UNL     1       3.626   4.214  -0.050  0.00  0.00    +0.049 C 
ATOM      7  C   UNL     1       2.136   4.115  -0.138  0.00  0.00    -0.018 A 
ATOM      8  C   UNL     1       1.392   5.285  -0.198  0.00  0.00    +0.020 A 
ATOM      9  C   UNL     1       0.015   5.238  -0.284  0.00  0.00    +0.014 A 
ATOM     10  C   UNL     1      -0.640   4.020  -0.318  0.00  0.00    +0.016 A 
ATOM     11  C   UNL     1       0.088   2.849  -0.252  0.00  0.00    +0.024 A 
ATOM     12  C   UNL     1       1.474   2.897  -0.164  0.00  0.00    +0.031 A 
ATOM     13  N   UNL     1       2.198   1.701  -0.098  0.00  0.00    -0.336 N 
ATOM     14  I   UNL     1      -1.086   7.018  -0.373  0.00  0.00    -0.044 I 
ATOM     15  H   UNL     1       1.804   0.865  -0.390  0.00  0.00    +0.147 HD
ENDROOT
BRANCH   1  18
ATOM     16  C   UNL     1       2.530   3.086   3.795  0.00  0.00    +0.046 A 
ATOM     17  C   UNL     1       2.562   2.837   2.436  0.00  0.00    +0.012 A 
ATOM     18  C   UNL     1       3.537   2.014   1.905  0.00  0.00    +0.015 A 
ATOM     19  C   UNL     1       4.482   1.431   2.736  0.00  0.00    +0.125 A 
ATOM     20  C   UNL     1       4.456   1.684   4.099  0.00  0.00    +0.091 A 
ATOM     21  C   UNL     1       3.477   2.510   4.630  0.00  0.00    +0.120 A 
BRANCH  21  22
ATOM     22  O   UNL     1       3.446   2.756   5.966  0.00  0.00    -0.507 OA
ATOM     23  H   UNL     1       2.909   2.129   6.469  0.00  0.00    +0.292 HD
ENDBRANCH  21  22
BRANCH  19  24
ATOM     24  O   UNL     1       5.437   0.617   2.214  0.00  0.00    -0.506 OA
ATOM     25  H   UNL     1       6.279   1.059   2.039  0.00  0.00    +0.292 HD
ENDBRANCH  19  24
ENDBRANCH   1  18
TORSDOF 3
