REMARK  Name = ZINC08815609
REMARK  9 active torsions:
REMARK  status: ('A' for Active; 'I' for Inactive)
REMARK    1  A    between atoms: C_1  and  C_2
REMARK    2  A    between atoms: C_2  and  O_3
REMARK    3  A    between atoms: O_3  and  C_4
REMARK    4  A    between atoms: C_9  and  O_10
REMARK    5  A    between atoms: O_10  and  C_11
REMARK    6  A    between atoms: C_11  and  C_12
REMARK    7  A    between atoms: C_18  and  C_21
REMARK    8  A    between atoms: C_24  and  O_27
REMARK    9  A    between atoms: O_27  and  C_28
REMARK                            x       y       z     vdW  Elec       q    Type
REMARK                         _______ _______ _______ _____ _____    ______ ____
ROOT
ATOM      1  C   UNL     1       0.802  -1.826   1.306  0.00  0.00    +0.162 A 
ATOM      2  C   UNL     1       0.253  -2.669   0.352  0.00  0.00    +0.053 A 
ATOM      3  C   UNL     1       0.363  -4.037   0.500  0.00  0.00    -0.037 A 
ATOM      4  C   UNL     1       1.065  -4.557   1.583  0.00  0.00    +0.051 A 
ATOM      5  C   UNL     1       1.595  -3.726   2.549  0.00  0.00    +0.075 A 
ATOM      6  C   UNL     1       1.469  -2.351   2.409  0.00  0.00    +0.164 A 
ATOM      7  N   UNL     1       1.263  -5.950   1.601  0.00  0.00    -0.321 N 
ATOM      8  C   UNL     1       1.141  -6.838   2.614  0.00  0.00    +0.091 A 
ATOM      9  C   UNL     1       1.437  -8.065   2.127  0.00  0.00    +0.020 A 
ATOM     10  C   UNL     1       1.754  -7.915   0.760  0.00  0.00    +0.022 A 
ATOM     11  C   UNL     1       1.641  -6.609   0.461  0.00  0.00    +0.014 A 
ATOM     12  C   UNL     1       1.872  -5.930  -0.859  0.00  0.00    +0.008 C 
ATOM     13  C   UNL     1      -0.316  -4.980  -0.446  0.00  0.00    -0.043 C 
ATOM     14  N   UNL     1       0.586  -5.537  -1.474  0.00  0.00    +0.390 N 
ATOM     15  H   UNL     1       0.147  -6.361  -1.902  0.00  0.00    -0.084 HD
ATOM     16  H   UNL     1       0.758  -4.827  -2.196  0.00  0.00    -0.084 HD
ENDROOT
BRANCH  12  17
ATOM     17  C   UNL     1       2.594  -6.875  -1.785  0.00  0.00    -0.056 A 
ATOM     18  C   UNL     1       1.890  -7.864  -2.447  0.00  0.00    +0.006 A 
ATOM     19  C   UNL     1       2.549  -8.728  -3.301  0.00  0.00    +0.046 A 
ATOM     20  C   UNL     1       3.918  -8.609  -3.486  0.00  0.00    +0.130 A 
ATOM     21  C   UNL     1       4.623  -7.619  -2.816  0.00  0.00    +0.046 A 
ATOM     22  C   UNL     1       3.959  -6.754  -1.967  0.00  0.00    +0.006 A 
BRANCH  20  23
ATOM     23  O   UNL     1       4.569  -9.460  -4.321  0.00  0.00    -0.406 OA
BRANCH  23  24
ATOM     24  C   UNL     1       3.780 -10.455  -4.978  0.00  0.00    +0.575 C 
ATOM     25  F   UNL     1       2.803  -9.832  -5.762  0.00  0.00    -0.133 F 
ATOM     26  F   UNL     1       4.603 -11.239  -5.793  0.00  0.00    -0.133 F 
ATOM     27  F   UNL     1       3.163 -11.266  -4.020  0.00  0.00    -0.133 F 
ENDBRANCH  23  24
ENDBRANCH  20  23
ENDBRANCH  12  17
BRANCH   1  28
ATOM     28  O   UNL     1       0.693  -0.477   1.160  0.00  0.00    -0.489 OA
BRANCH  28  30
ATOM     29  C   UNL     1      -0.019   1.526   0.010  0.00  0.00    +0.048 C 
ATOM     30  C   UNL     1       0.002  -0.004   0.002  0.00  0.00    +0.226 C 
ENDBRANCH  28  30
ENDBRANCH   1  28
BRANCH   6  31
ATOM     31  O   UNL     1       1.990  -1.519   3.350  0.00  0.00    -0.489 OA
BRANCH  31  32
ATOM     32  C   UNL     1       2.661  -2.129   4.455  0.00  0.00    +0.226 C 
ATOM     33  C   UNL     1       3.176  -1.042   5.401  0.00  0.00    +0.048 C 
ENDBRANCH  31  32
ENDBRANCH   6  31
TORSDOF 7
