REMARK  Name = ZINC12180663
REMARK  10 active torsions:
REMARK  status: ('A' for Active; 'I' for Inactive)
REMARK    1  A    between atoms: C_1  and  C_2
REMARK    2  A    between atoms: C_2  and  S_3
REMARK    3  A    between atoms: S_3  and  N_6
REMARK    4  A    between atoms: C_13  and  N_16
REMARK    5  A    between atoms: N_16  and  S_17
REMARK    6  A    between atoms: S_17  and  C_20
REMARK    7  A    between atoms: C_22  and  C_29
REMARK    8  A    between atoms: C_23  and  O_27
REMARK    9  A    between atoms: C_24  and  C_26
REMARK   10  A    between atoms: O_27  and  C_28
REMARK                            x       y       z     vdW  Elec       q    Type
REMARK                         _______ _______ _______ _____ _____    ______ ____
ROOT
ATOM      1  N   UNL     1      -1.494  -0.546   0.336  0.00  0.00    -0.207 N 
ATOM      2  C   UNL     1      -1.702  -1.980   0.093  0.00  0.00    +0.131 C 
ATOM      3  C   UNL     1      -0.494  -2.732   0.669  0.00  0.00    +0.025 C 
ATOM      4  C   UNL     1       0.761  -2.305  -0.090  0.00  0.00    +0.038 C 
ATOM      5  C   UNL     1       0.871  -0.803  -0.125  0.00  0.00    -0.025 A 
ATOM      6  C   UNL     1      -0.236   0.009   0.079  0.00  0.00    +0.056 A 
ATOM      7  C   UNL     1      -0.103   1.391   0.035  0.00  0.00    +0.049 A 
ATOM      8  C   UNL     1       1.137   1.961  -0.210  0.00  0.00    +0.050 A 
ATOM      9  C   UNL     1       2.243   1.145  -0.412  0.00  0.00    +0.025 A 
ATOM     10  C   UNL     1       2.107  -0.228  -0.368  0.00  0.00    +0.007 A 
ENDROOT
BRANCH   1  11
ATOM     11  S   UNL     1      -2.730   0.398   0.905  0.00  0.00    +0.045 S 
ATOM     12  O   UNL     1      -3.666  -0.520   1.452  0.00  0.00    -0.155 OA
ATOM     13  O   UNL     1      -2.096   1.364   1.733  0.00  0.00    -0.155 OA
BRANCH  11  15
ATOM     14  C   UNL     1      -4.586   2.103  -0.158  0.00  0.00    +0.030 C 
ATOM     15  C   UNL     1      -3.424   1.196  -0.569  0.00  0.00    +0.185 C 
ENDBRANCH  11  15
ENDBRANCH   1  11
BRANCH   8  16
ATOM     16  N   UNL     1       1.273   3.350  -0.256  0.00  0.00    -0.216 N 
ATOM     17  H   UNL     1       1.244   3.868   0.564  0.00  0.00    +0.174 HD
BRANCH  16  18
ATOM     18  S   UNL     1       1.485   4.114  -1.710  0.00  0.00    +0.072 S 
ATOM     19  O   UNL     1       1.565   5.505  -1.429  0.00  0.00    -0.150 OA
ATOM     20  O   UNL     1       2.518   3.414  -2.390  0.00  0.00    -0.150 OA
BRANCH  18  21
ATOM     21  C   UNL     1       0.012   3.872  -2.645  0.00  0.00    +0.109 A 
ATOM     22  C   UNL     1      -0.064   2.835  -3.556  0.00  0.00    +0.035 A 
ATOM     23  C   UNL     1      -1.220   2.639  -4.287  0.00  0.00    -0.007 A 
ATOM     24  C   UNL     1      -2.301   3.492  -4.114  0.00  0.00    +0.126 A 
ATOM     25  C   UNL     1      -2.220   4.535  -3.204  0.00  0.00    -0.007 A 
ATOM     26  C   UNL     1      -1.064   4.723  -2.471  0.00  0.00    +0.035 A 
ATOM     27  C   UNL     1      -3.392   5.463  -3.014  0.00  0.00    +0.047 C 
ATOM     28  C   UNL     1      -1.305   1.505  -5.276  0.00  0.00    +0.047 C 
BRANCH  24  29
ATOM     29  O   UNL     1      -3.438   3.305  -4.835  0.00  0.00    -0.495 OA
ATOM     30  C   UNL     1      -3.526   3.977  -6.093  0.00  0.00    +0.277 C 
ENDBRANCH  24  29
ENDBRANCH  18  21
ENDBRANCH  16  18
ENDBRANCH   8  16
TORSDOF 6
