REMARK  Name = ZINC33234579
REMARK  10 active torsions:
REMARK  status: ('A' for Active; 'I' for Inactive)
REMARK    1  A    between atoms: C_1  and  C_2
REMARK    2  A    between atoms: C_3  and  C_11
REMARK    3  A    between atoms: C_4  and  C_10
REMARK    4  A    between atoms: C_6  and  S_8
REMARK    5  A    between atoms: S_8  and  C_9
REMARK    6  A    between atoms: C_11  and  C_12
REMARK    7  A    between atoms: C_12  and  C_13
REMARK    8  A    between atoms: N_15  and  N_16
REMARK    9  A    between atoms: C_17  and  C_19
REMARK   10  A    between atoms: N_23  and  C_24
REMARK                            x       y       z     vdW  Elec       q    Type
REMARK                         _______ _______ _______ _____ _____    ______ ____
ROOT
ATOM      1  C   UNL     1       0.946  -0.066   0.539  0.00  0.00    +0.229 C 
ATOM      2  O   UNL     1       0.383  -0.683   1.418  0.00  0.00    -0.274 OA
ATOM      3  N   UNL     1       1.371  -0.707  -0.568  0.00  0.00    -0.234 N 
ATOM      4  H   UNL     1       1.882  -0.148  -1.365  0.00  0.00    +0.173 HD
ENDROOT
BRANCH   3   5
ATOM      5  N   UNL     1       1.163  -2.086  -0.702  0.00  0.00    -0.229 N 
ATOM      6  C   UNL     1       1.589  -2.728  -1.808  0.00  0.00    +0.277 C 
ATOM      7  O   UNL     1       2.061  -2.095  -2.734  0.00  0.00    -0.267 OA
ATOM      8  H   UNL     1       0.653  -2.646   0.096  0.00  0.00    +0.173 HD
BRANCH   6   9
ATOM      9  C   UNL     1       1.483  -4.188  -1.896  0.00  0.00    +0.107 A 
ATOM     10  C   UNL     1       0.892  -5.019  -0.968  0.00  0.00    +0.047 A 
ATOM     11  C   UNL     1       1.013  -6.326  -1.451  0.00  0.00    +0.036 A 
ATOM     12  C   UNL     1       1.671  -6.273  -2.635  0.00  0.00    +0.101 A 
ATOM     13  N   UNL     1       1.962  -4.978  -2.916  0.00  0.00    -0.345 N 
ATOM     14  C   UNL     1       2.668  -4.501  -4.107  0.00  0.00    +0.149 C 
ATOM     15 BR   UNL     1       0.379  -7.891  -0.600  0.00  0.00    -0.049 Br
ENDBRANCH   6   9
ENDBRANCH   3   5
BRANCH   1  16
ATOM     16  C   UNL     1       1.170   1.417   0.683  0.00  0.00    +0.102 C 
BRANCH  16  17
ATOM     17  C   UNL     1       0.596   1.892   2.019  0.00  0.00    +0.048 C 
BRANCH  17  20
ATOM     18  C   UNL     1      -1.395   3.797   1.056  0.00  0.00    +0.066 C 
ATOM     19  C   UNL     1      -0.125   4.282   1.706  0.00  0.00    +0.046 A 
ATOM     20  C   UNL     1       0.819   3.375   2.164  0.00  0.00    -0.005 A 
ATOM     21  C   UNL     1       1.971   3.863   2.761  0.00  0.00    +0.046 A 
ATOM     22  N   UNL     1       2.139   5.170   2.868  0.00  0.00    -0.227 NA
ATOM     23  C   UNL     1       1.217   6.011   2.420  0.00  0.00    +0.188 A 
ATOM     24  N   UNL     1       0.102   5.577   1.848  0.00  0.00    -0.227 NA
ATOM     25  C   UNL     1       3.022   2.914   3.279  0.00  0.00    +0.066 C 
BRANCH  23  26
ATOM     26  S   UNL     1       1.479   7.745   2.588  0.00  0.00    -0.089 S 
ATOM     27  C   UNL     1       3.095   7.741   3.404  0.00  0.00    +0.093 C 
ENDBRANCH  23  26
ENDBRANCH  17  20
ENDBRANCH  16  17
ENDBRANCH   1  16
TORSDOF 6
