REMARK  Name = ZINC21209574
REMARK  8 active torsions:
REMARK  status: ('A' for Active; 'I' for Inactive)
REMARK    1  A    between atoms: C_3  and  C_10
REMARK    2  A    between atoms: C_5  and  N_7
REMARK    3  A    between atoms: N_12  and  C_13
REMARK    4  A    between atoms: C_13  and  C_14
REMARK    5  A    between atoms: N_16  and  C_17
REMARK    6  A    between atoms: C_20  and  N_23
REMARK    7  A    between atoms: N_26  and  C_27
REMARK    8  A    between atoms: C_27  and  C_28
REMARK                            x       y       z     vdW  Elec       q    Type
REMARK                         _______ _______ _______ _____ _____    ______ ____
ROOT
ATOM      1  C   UNL     1       1.726  10.019  -0.525  0.00  0.00    +0.234 C 
ATOM      2  O   UNL     1       1.971  11.079  -1.062  0.00  0.00    -0.274 OA
ATOM      3  N   UNL     1       2.718   9.309   0.049  0.00  0.00    -0.284 N 
ATOM      4  H   UNL     1       2.486   8.387   0.602  0.00  0.00    +0.155 HD
ENDROOT
BRANCH   3   5
ATOM      5  C   UNL     1       4.045   9.746  -0.058  0.00  0.00    +0.034 A 
ATOM      6  C   UNL     1       5.074   8.821  -0.160  0.00  0.00    +0.025 A 
ATOM      7  C   UNL     1       6.381   9.251  -0.271  0.00  0.00    +0.025 A 
ATOM      8  C   UNL     1       6.667  10.610  -0.270  0.00  0.00    +0.035 A 
ATOM      9  C   UNL     1       5.637  11.536  -0.162  0.00  0.00    +0.025 A 
ATOM     10  C   UNL     1       4.330  11.105  -0.057  0.00  0.00    +0.025 A 
BRANCH   8  11
ATOM     11  N   UNL     1       7.994  11.047  -0.377  0.00  0.00    -0.269 N 
ATOM     12  C   UNL     1       8.869  10.363  -1.140  0.00  0.00    +0.304 C 
ATOM     13  O   UNL     1       8.531   9.322  -1.668  0.00  0.00    -0.252 OA
ATOM     14  N   UNL     1      10.119  10.834  -1.318  0.00  0.00    -0.292 N 
ATOM     15  H   UNL     1       8.321  11.949   0.162  0.00  0.00    +0.156 HD
ATOM     16  H   UNL     1      10.425  11.777  -0.841  0.00  0.00    +0.151 HD
BRANCH  14  17
ATOM     17  C   UNL     1      11.071  10.091  -2.147  0.00  0.00    +0.180 C 
BRANCH  17  18
ATOM     18  C   UNL     1      12.386  10.825  -2.184  0.00  0.00    +0.122 A 
ATOM     19  C   UNL     1      13.406  10.655  -1.324  0.00  0.00    +0.046 A 
ATOM     20  C   UNL     1      14.433  11.540  -1.727  0.00  0.00    +0.041 A 
ATOM     21  C   UNL     1      13.979  12.197  -2.809  0.00  0.00    +0.195 A 
ATOM     22  O   UNL     1      12.741  11.757  -3.084  0.00  0.00    -0.466 OA
ENDBRANCH  17  18
ENDBRANCH  14  17
ENDBRANCH   8  11
ENDBRANCH   3   5
BRANCH   1  23
ATOM     23  C   UNL     1       0.313   9.496  -0.499  0.00  0.00    +0.200 C 
BRANCH  23  26
ATOM     24  C   UNL     1      -1.889  10.182  -1.285  0.00  0.00    +0.245 C 
ATOM     25  O   UNL     1      -2.345   9.161  -0.808  0.00  0.00    -0.270 OA
ATOM     26  N   UNL     1      -0.571  10.443  -1.183  0.00  0.00    -0.303 N 
ATOM     27  H   UNL     1      -0.158  11.367  -1.615  0.00  0.00    +0.150 HD
BRANCH  24  30
ATOM     28  C   UNL     1      -3.099  13.199  -3.167  0.00  0.00    +0.003 A 
ATOM     29  C   UNL     1      -2.261  12.311  -2.523  0.00  0.00    +0.013 A 
ATOM     30  C   UNL     1      -2.781  11.138  -1.975  0.00  0.00    +0.039 A 
ATOM     31  C   UNL     1      -4.147  10.871  -2.082  0.00  0.00    +0.045 A 
ATOM     32  C   UNL     1      -4.974  11.769  -2.723  0.00  0.00    +0.127 A 
ATOM     33  C   UNL     1      -4.451  12.928  -3.269  0.00  0.00    +0.033 A 
BRANCH  32  34
ATOM     34  N   UNL     1      -6.424  11.490  -2.832  0.00  0.00    +0.056 N 
ATOM     35  O   UNL     1      -7.155  12.280  -3.402  0.00  0.00    -0.126 OA
ATOM     36  O   UNL     1      -6.886  10.470  -2.352  0.00  0.00    -0.126 OA
ENDBRANCH  32  34
ENDBRANCH  24  30
ENDBRANCH  23  26
ENDBRANCH   1  23
TORSDOF 8
