REMARK  Name = ZINC63271541
REMARK  7 active torsions:
REMARK  status: ('A' for Active; 'I' for Inactive)
REMARK    1  A    between atoms: C_4  and  C_7
REMARK    2  A    between atoms: C_7  and  C_9
REMARK    3  A    between atoms: C_7  and  O_32
REMARK    4  A    between atoms: C_9  and  N_10
REMARK    5  A    between atoms: C_11  and  C_13
REMARK    6  A    between atoms: C_13  and  C_14
REMARK    7  A    between atoms: C_14  and  N_15
REMARK                            x       y       z     vdW  Elec       q    Type
REMARK                         _______ _______ _______ _____ _____    ______ ____
ROOT
ATOM      1  N   UNL     1       8.929  -4.000   3.954  0.00  0.00    -0.299 N 
ATOM      2  C   UNL     1       9.443  -4.488   5.101  0.00  0.00    +0.302 C 
ATOM      3  O   UNL     1       8.841  -4.342   6.147  0.00  0.00    -0.253 OA
ATOM      4  N   UNL     1      10.623  -5.139   5.087  0.00  0.00    -0.283 N 
ATOM      5  C   UNL     1      11.401  -5.205   3.846  0.00  0.00    +0.114 C 
ATOM      6  C   UNL     1      12.797  -4.600   4.082  0.00  0.00    +0.052 C 
ATOM      7  C   UNL     1      13.300  -5.170   5.386  0.00  0.00    -0.036 C 
ATOM      8  C   UNL     1      14.437  -5.780   5.696  0.00  0.00    -0.001 A 
ATOM      9  C   UNL     1      15.662  -6.024   4.917  0.00  0.00    +0.010 A 
ATOM     10  C   UNL     1      16.649  -6.712   5.551  0.00  0.00    +0.001 A 
ATOM     11  C   UNL     1      16.541  -7.174   6.867  0.00  0.00    +0.002 A 
ATOM     12  C   UNL     1      15.455  -6.987   7.659  0.00  0.00    +0.026 A 
ATOM     13  C   UNL     1      14.355  -6.270   7.106  0.00  0.00    +0.043 A 
ATOM     14  N   UNL     1      13.218  -5.932   7.638  0.00  0.00    -0.376 N 
ATOM     15  C   UNL     1      12.469  -5.139   6.663  0.00  0.00    +0.124 C 
ATOM     16  C   UNL     1      11.120  -5.769   6.320  0.00  0.00    +0.138 C 
ATOM     17  H   UNL     1       9.442  -4.053   3.132  0.00  0.00    +0.150 HD
ATOM     18  H   UNL     1      12.917  -6.166   8.530  0.00  0.00    +0.160 HD
ENDROOT
BRANCH   1  19
ATOM     19  C   UNL     1       7.597  -3.391   3.949  0.00  0.00    +0.115 C 
BRANCH  19  20
ATOM     20  C   UNL     1       7.256  -2.922   2.533  0.00  0.00    +0.114 C 
BRANCH  20  22
ATOM     21  N   UNL     1       5.373  -1.806   1.381  0.00  0.00    -0.312 N 
ATOM     22  C   UNL     1       5.886  -2.295   2.528  0.00  0.00    +0.215 C 
ATOM     23  O   UNL     1       5.245  -2.229   3.555  0.00  0.00    -0.276 OA
ATOM     24  H   UNL     1       5.885  -1.859   0.559  0.00  0.00    +0.149 HD
BRANCH  21  25
ATOM     25  C   UNL     1       4.041  -1.197   1.376  0.00  0.00    +0.140 C 
BRANCH  25  26
ATOM     26  C   UNL     1       3.700  -0.728  -0.040  0.00  0.00    +0.162 C 
BRANCH  26  30
ATOM     27  C   UNL     1      -0.028   1.358   0.007  0.00  0.00    +0.000 A 
ATOM     28  C   UNL     1       1.160   2.065  -0.006  0.00  0.00    +0.000 A 
ATOM     29  C   UNL     1       2.366   1.390  -0.021  0.00  0.00    +0.006 A 
ATOM     30  C   UNL     1       2.385   0.008  -0.022  0.00  0.00    -0.018 A 
ATOM     31  C   UNL     1       1.197  -0.699  -0.009  0.00  0.00    +0.006 A 
ATOM     32  C   UNL     1      -0.009  -0.024   0.005  0.00  0.00    +0.000 A 
ENDBRANCH  26  30
BRANCH  26  33
ATOM     33  O   UNL     1       3.601  -1.860  -0.906  0.00  0.00    -0.386 OA
ATOM     34  H   UNL     1       2.921  -2.497  -0.645  0.00  0.00    +0.210 HD
ENDBRANCH  26  33
ENDBRANCH  25  26
ENDBRANCH  21  25
ENDBRANCH  20  22
ENDBRANCH  19  20
ENDBRANCH   1  19
TORSDOF 7
