REMARK  Name = ZINC38657561
REMARK  12 active torsions:
REMARK  status: ('A' for Active; 'I' for Inactive)
REMARK    1  A    between atoms: C_1  and  C_2
REMARK    2  A    between atoms: C_2  and  C_4
REMARK    3  A    between atoms: C_2  and  O_26
REMARK    4  A    between atoms: C_4  and  O_6
REMARK    5  A    between atoms: O_6  and  C_7
REMARK    6  A    between atoms: C_14  and  N_25
REMARK    7  A    between atoms: C_15  and  C_23
REMARK    8  A    between atoms: C_16  and  C_18
REMARK    9  A    between atoms: O_26  and  C_27
REMARK   10  A    between atoms: C_30  and  C_33
REMARK   11  A    between atoms: C_33  and  C_34
REMARK   12  A    between atoms: C_33  and  C_35
REMARK                            x       y       z     vdW  Elec       q    Type
REMARK                         _______ _______ _______ _____ _____    ______ ____
ROOT
ATOM      1  C   UNL     1      -3.906  -0.450  -0.295  0.00  0.00    +0.135 A 
ATOM      2  C   UNL     1      -4.553   0.542   0.429  0.00  0.00    +0.047 A 
ATOM      3  C   UNL     1      -5.866   0.366   0.819  0.00  0.00    +0.012 A 
ATOM      4  C   UNL     1      -6.541  -0.797   0.493  0.00  0.00    +0.011 A 
ATOM      5  C   UNL     1      -5.899  -1.790  -0.230  0.00  0.00    +0.138 A 
ATOM      6  C   UNL     1      -4.581  -1.612  -0.629  0.00  0.00    +0.093 A 
ATOM      7  O   UNL     1      -6.544  -2.937  -0.559  0.00  0.00    -0.441 OA
ATOM      8  C   UNL     1      -7.886  -2.980  -0.540  0.00  0.00    +0.199 C 
ATOM      9  C   UNL     1      -8.623  -2.075   0.147  0.00  0.00    +0.101 C 
ATOM     10  C   UNL     1      -7.971  -0.970   0.929  0.00  0.00    +0.134 C 
ENDROOT
BRANCH  10  11
ATOM     11  C   UNL     1      -8.008  -1.308   2.397  0.00  0.00    +0.117 A 
ATOM     12  C   UNL     1      -8.624  -0.590   3.354  0.00  0.00    +0.045 A 
ATOM     13  C   UNL     1      -8.406  -1.266   4.577  0.00  0.00    +0.041 A 
ATOM     14  C   UNL     1      -7.670  -2.356   4.293  0.00  0.00    +0.195 A 
ATOM     15  O   UNL     1      -7.437  -2.379   2.971  0.00  0.00    -0.467 OA
ENDBRANCH  10  11
BRANCH   8  16
ATOM     16  N   UNL     1      -8.531  -3.971  -1.238  0.00  0.00    -0.328 N 
ATOM     17  H   UNL     1      -8.017  -4.627  -1.736  0.00  0.00    +0.145 HD
ATOM     18  H   UNL     1      -9.500  -4.016  -1.234  0.00  0.00    +0.145 HD
ENDBRANCH   8  16
BRANCH   9  19
ATOM     19  C   UNL     1     -10.051  -2.174   0.128  0.00  0.00    +0.101 C 
ATOM     20  N   UNL     1     -11.184  -2.252   0.113  0.00  0.00    -0.191 NA
ENDBRANCH   9  19
BRANCH   1  21
ATOM     21  O   UNL     1      -2.614  -0.278  -0.680  0.00  0.00    -0.423 OA
BRANCH  21  22
ATOM     22  C   UNL     1      -1.654  -0.436   0.245  0.00  0.00    +0.353 C 
ATOM     23  O   UNL     1      -1.947  -0.773   1.368  0.00  0.00    -0.246 OA
BRANCH  22  25
ATOM     24  C   UNL     1      -0.014   1.283  -0.465  0.00  0.00    +0.064 C 
ATOM     25  C   UNL     1      -0.211  -0.194  -0.116  0.00  0.00    +0.279 C 
BRANCH  25  26
ATOM     26  O   UNL     1       0.622  -0.537   0.993  0.00  0.00    -0.478 OA
BRANCH  26  27
ATOM     27  C   UNL     1       1.916  -0.848   0.719  0.00  0.00    +0.122 A 
ATOM     28  C   UNL     1       2.767  -1.244   1.741  0.00  0.00    +0.046 A 
ATOM     29  C   UNL     1       4.082  -1.560   1.460  0.00  0.00    +0.007 A 
ATOM     30  C   UNL     1       4.551  -1.482   0.162  0.00  0.00    -0.045 A 
ATOM     31  C   UNL     1       3.705  -1.088  -0.859  0.00  0.00    +0.007 A 
ATOM     32  C   UNL     1       2.388  -0.776  -0.584  0.00  0.00    +0.046 A 
BRANCH  30  33
ATOM     33  C   UNL     1       5.986  -1.827  -0.142  0.00  0.00    +0.013 C 
ATOM     34  C   UNL     1       6.032  -2.993  -1.132  0.00  0.00    +0.012 C 
ATOM     35  C   UNL     1       6.685  -0.611  -0.753  0.00  0.00    +0.012 C 
ENDBRANCH  30  33
ENDBRANCH  26  27
ENDBRANCH  25  26
ENDBRANCH  22  25
ENDBRANCH  21  22
ENDBRANCH   1  21
TORSDOF 9
