REMARK  Name = ZINC33127947
REMARK  7 active torsions:
REMARK  status: ('A' for Active; 'I' for Inactive)
REMARK    1  A    between atoms: C_1  and  C_2
REMARK    2  A    between atoms: C_5  and  C_32
REMARK    3  A    between atoms: C_6  and  N_8
REMARK    4  A    between atoms: N_11  and  C_12
REMARK    5  A    between atoms: C_12  and  C_14
REMARK    6  A    between atoms: C_12  and  C_21
REMARK    7  A    between atoms: C_14  and  C_15
REMARK                            x       y       z     vdW  Elec       q    Type
REMARK                         _______ _______ _______ _____ _____    ______ ____
ROOT
ATOM      1  C   UNL     1      -3.036   4.123  -1.353  0.00  0.00    +0.165 C 
ENDROOT
BRANCH   1   2
ATOM      2  C   UNL     1      -4.377   4.811  -1.334  0.00  0.00    +0.240 C 
ATOM      3  O   UNL     1      -4.501   5.910  -1.831  0.00  0.00    -0.273 OA
ATOM      4  N   UNL     1      -5.437   4.206  -0.763  0.00  0.00    -0.269 N 
ATOM      5  C   UNL     1      -5.394   2.919  -0.064  0.00  0.00    +0.118 C 
ATOM      6  C   UNL     1      -6.837   2.665   0.403  0.00  0.00    +0.056 C 
ATOM      7  C   UNL     1      -7.614   3.864  -0.093  0.00  0.00    -0.024 A 
ATOM      8  C   UNL     1      -6.741   4.712  -0.756  0.00  0.00    +0.040 A 
ATOM      9  C   UNL     1      -7.234   5.896  -1.307  0.00  0.00    +0.024 A 
ATOM     10  C   UNL     1      -8.570   6.215  -1.188  0.00  0.00    +0.002 A 
ATOM     11  C   UNL     1      -9.432   5.363  -0.524  0.00  0.00    +0.000 A 
ATOM     12  C   UNL     1      -8.952   4.187   0.023  0.00  0.00    +0.005 A 
ENDBRANCH   1   2
BRANCH   1  16
ATOM     13  N   UNL     1      -0.476   4.454  -3.971  0.00  0.00    -0.269 N 
ATOM     14  C   UNL     1      -1.230   3.941  -2.978  0.00  0.00    +0.304 C 
ATOM     15  O   UNL     1      -1.020   2.814  -2.575  0.00  0.00    -0.252 OA
ATOM     16  N   UNL     1      -2.217   4.679  -2.432  0.00  0.00    -0.288 N 
ATOM     17  H   UNL     1      -0.713   5.444  -4.386  0.00  0.00    +0.156 HD
ATOM     18  H   UNL     1      -2.407   5.699  -2.797  0.00  0.00    +0.151 HD
BRANCH  13  24
ATOM     19  C   UNL     1       1.567   0.117  -5.063  0.00  0.00    +0.044 C 
ATOM     20  C   UNL     1       1.625   1.622  -5.014  0.00  0.00    -0.049 A 
ATOM     21  C   UNL     1       2.752   2.284  -5.467  0.00  0.00    +0.004 A 
ATOM     22  C   UNL     1       2.809   3.665  -5.423  0.00  0.00    +0.005 A 
ATOM     23  C   UNL     1       1.738   4.388  -4.934  0.00  0.00    -0.029 A 
ATOM     24  C   UNL     1       0.608   3.725  -4.473  0.00  0.00    +0.038 A 
ATOM     25  C   UNL     1       0.554   2.338  -4.518  0.00  0.00    +0.027 A 
ATOM     26  C   UNL     1       1.799   5.893  -4.893  0.00  0.00    +0.045 C 
ENDBRANCH  13  24
ENDBRANCH   1  16
BRANCH   1  27
ATOM     27  C   UNL     1      -2.331   4.341  -0.013  0.00  0.00    +0.067 C 
BRANCH  27  28
ATOM     28  C   UNL     1      -1.068   3.520   0.030  0.00  0.00    -0.045 A 
ATOM     29  C   UNL     1      -1.109   2.211   0.472  0.00  0.00    +0.004 A 
ATOM     30  C   UNL     1       0.051   1.460   0.516  0.00  0.00    +0.000 A 
ATOM     31  C   UNL     1       1.249   2.014   0.107  0.00  0.00    +0.000 A 
ATOM     32  C   UNL     1       1.289   3.322  -0.340  0.00  0.00    +0.000 A 
ATOM     33  C   UNL     1       0.130   4.075  -0.379  0.00  0.00    +0.004 A 
ENDBRANCH  27  28
ENDBRANCH   1  27
TORSDOF 5
