REMARK  Name = ZINC13169436
REMARK  6 active torsions:
REMARK  status: ('A' for Active; 'I' for Inactive)
REMARK    1  A    between atoms: C_1  and  C_2
REMARK    2  A    between atoms: C_2  and  C_3
REMARK    3  A    between atoms: C_10  and  C_12
REMARK    4  A    between atoms: N_14  and  C_15
REMARK    5  A    between atoms: C_17  and  C_23
REMARK    6  A    between atoms: C_19  and  C_21
REMARK                            x       y       z     vdW  Elec       q    Type
REMARK                         _______ _______ _______ _____ _____    ______ ____
ROOT
ATOM      1  C   UNL     1      -0.625   2.130  -4.987  0.00  0.00    +0.255 C 
ATOM      2  O   UNL     1       0.425   1.680  -5.409  0.00  0.00    -0.269 OA
ATOM      3  N   UNL     1      -1.464   2.775  -5.821  0.00  0.00    -0.281 N 
ATOM      4  H   UNL     1      -2.334   3.066  -5.504  0.00  0.00    +0.155 HD
ENDROOT
BRANCH   1  11
ATOM      5  C   UNL     1      -0.730   1.218   1.190  0.00  0.00    -0.007 C 
ATOM      6  C   UNL     1      -2.256   1.058   1.149  0.00  0.00    +0.009 C 
ATOM      7  C   UNL     1      -2.829   2.046   0.123  0.00  0.00    +0.043 C 
ATOM      8  C   UNL     1      -2.030   1.933  -1.139  0.00  0.00    -0.006 A 
ATOM      9  C   UNL     1      -0.814   1.330  -1.292  0.00  0.00    -0.036 A 
ATOM     10  C   UNL     1      -0.263   1.349  -2.563  0.00  0.00    +0.024 A 
ATOM     11  C   UNL     1      -0.975   1.970  -3.573  0.00  0.00    +0.075 A 
ATOM     12  S   UNL     1      -2.432   2.526  -2.705  0.00  0.00    -0.088 S 
ATOM     13  C   UNL     1      -0.118   0.675  -0.101  0.00  0.00    +0.039 C 
BRANCH   5  15
ATOM     14  C   UNL     1       1.336   0.714   2.502  0.00  0.00    +0.004 C 
ATOM     15  C   UNL     1      -0.166   0.446   2.384  0.00  0.00    +0.000 C 
ENDBRANCH   5  15
ENDBRANCH   1  11
BRANCH   3  16
ATOM     16  C   UNL     1      -1.082   3.025  -7.144  0.00  0.00    +0.035 A 
ATOM     17  C   UNL     1       0.248   3.281  -7.443  0.00  0.00    +0.038 A 
ATOM     18  C   UNL     1       0.633   3.526  -8.762  0.00  0.00    +0.066 A 
ATOM     19  C   UNL     1      -0.321   3.522  -9.778  0.00  0.00    +0.030 A 
ATOM     20  C   UNL     1      -1.658   3.270  -9.473  0.00  0.00    +0.066 A 
ATOM     21  C   UNL     1      -2.035   3.021  -8.152  0.00  0.00    +0.038 A 
BRANCH  20  22
ATOM     22  C   UNL     1      -2.673   3.264 -10.546  0.00  0.00    +0.387 C 
ATOM     23  O   UNL     1      -3.837   3.044 -10.279  0.00  0.00    -0.241 OA
ATOM     24  O   UNL     1      -2.308   3.505 -11.820  0.00  0.00    -0.241 OA
ENDBRANCH  20  22
BRANCH  18  25
ATOM     25  C   UNL     1       2.051   3.793  -9.081  0.00  0.00    +0.387 C 
ATOM     26  O   UNL     1       2.883   3.796  -8.196  0.00  0.00    -0.241 OA
ATOM     27  O   UNL     1       2.422   4.033 -10.354  0.00  0.00    -0.241 OA
ENDBRANCH  18  25
ENDBRANCH   3  16
TORSDOF 5
