REMARK  Name = ZINC12778490
REMARK  7 active torsions:
REMARK  status: ('A' for Active; 'I' for Inactive)
REMARK    1  A    between atoms: C_1  and  C_2
REMARK    2  A    between atoms: C_2  and  C_4
REMARK    3  A    between atoms: C_2  and  N_14
REMARK    4  A    between atoms: C_7  and  S_10
REMARK    5  A    between atoms: S_10  and  N_13
REMARK    6  A    between atoms: N_17  and  C_18
REMARK    7  A    between atoms: C_18  and  C_19
REMARK                            x       y       z     vdW  Elec       q    Type
REMARK                         _______ _______ _______ _____ _____    ______ ____
ROOT
ATOM      1  N   UNL     1       1.362   1.593  -0.002  0.00  0.00    -0.293 N 
ATOM      2  C   UNL     1       2.318   0.933  -0.685  0.00  0.00    +0.300 C 
ATOM      3  O   UNL     1       2.041  -0.084  -1.291  0.00  0.00    -0.253 OA
ATOM      4  N   UNL     1       3.583   1.399  -0.694  0.00  0.00    -0.296 N 
ATOM      5  H   UNL     1       1.583   2.404   0.482  0.00  0.00    +0.151 HD
ATOM      6  H   UNL     1       3.804   2.210  -0.210  0.00  0.00    +0.150 HD
ENDROOT
BRANCH   1   8
ATOM      7  C   UNL     1      -0.753   1.593  -1.232  0.00  0.00    +0.033 C 
ATOM      8  C   UNL     1      -0.013   1.086   0.008  0.00  0.00    +0.102 C 
BRANCH   8   9
ATOM      9  C   UNL     1      -0.718   1.572   1.248  0.00  0.00    -0.027 A 
ATOM     10  C   UNL     1      -0.511   2.861   1.700  0.00  0.00    +0.007 A 
ATOM     11  C   UNL     1      -1.161   3.309   2.835  0.00  0.00    +0.029 A 
ATOM     12  C   UNL     1      -2.012   2.463   3.523  0.00  0.00    +0.105 A 
ATOM     13  C   UNL     1      -2.215   1.172   3.073  0.00  0.00    +0.029 A 
ATOM     14  C   UNL     1      -1.568   0.726   1.936  0.00  0.00    +0.007 A 
BRANCH  12  15
ATOM     15  S   UNL     1      -2.837   3.032   4.972  0.00  0.00    +0.056 S 
ATOM     16  O   UNL     1      -2.901   4.448   4.874  0.00  0.00    -0.153 OA
ATOM     17  O   UNL     1      -3.997   2.225   5.122  0.00  0.00    -0.153 OA
BRANCH  15  18
ATOM     18  N   UNL     1      -1.853   2.691   6.261  0.00  0.00    -0.204 NA
ATOM     19  H   UNL     1      -0.999   2.254   6.117  0.00  0.00    +0.144 HD
ATOM     20  H   UNL     1      -2.131   2.928   7.159  0.00  0.00    +0.144 HD
ENDBRANCH  15  18
ENDBRANCH  12  15
ENDBRANCH   8   9
ENDBRANCH   1   8
BRANCH   4  21
ATOM     21  C   UNL     1       4.623   0.682  -1.436  0.00  0.00    +0.153 C 
BRANCH  21  22
ATOM     22  C   UNL     1       5.956   1.416  -1.284  0.00  0.00    +0.228 C 
ATOM     23  C   UNL     1       7.029   0.723  -2.135  0.00  0.00    +0.275 C 
ATOM     24  O   UNL     1       8.264   1.426  -1.960  0.00  0.00    -0.485 OA
ATOM     25  C   UNL     1       8.612   1.741  -0.682  0.00  0.00    +0.162 A 
ATOM     26  C   UNL     1       9.925   2.088  -0.401  0.00  0.00    +0.049 A 
ATOM     27  C   UNL     1      10.293   2.413   0.891  0.00  0.00    +0.004 A 
ATOM     28  C   UNL     1       9.354   2.394   1.905  0.00  0.00    +0.004 A 
ATOM     29  C   UNL     1       8.045   2.049   1.632  0.00  0.00    +0.049 A 
ATOM     30  C   UNL     1       7.668   1.720   0.338  0.00  0.00    +0.163 A 
ATOM     31  O   UNL     1       6.376   1.378   0.084  0.00  0.00    -0.480 OA
ENDBRANCH  21  22
ENDBRANCH   4  21
TORSDOF 6
