REMARK  Name = ZINC45166346
REMARK  6 active torsions:
REMARK  status: ('A' for Active; 'I' for Inactive)
REMARK    1  A    between atoms: C_1  and  C_2
REMARK    2  A    between atoms: C_8  and  N_10
REMARK    3  A    between atoms: N_10  and  C_11
REMARK    4  A    between atoms: N_10  and  S_12
REMARK    5  A    between atoms: S_12  and  C_15
REMARK    6  A    between atoms: C_16  and  N_22
REMARK                            x       y       z     vdW  Elec       q    Type
REMARK                         _______ _______ _______ _____ _____    ______ ____
ROOT
ATOM      1  S   UNL     1       2.882   1.241   2.239  0.00  0.00    +0.064 S 
ATOM      2  O   UNL     1       3.959   1.955   1.648  0.00  0.00    -0.153 OA
ATOM      3  O   UNL     1       1.900   1.876   3.047  0.00  0.00    -0.153 OA
ENDROOT
BRANCH   1   4
ATOM      4  C   UNL     1       3.601  -0.029   3.226  0.00  0.00    +0.144 A 
ATOM      5  C   UNL     1       2.836  -0.683   4.184  0.00  0.00    +0.053 A 
ATOM      6  C   UNL     1       3.406  -1.684   4.960  0.00  0.00    +0.025 A 
ATOM      7  C   UNL     1       4.731  -2.027   4.777  0.00  0.00    +0.003 A 
ATOM      8  C   UNL     1       5.491  -1.375   3.824  0.00  0.00    +0.022 A 
ATOM      9  C   UNL     1       4.925  -0.381   3.045  0.00  0.00    +0.069 A 
ATOM     10 CL   UNL     1       5.880   0.429   1.843  0.00  0.00    -0.081 Cl
BRANCH   5  11
ATOM     11  N   UNL     1       1.496  -0.334   4.367  0.00  0.00    -0.356 N 
ATOM     12  H   UNL     1       1.060   0.263   3.738  0.00  0.00    +0.142 HD
ATOM     13  H   UNL     1       1.001  -0.687   5.122  0.00  0.00    +0.142 HD
ENDBRANCH   5  11
ENDBRANCH   1   4
BRANCH   1  14
ATOM     14  N   UNL     1       2.070   0.499   1.001  0.00  0.00    -0.176 NA
ATOM     15  C   UNL     1       2.785  -0.399   0.091  0.00  0.00    +0.132 C 
BRANCH  14  22
ATOM     16  C   UNL     1       0.955   3.130   1.480  0.00  0.00    +0.009 C 
ATOM     17  C   UNL     1       0.416   2.196   0.394  0.00  0.00    +0.005 C 
ATOM     18  C   UNL     1       1.152   2.463  -0.920  0.00  0.00    +0.005 C 
ATOM     19  C   UNL     1       0.613   1.529  -2.006  0.00  0.00    +0.000 C 
ATOM     20  C   UNL     1       0.834   0.075  -1.583  0.00  0.00    +0.002 C 
ATOM     21  C   UNL     1       0.098  -0.192  -0.269  0.00  0.00    +0.021 C 
ATOM     22  C   UNL     1       0.637   0.742   0.816  0.00  0.00    +0.082 C 
ENDBRANCH  14  22
ENDBRANCH   1  14
TORSDOF 4
