REMARK  Name = ZINC65461358
REMARK  3 active torsions:
REMARK  status: ('A' for Active; 'I' for Inactive)
REMARK    1  A    between atoms: C_1  and  C_2
REMARK    2  A    between atoms: C_15  and  C_17
REMARK    3  A    between atoms: C_20  and  N_23
REMARK                            x       y       z     vdW  Elec       q    Type
REMARK                         _______ _______ _______ _____ _____    ______ ____
ROOT
ATOM      1  C   UNL     1      -0.018   1.503   0.010  0.00  0.00    +0.053 C 
ATOM      2  C   UNL     1       0.002  -0.004   0.002  0.00  0.00    +0.007 A 
ATOM      3  C   UNL     1      -1.021  -0.858   0.002  0.00  0.00    +0.104 A 
ATOM      4  N   UNL     1      -0.803  -2.217  -0.005  0.00  0.00    -0.296 N 
ATOM      5  C   UNL     1      -1.565  -3.391  -0.001  0.00  0.00    +0.056 A 
ATOM      6  C   UNL     1      -0.720  -4.423  -0.020  0.00  0.00    +0.081 A 
ATOM      7  N   UNL     1       0.541  -3.937  -0.026  0.00  0.00    -0.224 NA
ATOM      8  C   UNL     1       0.497  -2.639  -0.016  0.00  0.00    +0.178 A 
ATOM      9  S   UNL     1       1.404  -1.110  -0.018  0.00  0.00    -0.055 S 
ATOM     10  C   UNL     1      -1.034  -5.894  -0.047  0.00  0.00    +0.161 C 
ATOM     11  N   UNL     1      -2.119  -6.184  -0.979  0.00  0.00    -0.310 N 
ATOM     12  C   UNL     1      -3.341  -5.708  -0.765  0.00  0.00    +0.214 C 
ATOM     13  O   UNL     1      -4.242  -6.075  -1.489  0.00  0.00    -0.276 OA
ATOM     14  C   UNL     1      -3.652  -4.738   0.330  0.00  0.00    +0.110 C 
ATOM     15  C   UNL     1      -3.070  -3.367   0.038  0.00  0.00    +0.077 C 
ATOM     16  H   UNL     1      -1.947  -6.730  -1.763  0.00  0.00    +0.149 HD
ENDROOT
BRANCH  15  17
ATOM     17  C   UNL     1      -3.518  -2.406   1.109  0.00  0.00    -0.038 A 
ATOM     18  C   UNL     1      -3.140  -2.613   2.423  0.00  0.00    +0.006 A 
ATOM     19  C   UNL     1      -3.549  -1.734   3.407  0.00  0.00    +0.028 A 
ATOM     20  C   UNL     1      -4.340  -0.642   3.075  0.00  0.00    +0.065 A 
ATOM     21  C   UNL     1      -4.717  -0.437   1.755  0.00  0.00    +0.028 A 
ATOM     22  C   UNL     1      -4.300  -1.317   0.775  0.00  0.00    +0.006 A 
BRANCH  20  23
ATOM     23  N   UNL     1      -4.757   0.251   4.072  0.00  0.00    -0.240 N 
ATOM     24  C   UNL     1      -5.530   1.346   3.887  0.00  0.00    +0.114 A 
ATOM     25  C   UNL     1      -5.704   1.935   5.092  0.00  0.00    +0.041 A 
ATOM     26  C   UNL     1      -5.016   1.177   6.046  0.00  0.00    +0.135 A 
ATOM     27  N   UNL     1      -4.453   0.165   5.436  0.00  0.00    -0.175 NA
ENDBRANCH  20  23
ENDBRANCH  15  17
TORSDOF 2
