REMARK  Name = ZINC20134470
REMARK  10 active torsions:
REMARK  status: ('A' for Active; 'I' for Inactive)
REMARK    1  A    between atoms: C_1  and  C_2
REMARK    2  A    between atoms: C_5  and  C_9
REMARK    3  A    between atoms: C_6  and  C_8
REMARK    4  A    between atoms: C_9  and  S_10
REMARK    5  A    between atoms: S_10  and  C_11
REMARK    6  A    between atoms: C_22  and  C_24
REMARK    7  A    between atoms: C_24  and  C_25
REMARK    8  A    between atoms: C_24  and  C_26
REMARK    9  A    between atoms: C_30  and  C_32
REMARK   10  A    between atoms: C_30  and  C_33
REMARK                            x       y       z     vdW  Elec       q    Type
REMARK                         _______ _______ _______ _____ _____    ______ ____
ROOT
ATOM      1  C   UNL     1      -4.519  -0.226   1.439  0.00  0.00    +0.171 A 
ATOM      2  N   UNL     1      -5.244  -0.673   2.502  0.00  0.00    -0.302 N 
ATOM      3  H   UNL     1      -4.892  -0.484   3.526  0.00  0.00    +0.171 HD
ATOM      4  C   UNL     1      -6.395  -1.349   2.300  0.00  0.00    +0.258 A 
ATOM      5  O   UNL     1      -7.055  -1.750   3.246  0.00  0.00    -0.267 OA
ATOM      6  C   UNL     1      -6.815  -1.587   0.986  0.00  0.00    +0.065 A 
ATOM      7  C   UNL     1      -6.037  -1.118  -0.059  0.00  0.00    +0.134 A 
ATOM      8  N   UNL     1      -4.909  -0.448   0.200  0.00  0.00    -0.208 NA
ATOM      9  N   UNL     1      -6.432  -1.348  -1.362  0.00  0.00    -0.302 N 
ATOM     10  C   UNL     1      -7.330  -2.340  -1.653  0.00  0.00    +0.017 C 
ATOM     11  C   UNL     1      -8.137  -2.846  -0.697  0.00  0.00    +0.020 C 
ATOM     12  C   UNL     1      -8.087  -2.335   0.720  0.00  0.00    +0.065 C 
ATOM     13  C   UNL     1      -9.059  -3.866  -0.995  0.00  0.00    +0.162 C 
ATOM     14  O   UNL     1      -9.756  -4.316  -0.107  0.00  0.00    -0.292 OA
ATOM     15  C   UNL     1      -9.198  -4.410  -2.390  0.00  0.00    +0.086 C 
ATOM     16  C   UNL     1      -8.809  -3.318  -3.392  0.00  0.00    -0.023 C 
ATOM     17  C   UNL     1      -7.387  -2.853  -3.071  0.00  0.00    +0.058 C 
ATOM     18  C   UNL     1      -9.777  -2.139  -3.270  0.00  0.00    +0.011 C 
ATOM     19  C   UNL     1      -8.860  -3.880  -4.814  0.00  0.00    +0.011 C 
ATOM     20  H   UNL     1      -6.025  -0.732  -2.177  0.00  0.00    +0.153 HD
ENDROOT
BRANCH  12  21
ATOM     21  C   UNL     1      -9.275  -1.401   0.958  0.00  0.00    -0.005 C 
ATOM     22  C   UNL     1     -10.580  -2.167   0.733  0.00  0.00    +0.008 C 
ATOM     23  C   UNL     1      -9.233  -0.877   2.395  0.00  0.00    +0.008 C 
ENDBRANCH  12  21
BRANCH   1  24
ATOM     24  S   UNL     1      -3.024   0.661   1.726  0.00  0.00    -0.083 S 
BRANCH  24  25
ATOM     25  C   UNL     1      -2.514   0.980   0.019  0.00  0.00    +0.112 C 
BRANCH  25  30
ATOM     26  C   UNL     1       2.451   3.937  -0.001  0.00  0.00    +0.044 C 
ATOM     27  C   UNL     1       1.156   3.166   0.008  0.00  0.00    -0.050 A 
ATOM     28  C   UNL     1       1.175   1.783   0.000  0.00  0.00    +0.003 A 
ATOM     29  C   UNL     1      -0.013   1.076   0.008  0.00  0.00    +0.005 A 
ATOM     30  C   UNL     1      -1.219   1.751   0.017  0.00  0.00    -0.034 A 
ATOM     31  C   UNL     1      -1.238   3.133   0.030  0.00  0.00    -0.046 A 
ATOM     32  C   UNL     1      -0.050   3.840   0.022  0.00  0.00    +0.007 A 
ATOM     33  C   UNL     1      -2.553   3.868   0.045  0.00  0.00    +0.044 C 
ENDBRANCH  25  30
ENDBRANCH  24  25
ENDBRANCH   1  24
TORSDOF 4
