REMARK  Name = ZINC25080532
REMARK  7 active torsions:
REMARK  status: ('A' for Active; 'I' for Inactive)
REMARK    1  A    between atoms: C_1  and  C_2
REMARK    2  A    between atoms: C_7  and  C_8
REMARK    3  A    between atoms: C_8  and  C_9
REMARK    4  A    between atoms: C_9  and  N_10
REMARK    5  A    between atoms: C_11  and  C_13
REMARK    6  A    between atoms: N_18  and  S_19
REMARK    7  A    between atoms: S_19  and  C_22
REMARK                            x       y       z     vdW  Elec       q    Type
REMARK                         _______ _______ _______ _____ _____    ______ ____
ROOT
ATOM      1  C   UNL     1      -1.873   2.380  -0.717  0.00  0.00    +0.165 C 
ATOM      2  C   UNL     1      -1.930   2.819   0.767  0.00  0.00    +0.031 C 
ATOM      3  C   UNL     1      -1.135   1.680   1.463  0.00  0.00    +0.019 C 
ATOM      4  C   UNL     1      -0.046   1.337   0.424  0.00  0.00    +0.110 C 
ATOM      5  N   UNL     1      -0.530   1.796  -0.886  0.00  0.00    -0.165 NA
ENDROOT
BRANCH   1   7
ATOM      6  N   UNL     1      -3.229   3.791  -2.229  0.00  0.00    -0.314 N 
ATOM      7  C   UNL     1      -2.045   3.571  -1.624  0.00  0.00    +0.232 C 
ATOM      8  O   UNL     1      -1.119   4.332  -1.808  0.00  0.00    -0.274 OA
ATOM      9  H   UNL     1      -4.069   3.101  -2.062  0.00  0.00    +0.149 HD
BRANCH   6  10
ATOM     10  C   UNL     1      -3.397   4.949  -3.111  0.00  0.00    +0.109 C 
BRANCH  10  11
ATOM     11  C   UNL     1      -4.823   4.966  -3.665  0.00  0.00    +0.054 C 
BRANCH  11  18
ATOM     12  C   UNL     1      -4.031   4.797  -6.438  0.00  0.00    +0.044 C 
ATOM     13  C   UNL     1      -4.616   6.077  -5.899  0.00  0.00    -0.047 A 
ATOM     14  C   UNL     1      -4.778   7.168  -6.731  0.00  0.00    +0.003 A 
ATOM     15  C   UNL     1      -5.310   8.343  -6.235  0.00  0.00    +0.000 A 
ATOM     16  C   UNL     1      -5.685   8.426  -4.907  0.00  0.00    +0.000 A 
ATOM     17  C   UNL     1      -5.527   7.333  -4.075  0.00  0.00    +0.004 A 
ATOM     18  C   UNL     1      -4.995   6.157  -4.572  0.00  0.00    -0.043 A 
ENDBRANCH  11  18
ENDBRANCH  10  11
ENDBRANCH   6  10
ENDBRANCH   1   7
BRANCH   5  19
ATOM     19  S   UNL     1       0.298   1.677  -2.316  0.00  0.00    +0.062 S 
ATOM     20  O   UNL     1      -0.332   2.569  -3.225  0.00  0.00    -0.153 OA
ATOM     21  O   UNL     1       1.679   1.767  -1.994  0.00  0.00    -0.153 OA
BRANCH  19  22
ATOM     22  C   UNL     1       0.030   0.051  -2.939  0.00  0.00    +0.109 A 
ATOM     23  C   UNL     1      -1.042  -0.200  -3.775  0.00  0.00    +0.032 A 
ATOM     24  C   UNL     1      -1.256  -1.474  -4.265  0.00  0.00    +0.051 A 
ATOM     25  C   UNL     1      -0.395  -2.505  -3.919  0.00  0.00    +0.162 A 
ATOM     26  C   UNL     1       0.684  -2.252  -3.081  0.00  0.00    +0.164 A 
ATOM     27  C   UNL     1       0.896  -0.970  -2.596  0.00  0.00    +0.078 A 
ATOM     28  O   UNL     1       1.545  -3.248  -2.734  0.00  0.00    -0.485 OA
ATOM     29  C   UNL     1       1.091  -4.591  -2.936  0.00  0.00    +0.270 C 
ATOM     30  C   UNL     1       0.468  -4.681  -4.336  0.00  0.00    +0.270 C 
ATOM     31  O   UNL     1      -0.623  -3.757  -4.402  0.00  0.00    -0.485 OA
ENDBRANCH  19  22
ENDBRANCH   5  19
TORSDOF 6
