REMARK  Name = ZINC09327401
REMARK  9 active torsions:
REMARK  status: ('A' for Active; 'I' for Inactive)
REMARK    1  A    between atoms: C_1  and  C_2
REMARK    2  A    between atoms: C_2  and  C_3
REMARK    3  A    between atoms: C_5  and  C_20
REMARK    4  A    between atoms: C_6  and  O_19
REMARK    5  A    between atoms: C_8  and  O_9
REMARK    6  A    between atoms: O_9  and  C_10
REMARK    7  A    between atoms: C_10  and  C_11
REMARK    8  A    between atoms: C_21  and  C_26
REMARK    9  A    between atoms: C_28  and  C_31
REMARK                            x       y       z     vdW  Elec       q    Type
REMARK                         _______ _______ _______ _____ _____    ______ ____
ROOT
ATOM      1  C   UNL     1       0.049   0.124  -1.304  0.00  0.00    -0.005 A 
ATOM      2  C   UNL     1      -0.516  -0.381  -2.457  0.00  0.00    +0.021 A 
ATOM      3  C   UNL     1       0.299  -0.890  -3.466  0.00  0.00    +0.045 A 
ATOM      4  C   UNL     1       1.689  -0.886  -3.306  0.00  0.00    +0.130 A 
ATOM      5  C   UNL     1       2.247  -0.377  -2.146  0.00  0.00    +0.092 A 
ATOM      6  C   UNL     1       1.429   0.133  -1.148  0.00  0.00    +0.128 A 
ENDROOT
BRANCH   3   7
ATOM      7  C   UNL     1      -0.305  -1.434  -4.705  0.00  0.00    +0.106 A 
ATOM      8  C   UNL     1      -1.337  -2.470  -4.789  0.00  0.00    +0.052 A 
ATOM      9  C   UNL     1      -1.594  -2.659  -6.117  0.00  0.00    +0.116 A 
ATOM     10  N   UNL     1      -0.804  -1.825  -6.819  0.00  0.00    -0.283 N 
ATOM     11  H   UNL     1      -0.784  -1.754  -7.786  0.00  0.00    +0.188 HD
ATOM     12  N   UNL     1      -0.020  -1.074  -5.938  0.00  0.00    -0.173 NA
BRANCH   8  13
ATOM     13  C   UNL     1      -1.974  -3.174  -3.657  0.00  0.00    +0.112 A 
ATOM     14  N   UNL     1      -2.977  -4.042  -3.663  0.00  0.00    -0.244 NA
ATOM     15  C   UNL     1      -3.422  -4.576  -2.548  0.00  0.00    +0.046 A 
ATOM     16  C   UNL     1      -2.852  -4.242  -1.363  0.00  0.00    +0.070 A 
ATOM     17  S   UNL     1      -1.597  -3.091  -1.912  0.00  0.00    -0.075 S 
ATOM     18  C   UNL     1      -4.563  -5.559  -2.586  0.00  0.00    +0.066 C 
ENDBRANCH   8  13
ENDBRANCH   3   7
BRANCH   1  20
ATOM     19  C   UNL     1      -0.971   2.188  -0.383  0.00  0.00    +0.009 C 
ATOM     20  C   UNL     1      -0.834   0.674  -0.213  0.00  0.00    +0.035 C 
ENDBRANCH   1  20
BRANCH   4  21
ATOM     21  O   UNL     1       2.489  -1.380  -4.286  0.00  0.00    -0.506 OA
ATOM     22  H   UNL     1       2.817  -0.711  -4.901  0.00  0.00    +0.292 HD
ENDBRANCH   4  21
BRANCH   6  23
ATOM     23  O   UNL     1       1.979   0.638  -0.013  0.00  0.00    -0.487 OA
BRANCH  23  24
ATOM     24  C   UNL     1       3.404   0.617   0.082  0.00  0.00    +0.268 C 
BRANCH  24  25
ATOM     25  C   UNL     1       3.829   1.212   1.399  0.00  0.00    +0.043 A 
ATOM     26  C   UNL     1       4.069   2.572   1.499  0.00  0.00    +0.131 A 
ATOM     27  C   UNL     1       4.459   3.118   2.710  0.00  0.00    +0.039 A 
ATOM     28  C   UNL     1       4.609   2.306   3.818  0.00  0.00    +0.004 A 
ATOM     29  C   UNL     1       4.370   0.948   3.719  0.00  0.00    +0.020 A 
ATOM     30  C   UNL     1       3.974   0.402   2.510  0.00  0.00    +0.050 A 
ATOM     31 CL   UNL     1       3.667  -1.302   2.388  0.00  0.00    -0.083 Cl
ATOM     32  F   UNL     1       3.923   3.366   0.416  0.00  0.00    -0.205 F 
ENDBRANCH  24  25
ENDBRANCH  23  24
ENDBRANCH   6  23
TORSDOF 7
