REMARK  Name = ZINC42959910
REMARK  8 active torsions:
REMARK  status: ('A' for Active; 'I' for Inactive)
REMARK    1  A    between atoms: C_1  and  C_2
REMARK    2  A    between atoms: C_2  and  C_3
REMARK    3  A    between atoms: C_3  and  C_5
REMARK    4  A    between atoms: C_3  and  N_22
REMARK    5  A    between atoms: C_5  and  C_7
REMARK    6  A    between atoms: C_5  and  S_14
REMARK    7  A    between atoms: S_14  and  C_15
REMARK    8  A    between atoms: C_18  and  C_21
REMARK                            x       y       z     vdW  Elec       q    Type
REMARK                         _______ _______ _______ _____ _____    ______ ____
ROOT
ATOM      1  C   UNL     1       0.747  -2.030  -1.296  0.00  0.00    +0.070 C 
ENDROOT
BRANCH   1   2
ATOM      2  C   UNL     1       1.559  -2.554  -2.453  0.00  0.00    -0.036 A 
ATOM      3  C   UNL     1       1.187  -2.254  -3.750  0.00  0.00    +0.006 A 
ATOM      4  C   UNL     1       1.932  -2.734  -4.811  0.00  0.00    +0.015 A 
ATOM      5  C   UNL     1       3.049  -3.514  -4.575  0.00  0.00    +0.018 A 
ATOM      6  C   UNL     1       3.421  -3.814  -3.276  0.00  0.00    +0.015 A 
ATOM      7  C   UNL     1       2.679  -3.329  -2.216  0.00  0.00    +0.006 A 
ATOM      8 BR   UNL     1       4.068  -4.171  -6.026  0.00  0.00    -0.050 Br
ENDBRANCH   1   2
BRANCH   1   9
ATOM      9  C   UNL     1       0.729  -0.501  -1.337  0.00  0.00    -0.057 C 
BRANCH   9  10
ATOM     10  N   UNL     1       2.105   0.007  -1.272  0.00  0.00    +0.381 N 
ATOM     11  H   UNL     1       2.537  -0.301  -0.414  0.00  0.00    -0.090 HD
ATOM     12  H   UNL     1       2.631  -0.344  -2.058  0.00  0.00    -0.090 HD
ATOM     13  H   UNL     1       2.093   1.016  -1.299  0.00  0.00    -0.090 HD
ENDBRANCH   9  10
BRANCH   9  15
ATOM     14  C   UNL     1      -0.201   1.552  -0.258  0.00  0.00    +0.002 C 
ATOM     15  C   UNL     1      -0.069   0.031  -0.145  0.00  0.00    -0.018 C 
ENDBRANCH   9  15
ENDBRANCH   1   9
BRANCH   1  16
ATOM     16  S   UNL     1      -0.951  -2.659  -1.415  0.00  0.00    -0.080 S 
BRANCH  16  17
ATOM     17  C   UNL     1      -0.786  -4.389  -1.128  0.00  0.00    +0.185 A 
ATOM     18  N   UNL     1       0.345  -5.044  -0.963  0.00  0.00    -0.206 NA
ATOM     19  H   UNL     1      -2.745  -5.093  -1.105  0.00  0.00    +0.191 HD
ATOM     20  C   UNL     1       0.090  -6.338  -0.768  0.00  0.00    +0.149 A 
ATOM     21  N   UNL     1      -1.201  -6.531  -0.803  0.00  0.00    -0.157 NA
ATOM     22  N   UNL     1      -1.797  -5.280  -1.030  0.00  0.00    -0.254 N 
ATOM     23  C   UNL     1       1.127  -7.408  -0.542  0.00  0.00    +0.090 C 
ENDBRANCH  16  17
ENDBRANCH   1  16
TORSDOF 6
