REMARK  Name = ZINC17740479
REMARK  7 active torsions:
REMARK  status: ('A' for Active; 'I' for Inactive)
REMARK    1  A    between atoms: C_1  and  C_2
REMARK    2  A    between atoms: C_5  and  N_9
REMARK    3  A    between atoms: C_13  and  S_14
REMARK    4  A    between atoms: S_14  and  C_15
REMARK    5  A    between atoms: C_15  and  C_17
REMARK    6  A    between atoms: C_15  and  C_18
REMARK    7  A    between atoms: C_21  and  C_23
REMARK                            x       y       z     vdW  Elec       q    Type
REMARK                         _______ _______ _______ _____ _____    ______ ____
ROOT
ATOM      1  N   UNL     1       1.287   1.726  -0.001  0.00  0.00    -0.277 N 
ATOM      2  C   UNL     1       2.041   0.583  -0.014  0.00  0.00    +0.230 A 
ATOM      3  N   UNL     1       1.216  -0.425  -0.012  0.00  0.00    -0.137 NA
ATOM      4  N   UNL     1       0.002  -0.004   0.002  0.00  0.00    -0.122 NA
ATOM      5  C   UNL     1      -0.016   1.309   0.009  0.00  0.00    +0.197 A 
ENDROOT
BRANCH   1  10
ATOM      6  C   UNL     1       3.172   7.081   0.006  0.00  0.00    +0.045 C 
ATOM      7  C   UNL     1       2.671   5.660   0.004  0.00  0.00    -0.032 A 
ATOM      8  C   UNL     1       1.708   5.268  -0.906  0.00  0.00    +0.007 A 
ATOM      9  C   UNL     1       1.251   3.965  -0.914  0.00  0.00    +0.026 A 
ATOM     10  C   UNL     1       1.753   3.049   0.001  0.00  0.00    +0.051 A 
ATOM     11  C   UNL     1       2.721   3.444   0.914  0.00  0.00    +0.046 A 
ATOM     12  C   UNL     1       3.178   4.748   0.914  0.00  0.00    +0.046 A 
ATOM     13 CL   UNL     1       4.388   5.244   2.055  0.00  0.00    -0.083 Cl
ENDBRANCH   1  10
BRANCH   5  14
ATOM     14  S   UNL     1      -1.446   2.337   0.022  0.00  0.00    -0.073 S 
BRANCH  14  15
ATOM     15  C   UNL     1      -2.742   1.074   0.022  0.00  0.00    +0.139 C 
ATOM     16  C   UNL     1      -2.675   0.275   1.325  0.00  0.00    +0.029 C 
BRANCH  15  17
ATOM     17  C   UNL     1      -4.090   1.737  -0.091  0.00  0.00    +0.231 A 
ATOM     18  N   UNL     1      -4.490   2.785   0.572  0.00  0.00    -0.111 NA
ATOM     19  N   UNL     1      -5.694   3.080   0.228  0.00  0.00    -0.107 NA
ATOM     20  C   UNL     1      -6.109   2.221  -0.677  0.00  0.00    +0.255 A 
ATOM     21  O   UNL     1      -5.096   1.357  -0.900  0.00  0.00    -0.419 OA
BRANCH  20  22
ATOM     22  C   UNL     1      -7.427   2.208  -1.330  0.00  0.00    +0.076 A 
ATOM     23  C   UNL     1      -8.499   3.061  -1.145  0.00  0.00    +0.021 A 
ATOM     24  C   UNL     1      -9.640   2.847  -1.883  0.00  0.00    +0.008 A 
ATOM     25  C   UNL     1      -9.682   1.806  -2.755  0.00  0.00    +0.046 A 
ATOM     26  S   UNL     1      -8.062   1.082  -2.561  0.00  0.00    -0.092 S 
ENDBRANCH  20  22
ENDBRANCH  15  17
ENDBRANCH  14  15
ENDBRANCH   5  14
TORSDOF 5
