REMARK  Name = ZINC35779130
REMARK  16 active torsions:
REMARK  status: ('A' for Active; 'I' for Inactive)
REMARK    1  A    between atoms: C_1  and  O_2
REMARK    2  A    between atoms: O_2  and  C_3
REMARK    3  A    between atoms: C_6  and  O_9
REMARK    4  A    between atoms: O_9  and  C_10
REMARK    5  A    between atoms: C_10  and  C_11
REMARK    6  A    between atoms: C_21  and  C_23
REMARK    7  A    between atoms: C_23  and  N_24
REMARK    8  A    between atoms: N_24  and  C_25
REMARK    9  A    between atoms: N_24  and  C_29
REMARK   10  A    between atoms: C_25  and  C_26
REMARK   11  A    between atoms: C_29  and  C_30
REMARK   12  A    between atoms: C_30  and  C_32
REMARK   13  A    between atoms: C_30  and  O_37
REMARK   14  A    between atoms: C_32  and  O_33
REMARK   15  A    between atoms: O_33  and  C_34
REMARK   16  A    between atoms: C_34  and  C_35
REMARK                            x       y       z     vdW  Elec       q    Type
REMARK                         _______ _______ _______ _____ _____    ______ ____
ROOT
ATOM      1  C   UNL     1       3.705  -4.726  -3.755  0.00  0.00    +0.144 C 
ATOM      2  C   UNL     1       2.649  -4.142  -4.692  0.00  0.00    -0.014 A 
ATOM      3  C   UNL     1       1.319  -4.561  -4.699  0.00  0.00    +0.013 A 
ATOM      4  C   UNL     1       0.437  -3.996  -5.554  0.00  0.00    +0.046 A 
ATOM      5  S   UNL     1       1.464  -2.816  -6.416  0.00  0.00    -0.101 S 
ATOM      6  C   UNL     1       2.987  -3.165  -5.576  0.00  0.00    -0.004 A 
ATOM      7  C   UNL     1       4.328  -2.541  -5.787  0.00  0.00    +0.061 C 
ATOM      8  C   UNL     1       5.220  -2.870  -4.580  0.00  0.00    +0.113 C 
ATOM      9  N   UNL     1       5.023  -4.286  -4.232  0.00  0.00    -0.292 N 
ATOM     10  C   UNL     1       6.036  -5.167  -4.350  0.00  0.00    +0.200 C 
ATOM     11  O   UNL     1       5.863  -6.332  -4.061  0.00  0.00    -0.278 OA
ENDROOT
BRANCH   1  12
ATOM     12  C   UNL     1       3.473  -4.215  -2.331  0.00  0.00    +0.256 C 
BRANCH  12  13
ATOM     13  O   UNL     1       3.429  -2.787  -2.338  0.00  0.00    -0.490 OA
BRANCH  13  17
ATOM     14  C   UNL     1       2.817  -0.912   1.288  0.00  0.00    +0.120 A 
ATOM     15  C   UNL     1       2.970  -0.158   0.135  0.00  0.00    +0.049 A 
ATOM     16  C   UNL     1       3.175  -0.785  -1.079  0.00  0.00    +0.049 A 
ATOM     17  C   UNL     1       3.228  -2.169  -1.144  0.00  0.00    +0.121 A 
ATOM     18  C   UNL     1       3.077  -2.924   0.010  0.00  0.00    +0.049 A 
ATOM     19  C   UNL     1       2.876  -2.296   1.224  0.00  0.00    +0.049 A 
BRANCH  14  21
ATOM     20  C   UNL     1       2.567   1.134   2.475  0.00  0.00    +0.277 C 
ATOM     21  O   UNL     1       2.616  -0.294   2.483  0.00  0.00    -0.495 OA
ENDBRANCH  14  21
ENDBRANCH  13  17
ENDBRANCH  12  13
ENDBRANCH   1  12
BRANCH  10  22
ATOM     22  C   UNL     1       7.384  -4.705  -4.841  0.00  0.00    +0.019 C 
BRANCH  22  23
ATOM     23  N   UNL     1       8.309  -5.845  -4.880  0.00  0.00    +0.387 N 
ATOM     24  H   UNL     1       8.318  -6.302  -3.980  0.00  0.00    -0.081 HD
BRANCH  23  25
ATOM     25  C   UNL     1       7.868  -6.798  -5.908  0.00  0.00    -0.075 C 
BRANCH  25  26
ATOM     26  C   UNL     1       8.773  -8.031  -5.881  0.00  0.00    -0.028 C 
ATOM     27  C   UNL     1       9.688  -8.263  -7.085  0.00  0.00    +0.002 C 
ATOM     28  C   UNL     1       8.464  -9.156  -6.872  0.00  0.00    +0.002 C 
ENDBRANCH  25  26
ENDBRANCH  23  25
BRANCH  23  29
ATOM     29  C   UNL     1       9.661  -5.369  -5.201  0.00  0.00    -0.044 C 
BRANCH  29  30
ATOM     30  C   UNL     1      10.200  -4.540  -4.033  0.00  0.00    +0.124 C 
BRANCH  30  31
ATOM     31  O   UNL     1       9.487  -3.304  -3.957  0.00  0.00    -0.391 OA
ATOM     32  H   UNL     1       9.561  -2.758  -4.752  0.00  0.00    +0.210 HD
ENDBRANCH  30  31
BRANCH  30  33
ATOM     33  C   UNL     1      11.688  -4.259  -4.251  0.00  0.00    +0.189 C 
BRANCH  33  34
ATOM     34  O   UNL     1      12.218  -3.587  -3.107  0.00  0.00    -0.373 OA
BRANCH  34  35
ATOM     35  C   UNL     1      13.609  -3.276  -3.209  0.00  0.00    +0.186 C 
BRANCH  35  36
ATOM     36  C   UNL     1      14.060  -2.572  -1.955  0.00  0.00    -0.007 C 
ATOM     37  C   UNL     1      15.182  -2.921  -1.375  0.00  0.00    +0.006 C 
ENDBRANCH  35  36
ENDBRANCH  34  35
ENDBRANCH  33  34
ENDBRANCH  30  33
ENDBRANCH  29  30
ENDBRANCH  23  29
ENDBRANCH  22  23
ENDBRANCH  10  22
TORSDOF 15
