REMARK  Name = ZINC21077771
REMARK  8 active torsions:
REMARK  status: ('A' for Active; 'I' for Inactive)
REMARK    1  A    between atoms: C_5  and  C_7
REMARK    2  A    between atoms: N_8  and  N_9
REMARK    3  A    between atoms: C_12  and  S_15
REMARK    4  A    between atoms: S_15  and  C_16
REMARK    5  A    between atoms: C_16  and  C_17
REMARK    6  A    between atoms: C_17  and  C_18
REMARK    7  A    between atoms: N_20  and  C_21
REMARK    8  A    between atoms: C_26  and  N_27
REMARK                            x       y       z     vdW  Elec       q    Type
REMARK                         _______ _______ _______ _____ _____    ______ ____
ROOT
ATOM      1  N   UNL     1      -1.171   2.123   0.102  0.00  0.00    -0.205 N 
ATOM      2  C   UNL     1      -0.035   1.327   0.082  0.00  0.00    +0.232 A 
ATOM      3  N   UNL     1      -0.011  -0.040   0.083  0.00  0.00    -0.186 NA
ATOM      4  C   UNL     1       1.295  -0.440   0.053  0.00  0.00    +0.210 A 
ATOM      5  N   UNL     1       2.047   0.635   0.033  0.00  0.00    -0.144 NA
ATOM      6  N   UNL     1       1.204   1.754   0.052  0.00  0.00    -0.245 N 
ATOM      7  H   UNL     1      -2.168   1.658   0.122  0.00  0.00    +0.177 HD
ATOM      8  H   UNL     1       1.414   2.834   0.045  0.00  0.00    +0.192 HD
ENDROOT
BRANCH   1  10
ATOM      9  C   UNL     1      -2.113   4.263   0.118  0.00  0.00    +0.139 C 
ATOM     10  N   UNL     1      -1.050   3.518   0.099  0.00  0.00    -0.188 NA
BRANCH   9  15
ATOM     11  C   UNL     1      -2.999   7.909   0.130  0.00  0.00    +0.001 A 
ATOM     12  C   UNL     1      -1.744   8.492   0.105  0.00  0.00    +0.001 A 
ATOM     13  C   UNL     1      -0.608   7.702   0.085  0.00  0.00    +0.020 A 
ATOM     14  C   UNL     1      -0.720   6.326   0.089  0.00  0.00    +0.050 A 
ATOM     15  C   UNL     1      -1.985   5.732   0.114  0.00  0.00    +0.013 A 
ATOM     16  C   UNL     1      -3.127   6.536   0.129  0.00  0.00    +0.011 A 
ATOM     17 CL   UNL     1       0.707   5.337   0.062  0.00  0.00    -0.083 Cl
ENDBRANCH   9  15
ENDBRANCH   1  10
BRANCH   4  18
ATOM     18  S   UNL     1       1.868  -2.106   0.041  0.00  0.00    -0.084 S 
BRANCH  18  19
ATOM     19  C   UNL     1       3.675  -1.948  -0.002  0.00  0.00    +0.086 C 
BRANCH  19  20
ATOM     20  C   UNL     1       4.308  -3.340  -0.016  0.00  0.00    +0.107 C 
BRANCH  20  21
ATOM     21  C   UNL     1       5.809  -3.209  -0.051  0.00  0.00    +0.218 C 
ATOM     22  O   UNL     1       6.322  -2.110  -0.064  0.00  0.00    -0.275 OA
ATOM     23  N   UNL     1       6.582  -4.313  -0.068  0.00  0.00    -0.284 N 
ATOM     24  H   UNL     1       6.121  -5.308   0.017  0.00  0.00    +0.155 HD
BRANCH  23  25
ATOM     25  C   UNL     1       7.970  -4.194  -0.195  0.00  0.00    +0.064 A 
ATOM     26  C   UNL     1       8.633  -3.126   0.397  0.00  0.00    +0.025 A 
ATOM     27  C   UNL     1      10.004  -3.014   0.275  0.00  0.00    +0.002 A 
ATOM     28  C   UNL     1      10.716  -3.957  -0.444  0.00  0.00    +0.002 A 
ATOM     29  C   UNL     1      10.058  -5.018  -1.039  0.00  0.00    +0.034 A 
ATOM     30  C   UNL     1       8.687  -5.139  -0.916  0.00  0.00    +0.147 A 
BRANCH  30  31
ATOM     31  N   UNL     1       7.984  -6.274  -1.553  0.00  0.00    +0.058 N 
ATOM     32  O   UNL     1       8.622  -7.156  -2.101  0.00  0.00    -0.126 OA
ATOM     33  O   UNL     1       6.767  -6.327  -1.530  0.00  0.00    -0.126 OA
ENDBRANCH  30  31
ENDBRANCH  23  25
ENDBRANCH  20  21
ENDBRANCH  19  20
ENDBRANCH  18  19
ENDBRANCH   4  18
TORSDOF 8
