REMARK  Name = ZINC52618712
REMARK  6 active torsions:
REMARK  status: ('A' for Active; 'I' for Inactive)
REMARK    1  A    between atoms: C_1  and  C_2
REMARK    2  A    between atoms: N_11  and  C_12
REMARK    3  A    between atoms: C_12  and  C_13
REMARK    4  A    between atoms: C_16  and  C_19
REMARK    5  A    between atoms: C_19  and  C_21
REMARK    6  A    between atoms: C_25  and  C_30
REMARK                            x       y       z     vdW  Elec       q    Type
REMARK                         _______ _______ _______ _____ _____    ______ ____
ROOT
ATOM      1  C   UNL     1       2.051   0.916   2.779  0.00  0.00    -0.030 A 
ATOM      2  C   UNL     1       2.076   2.221   2.318  0.00  0.00    +0.006 A 
ATOM      3  C   UNL     1       2.053   3.272   3.210  0.00  0.00    +0.012 A 
ATOM      4  C   UNL     1       2.006   3.017   4.583  0.00  0.00    +0.022 A 
ATOM      5  C   UNL     1       1.982   1.698   5.042  0.00  0.00    +0.012 A 
ATOM      6  C   UNL     1       2.000   0.657   4.138  0.00  0.00    +0.006 A 
ENDROOT
BRANCH   4   7
ATOM      7  C   UNL     1       1.982   4.139   5.546  0.00  0.00    +0.192 C 
ATOM      8  O   UNL     1       2.131   5.281   5.153  0.00  0.00    -0.287 OA
BRANCH   7   9
ATOM      9  C   UNL     1       1.779   3.875   6.971  0.00  0.00    +0.028 C 
ATOM     10  C   UNL     1       1.627   4.808   7.978  0.00  0.00    +0.007 A 
ATOM     11  C   UNL     1       1.617   6.225   7.968  0.00  0.00    +0.011 A 
ATOM     12  C   UNL     1       1.447   6.918   9.113  0.00  0.00    +0.009 A 
ATOM     13  C   UNL     1       1.269   6.245  10.396  0.00  0.00    -0.016 A 
ATOM     14  C   UNL     1       1.268   4.885  10.483  0.00  0.00    +0.034 A 
ATOM     15  C   UNL     1       1.448   4.090   9.263  0.00  0.00    +0.044 A 
ATOM     16  N   UNL     1       1.487   2.797   9.073  0.00  0.00    -0.380 N 
ATOM     17  C   UNL     1       1.687   2.525   7.646  0.00  0.00    +0.152 C 
ATOM     18  H   UNL     1       1.393   2.125   9.766  0.00  0.00    +0.160 HD
BRANCH  13  19
ATOM     19  C   UNL     1       1.087   7.054  11.624  0.00  0.00    -0.018 A 
ATOM     20  C   UNL     1       0.921   6.425  12.858  0.00  0.00    +0.011 A 
ATOM     21  C   UNL     1       0.752   7.182  13.998  0.00  0.00    +0.039 A 
ATOM     22  C   UNL     1       0.747   8.566  13.919  0.00  0.00    +0.123 A 
ATOM     23  C   UNL     1       0.911   9.196  12.695  0.00  0.00    +0.039 A 
ATOM     24  C   UNL     1       1.087   8.447  11.550  0.00  0.00    +0.011 A 
ATOM     25  F   UNL     1       0.580   9.304  15.039  0.00  0.00    -0.205 F 
ENDBRANCH  13  19
ENDBRANCH   7   9
ENDBRANCH   4   7
BRANCH   1  26
ATOM     26  C   UNL     1       2.076  -0.227   1.798  0.00  0.00    +0.142 C 
BRANCH  26  36
ATOM     27  C   UNL     1       0.251  -2.791   2.124  0.00  0.00    +0.049 C 
ATOM     28  C   UNL     1      -0.274  -1.359   2.016  0.00  0.00    +0.156 C 
ATOM     29  N   UNL     1      -1.478  -1.323   1.175  0.00  0.00    -0.323 N 
ATOM     30  C   UNL     1      -1.194  -0.497   0.080  0.00  0.00    +0.066 A 
ATOM     31  C   UNL     1      -1.966  -0.120  -1.009  0.00  0.00    +0.107 A 
ATOM     32  N   UNL     1      -1.476   0.683  -1.935  0.00  0.00    -0.365 N 
ATOM     33  C   UNL     1      -0.247   1.158  -1.871  0.00  0.00    +0.084 A 
ATOM     34  C   UNL     1       0.586   0.830  -0.820  0.00  0.00    +0.042 A 
ATOM     35  C   UNL     1       0.111  -0.014   0.182  0.00  0.00    +0.055 A 
ATOM     36  N   UNL     1       0.713  -0.507   1.340  0.00  0.00    -0.306 N 
ATOM     37  H   UNL     1      -2.313  -1.784   1.346  0.00  0.00    +0.148 HD
ATOM     38  H   UNL     1      -2.038   0.931  -2.687  0.00  0.00    +0.165 HD
ENDBRANCH  26  36
ENDBRANCH   1  26
TORSDOF 5
