REMARK  Name = ZINC19326769
REMARK  6 active torsions:
REMARK  status: ('A' for Active; 'I' for Inactive)
REMARK    1  A    between atoms: C_1  and  C_2
REMARK    2  A    between atoms: C_7  and  C_8
REMARK    3  A    between atoms: N_10  and  C_23
REMARK    4  A    between atoms: N_14  and  C_15
REMARK    5  A    between atoms: C_15  and  C_16
REMARK    6  A    between atoms: C_23  and  C_24
REMARK                            x       y       z     vdW  Elec       q    Type
REMARK                         _______ _______ _______ _____ _____    ______ ____
ROOT
ATOM      1  C   UNL     1      -3.182   1.414   0.022  0.00  0.00    +0.034 C 
ATOM      2  N   UNL     1      -2.893   0.789   1.319  0.00  0.00    -0.307 NA
ATOM      3  C   UNL     1      -1.466   0.909   1.658  0.00  0.00    +0.081 C 
ATOM      4  C   UNL     1      -0.633   0.229   0.567  0.00  0.00    -0.003 C 
ATOM      5  C   UNL     1      -0.968   0.860  -0.788  0.00  0.00    -0.074 C 
ATOM      6  N   UNL     1      -2.412   0.741  -1.032  0.00  0.00    +0.395 N 
ATOM      7  H   UNL     1      -2.672  -0.327  -1.010  0.00  0.00    -0.079 HD
ENDROOT
BRANCH   1  14
ATOM      8  C   UNL     1      -4.483   3.379  -1.649  0.00  0.00    +0.044 C 
ATOM      9  C   UNL     1      -5.276   2.233  -1.076  0.00  0.00    -0.048 A 
ATOM     10  C   UNL     1      -6.627   2.122  -1.349  0.00  0.00    +0.003 A 
ATOM     11  C   UNL     1      -7.354   1.071  -0.824  0.00  0.00    +0.000 A 
ATOM     12  C   UNL     1      -6.732   0.131  -0.024  0.00  0.00    +0.000 A 
ATOM     13  C   UNL     1      -5.380   0.239   0.246  0.00  0.00    +0.003 A 
ATOM     14  C   UNL     1      -4.654   1.293  -0.276  0.00  0.00    -0.044 A 
ENDBRANCH   1  14
BRANCH   6  15
ATOM     15  C   UNL     1      -2.766   1.265  -2.358  0.00  0.00    -0.039 C 
BRANCH  15  16
ATOM     16  C   UNL     1      -2.108   0.425  -3.422  0.00  0.00    -0.046 A 
ATOM     17  C   UNL     1      -2.783  -0.650  -3.970  0.00  0.00    +0.003 A 
ATOM     18  C   UNL     1      -2.179  -1.421  -4.946  0.00  0.00    +0.000 A 
ATOM     19  C   UNL     1      -0.900  -1.117  -5.375  0.00  0.00    +0.001 A 
ATOM     20  C   UNL     1      -0.225  -0.042  -4.828  0.00  0.00    +0.020 A 
ATOM     21  C   UNL     1      -0.831   0.733  -3.855  0.00  0.00    +0.042 A 
ATOM     22 CL   UNL     1       0.014   2.087  -3.173  0.00  0.00    -0.083 Cl
ENDBRANCH  15  16
ENDBRANCH   6  15
BRANCH   2  23
ATOM     23  C   UNL     1      -3.734   1.361   2.379  0.00  0.00    +0.121 C 
BRANCH  23  24
ATOM     24  C   UNL     1      -3.336   0.774   3.708  0.00  0.00    +0.002 A 
ATOM     25  C   UNL     1      -2.605   1.529   4.606  0.00  0.00    +0.008 A 
ATOM     26  C   UNL     1      -2.240   0.991   5.826  0.00  0.00    +0.000 A 
ATOM     27  C   UNL     1      -2.607  -0.302   6.150  0.00  0.00    +0.003 A 
ATOM     28  C   UNL     1      -3.338  -1.058   5.254  0.00  0.00    +0.038 A 
ATOM     29  C   UNL     1      -3.708  -0.519   4.034  0.00  0.00    +0.128 A 
ATOM     30  F   UNL     1      -4.428  -1.256   3.159  0.00  0.00    -0.205 F 
ENDBRANCH  23  24
ENDBRANCH   2  23
TORSDOF 5
