REMARK  Name = ZINC28570197
REMARK  11 active torsions:
REMARK  status: ('A' for Active; 'I' for Inactive)
REMARK    1  A    between atoms: C_1  and  C_2
REMARK    2  A    between atoms: C_5  and  N_22
REMARK    3  A    between atoms: C_6  and  O_21
REMARK    4  A    between atoms: C_7  and  C_8
REMARK    5  A    between atoms: C_8  and  C_9
REMARK    6  A    between atoms: N_11  and  C_12
REMARK    7  A    between atoms: C_12  and  C_13
REMARK    8  A    between atoms: C_18  and  C_19
REMARK    9  A    between atoms: N_22  and  C_23
REMARK   10  A    between atoms: C_23  and  S_24
REMARK   11  A    between atoms: S_24  and  C_27
REMARK                            x       y       z     vdW  Elec       q    Type
REMARK                         _______ _______ _______ _____ _____    ______ ____
ROOT
ATOM      1  C   UNL     1      -0.018   1.503   0.010  0.00  0.00    +0.044 C 
ATOM      2  C   UNL     1       0.002  -0.004   0.002  0.00  0.00    -0.043 A 
ATOM      3  C   UNL     1       0.006  -0.687  -1.200  0.00  0.00    +0.005 A 
ATOM      4  C   UNL     1       0.024  -2.069  -1.214  0.00  0.00    +0.027 A 
ATOM      5  C   UNL     1       0.039  -2.774  -0.019  0.00  0.00    +0.071 A 
ATOM      6  C   UNL     1       0.036  -2.085   1.192  0.00  0.00    +0.141 A 
ATOM      7  C   UNL     1       0.023  -0.700   1.197  0.00  0.00    +0.008 A 
ENDROOT
BRANCH   6   8
ATOM      8  O   UNL     1       0.050  -2.771   2.366  0.00  0.00    -0.505 OA
ATOM      9  H   UNL     1       0.938  -2.958   2.702  0.00  0.00    +0.292 HD
ENDBRANCH   6   8
BRANCH   5  10
ATOM     10  N   UNL     1       0.057  -4.173  -0.030  0.00  0.00    -0.322 N 
ATOM     11  H   UNL     1       0.068  -4.665   0.806  0.00  0.00    +0.148 HD
BRANCH  10  12
ATOM     12  C   UNL     1       0.060  -4.896  -1.305  0.00  0.00    +0.276 C 
BRANCH  12  13
ATOM     13  S   UNL     1       1.767  -5.301  -1.766  0.00  0.00    +0.013 S 
ATOM     14  O   UNL     1       1.782  -6.058  -2.969  0.00  0.00    -0.168 OA
ATOM     15  O   UNL     1       2.599  -4.159  -1.618  0.00  0.00    -0.168 OA
BRANCH  13  16
ATOM     16  C   UNL     1       2.317  -6.422  -0.523  0.00  0.00    +0.090 A 
ATOM     17  C   UNL     1       2.924  -5.941   0.622  0.00  0.00    +0.027 A 
ATOM     18  C   UNL     1       3.356  -6.821   1.597  0.00  0.00    +0.002 A 
ATOM     19  C   UNL     1       3.181  -8.181   1.427  0.00  0.00    +0.000 A 
ATOM     20  C   UNL     1       2.574  -8.662   0.283  0.00  0.00    +0.002 A 
ATOM     21  C   UNL     1       2.138  -7.783  -0.690  0.00  0.00    +0.027 A 
ENDBRANCH  13  16
ENDBRANCH  12  13
ENDBRANCH  10  12
ENDBRANCH   5  10
BRANCH   7  22
ATOM     22  C   UNL     1       0.026   0.049   2.505  0.00  0.00    +0.134 C 
BRANCH  22  23
ATOM     23  C   UNL     1      -1.394   0.279   2.954  0.00  0.00    +0.218 C 
ATOM     24  O   UNL     1      -2.317  -0.124   2.279  0.00  0.00    -0.275 OA
ATOM     25  N   UNL     1      -1.638   0.934   4.107  0.00  0.00    -0.311 N 
ATOM     26  H   UNL     1      -0.900   1.257   4.647  0.00  0.00    +0.149 HD
BRANCH  25  27
ATOM     27  C   UNL     1      -3.018   1.159   4.544  0.00  0.00    +0.141 C 
BRANCH  27  28
ATOM     28  C   UNL     1      -3.015   1.907   5.852  0.00  0.00    -0.011 A 
ATOM     29  C   UNL     1      -3.197   1.228   7.049  0.00  0.00    +0.010 A 
ATOM     30  C   UNL     1      -3.188   1.952   8.227  0.00  0.00    +0.041 A 
ATOM     31  C   UNL     1      -2.998   3.330   8.173  0.00  0.00    +0.094 A 
ATOM     32  N   UNL     1      -2.828   3.941   7.011  0.00  0.00    -0.347 N 
ATOM     33  C   UNL     1      -2.827   3.275   5.872  0.00  0.00    +0.019 A 
ATOM     34  C   UNL     1      -2.622   4.016   4.576  0.00  0.00    +0.063 C 
ATOM     35  N   UNL     1      -2.987   4.071   9.349  0.00  0.00    -0.345 N 
ATOM     36  H   UNL     1      -3.112   3.627  10.203  0.00  0.00    +0.144 HD
ATOM     37  H   UNL     1      -2.855   5.031   9.316  0.00  0.00    +0.144 HD
ATOM     38  H   UNL     1      -2.698   4.902   6.997  0.00  0.00    +0.167 HD
ENDBRANCH  27  28
ENDBRANCH  25  27
ENDBRANCH  22  23
ENDBRANCH   7  22
TORSDOF 9
