REMARK  Name = ZINC20701346
REMARK  3 active torsions:
REMARK  status: ('A' for Active; 'I' for Inactive)
REMARK    1  A    between atoms: C_5  and  N_7
REMARK    2  A    between atoms: C_11  and  C_20
REMARK    3  A    between atoms: C_25  and  O_26
REMARK                            x       y       z     vdW  Elec       q    Type
REMARK                         _______ _______ _______ _____ _____    ______ ____
ROOT
ATOM      1  C   UNL     1      -1.222   1.745   0.017  0.00  0.00    +0.003 A 
ATOM      2  C   UNL     1      -0.013   1.076   0.008  0.00  0.00    +0.006 A 
ATOM      3  C   UNL     1       1.175   1.776   0.000  0.00  0.00    -0.017 A 
ATOM      4  C   UNL     1       1.173   3.174   0.021  0.00  0.00    +0.062 A 
ATOM      5  C   UNL     1      -0.056   3.835   0.029  0.00  0.00    +0.147 A 
ATOM      6  C   UNL     1      -1.238   3.128   0.030  0.00  0.00    +0.034 A 
ATOM      7  N   UNL     1       2.326   3.956   0.045  0.00  0.00    -0.335 N 
ATOM      8  C   UNL     1       3.610   3.245  -0.066  0.00  0.00    +0.109 C 
ATOM      9  C   UNL     1       3.488   1.975   0.749  0.00  0.00    +0.029 C 
ATOM     10  C   UNL     1       2.483   1.088  -0.052  0.00  0.00    +0.049 C 
ATOM     11  C   UNL     1       2.700  -0.264   0.518  0.00  0.00    -0.023 C 
ATOM     12  C   UNL     1       3.953  -0.342   0.955  0.00  0.00    -0.030 C 
ATOM     13  C   UNL     1       4.666   0.994   0.736  0.00  0.00    +0.033 C 
ATOM     14  H   UNL     1       2.310   5.051   0.140  0.00  0.00    +0.147 HD
ENDROOT
BRANCH   8  15
ATOM     15  C   UNL     1       4.721   4.103   0.485  0.00  0.00    +0.017 A 
ATOM     16  C   UNL     1       4.441   5.076   1.426  0.00  0.00    +0.029 A 
ATOM     17  C   UNL     1       5.459   5.864   1.932  0.00  0.00    +0.043 A 
ATOM     18  C   UNL     1       6.760   5.680   1.497  0.00  0.00    +0.043 A 
ATOM     19  C   UNL     1       7.044   4.708   0.556  0.00  0.00    +0.084 A 
ATOM     20  C   UNL     1       6.024   3.913   0.052  0.00  0.00    +0.140 A 
ATOM     21 CL   UNL     1       8.676   4.478   0.010  0.00  0.00    -0.080 Cl
ATOM     22 CL   UNL     1       5.105   7.085   3.114  0.00  0.00    -0.083 Cl
BRANCH  20  23
ATOM     23  O   UNL     1       6.301   2.953  -0.870  0.00  0.00    -0.505 OA
ATOM     24  H   UNL     1       7.336   2.802  -1.213  0.00  0.00    +0.292 HD
ENDBRANCH  20  23
ENDBRANCH   8  15
BRANCH   5  25
ATOM     25  N   UNL     1      -0.090   5.315   0.036  0.00  0.00    +0.058 N 
ATOM     26  O   UNL     1      -1.158   5.900   0.043  0.00  0.00    -0.126 OA
ATOM     27  O   UNL     1       0.951   5.948   0.036  0.00  0.00    -0.126 OA
ENDBRANCH   5  25
TORSDOF 3
