REMARK  Name = ZINC64612363
REMARK  5 active torsions:
REMARK  status: ('A' for Active; 'I' for Inactive)
REMARK    1  A    between atoms: C_1  and  C_2
REMARK    2  A    between atoms: C_4  and  N_18
REMARK    3  A    between atoms: C_5  and  C_11
REMARK    4  A    between atoms: C_21  and  C_24
REMARK    5  A    between atoms: N_29  and  C_32
REMARK                            x       y       z     vdW  Elec       q    Type
REMARK                         _______ _______ _______ _____ _____    ______ ____
ROOT
ATOM      1  N   UNL     1      -0.472   0.896  -2.703  0.00  0.00    -0.329 N 
ATOM      2  C   UNL     1      -1.612   1.823  -2.713  0.00  0.00    +0.106 C 
ATOM      3  C   UNL     1      -1.641   2.554  -4.059  0.00  0.00    +0.031 C 
ATOM      4  C   UNL     1      -0.285   3.222  -4.301  0.00  0.00    +0.078 C 
ATOM      5  C   UNL     1       0.809   2.154  -4.355  0.00  0.00    +0.031 C 
ATOM      6  C   UNL     1       0.867   1.419  -3.007  0.00  0.00    +0.106 C 
ENDROOT
BRANCH   1  10
ATOM      7  C   UNL     1      -0.129   1.284   0.092  0.00  0.00    +0.067 C 
ATOM      8  C   UNL     1      -0.363  -0.205   0.130  0.00  0.00    +0.058 A 
ATOM      9  C   UNL     1      -0.595  -0.903  -1.067  0.00  0.00    +0.050 A 
ATOM     10  C   UNL     1      -0.655  -0.440  -2.408  0.00  0.00    +0.055 A 
ATOM     11  C   UNL     1      -0.906  -1.372  -3.425  0.00  0.00    +0.074 A 
ATOM     12  C   UNL     1      -1.089  -2.723  -3.105  0.00  0.00    +0.098 A 
ATOM     13  N   UNL     1      -1.029  -3.127  -1.854  0.00  0.00    -0.353 N 
ATOM     14  C   UNL     1      -0.795  -2.288  -0.866  0.00  0.00    +0.107 A 
ATOM     15  S   UNL     1      -0.641  -2.435   0.896  0.00  0.00    +0.030 S 
ATOM     16  N   UNL     1      -0.342  -0.829   1.268  0.00  0.00    -0.213 NA
ATOM     17  H   UNL     1      -1.159  -4.068  -1.655  0.00  0.00    +0.166 HD
BRANCH  11  18
ATOM     18  C   UNL     1      -0.977  -0.931  -4.827  0.00  0.00    +0.250 C 
ATOM     19  O   UNL     1      -1.740  -0.039  -5.146  0.00  0.00    -0.270 OA
ATOM     20  N   UNL     1      -0.197  -1.515  -5.758  0.00  0.00    -0.297 N 
ATOM     21  C   UNL     1       0.833  -2.532  -5.497  0.00  0.00    +0.108 C 
ATOM     22  C   UNL     1       1.481  -2.885  -6.852  0.00  0.00    +0.020 C 
ATOM     23  C   UNL     1       1.171  -1.638  -7.721  0.00  0.00    +0.020 C 
ATOM     24  C   UNL     1      -0.238  -1.245  -7.207  0.00  0.00    +0.108 C 
ENDBRANCH  11  18
ENDBRANCH   1  10
BRANCH   4  25
ATOM     25  C   UNL     1      -0.320   3.971  -5.608  0.00  0.00    +0.219 C 
ATOM     26  O   UNL     1      -1.089   3.630  -6.482  0.00  0.00    -0.275 OA
ATOM     27  N   UNL     1       0.503   5.020  -5.806  0.00  0.00    -0.298 N 
ATOM     28  C   UNL     1       1.518   5.374  -4.804  0.00  0.00    +0.126 C 
ATOM     29  C   UNL     1       2.891   5.404  -5.487  0.00  0.00    +0.124 C 
ATOM     30  N   UNL     1       2.790   6.214  -6.710  0.00  0.00    -0.327 N 
ATOM     31  C   UNL     1       1.775   5.860  -7.712  0.00  0.00    +0.124 C 
ATOM     32  C   UNL     1       0.406   5.826  -7.031  0.00  0.00    +0.126 C 
BRANCH  30  33
ATOM     33  C   UNL     1       3.643   7.301  -6.915  0.00  0.00    +0.030 A 
ATOM     34  C   UNL     1       4.679   7.550  -6.024  0.00  0.00    +0.023 A 
ATOM     35  C   UNL     1       5.521   8.626  -6.230  0.00  0.00    +0.002 A 
ATOM     36  C   UNL     1       5.333   9.453  -7.322  0.00  0.00    +0.000 A 
ATOM     37  C   UNL     1       4.303   9.207  -8.211  0.00  0.00    +0.002 A 
ATOM     38  C   UNL     1       3.461   8.130  -8.014  0.00  0.00    +0.023 A 
ENDBRANCH  30  33
ENDBRANCH   4  25
TORSDOF 4
