REMARK  Name = ZINC61883879
REMARK  8 active torsions:
REMARK  status: ('A' for Active; 'I' for Inactive)
REMARK    1  A    between atoms: C_1  and  C_2
REMARK    2  A    between atoms: C_2  and  C_3
REMARK    3  A    between atoms: C_2  and  C_4
REMARK    4  A    between atoms: C_2  and  C_5
REMARK    5  A    between atoms: C_8  and  C_11
REMARK    6  A    between atoms: N_13  and  C_14
REMARK    7  A    between atoms: C_19  and  C_21
REMARK    8  A    between atoms: C_21  and  N_22
REMARK                            x       y       z     vdW  Elec       q    Type
REMARK                         _______ _______ _______ _____ _____    ______ ____
ROOT
ATOM      1  C   UNL     1       3.619  -2.490  -1.314  0.00  0.00    +0.216 C 
ATOM      2  O   UNL     1       3.047  -3.200  -0.514  0.00  0.00    -0.276 OA
ATOM      3  N   UNL     1       4.907  -2.148  -1.111  0.00  0.00    -0.312 N 
ATOM      4  H   UNL     1       5.365  -1.581  -1.751  0.00  0.00    +0.149 HD
ENDROOT
BRANCH   1   8
ATOM      5  C   UNL     1       0.718  -0.497  -1.257  0.00  0.00    -0.006 C 
ATOM      6  C   UNL     1       0.739  -2.027  -1.265  0.00  0.00    +0.005 C 
ATOM      7  C   UNL     1       1.455  -2.521  -2.524  0.00  0.00    +0.013 C 
ATOM      8  C   UNL     1       2.890  -1.991  -2.535  0.00  0.00    +0.075 C 
ATOM      9  C   UNL     1       2.870  -0.461  -2.526  0.00  0.00    +0.013 C 
ATOM     10  C   UNL     1       2.154   0.032  -1.268  0.00  0.00    +0.005 C 
BRANCH   5  12
ATOM     11  C   UNL     1      -0.019   1.526   0.010  0.00  0.00    +0.011 C 
ATOM     12  C   UNL     1       0.002  -0.004   0.002  0.00  0.00    -0.035 C 
ATOM     13  C   UNL     1       0.742  -0.511   1.242  0.00  0.00    +0.011 C 
ATOM     14  C   UNL     1      -1.433  -0.534   0.013  0.00  0.00    +0.011 C 
ENDBRANCH   5  12
ENDBRANCH   1   8
BRANCH   3  15
ATOM     15  C   UNL     1       5.616  -2.634   0.076  0.00  0.00    +0.074 C 
ATOM     16  C   UNL     1       5.384  -1.672   1.260  0.00  0.00    +0.022 C 
ATOM     17  C   UNL     1       6.741  -1.655   2.006  0.00  0.00    +0.002 C 
ATOM     18  C   UNL     1       7.769  -1.700   0.848  0.00  0.00    +0.003 C 
ATOM     19  C   UNL     1       7.132  -2.652  -0.186  0.00  0.00    -0.008 C 
BRANCH  19  20
ATOM     20  C   UNL     1       7.425  -2.158  -1.604  0.00  0.00    -0.081 C 
BRANCH  20  21
ATOM     21  N   UNL     1       8.861  -2.293  -1.883  0.00  0.00    +0.378 N 
ATOM     22  H   UNL     1       9.129  -3.263  -1.803  0.00  0.00    -0.090 HD
ATOM     23  H   UNL     1       9.054  -1.967  -2.818  0.00  0.00    -0.090 HD
ATOM     24  H   UNL     1       9.385  -1.743  -1.220  0.00  0.00    -0.090 HD
ENDBRANCH  20  21
ENDBRANCH  19  20
ENDBRANCH   3  15
TORSDOF 5
