REMARK  Name = ZINC34756449
REMARK  6 active torsions:
REMARK  status: ('A' for Active; 'I' for Inactive)
REMARK    1  A    between atoms: C_4  and  C_7
REMARK    2  A    between atoms: C_7  and  C_8
REMARK    3  A    between atoms: C_8  and  S_9
REMARK    4  A    between atoms: S_9  and  C_10
REMARK    5  A    between atoms: N_26  and  C_29
REMARK    6  A    between atoms: C_29  and  C_30
REMARK                            x       y       z     vdW  Elec       q    Type
REMARK                         _______ _______ _______ _____ _____    ______ ____
ROOT
ATOM      1  C   UNL     1       6.151  -2.054   3.083  0.00  0.00    +0.191 A 
ATOM      2  N   UNL     1       7.274  -2.676   3.420  0.00  0.00    -0.206 NA
ATOM      3  C   UNL     1       7.614  -2.879   4.682  0.00  0.00    +0.134 A 
ATOM      4  C   UNL     1       6.752  -2.419   5.716  0.00  0.00    +0.051 A 
ATOM      5  C   UNL     1       6.921  -2.534   7.167  0.00  0.00    -0.025 A 
ATOM      6  C   UNL     1       5.949  -2.009   7.939  0.00  0.00    -0.004 A 
ATOM      7  S   UNL     1       4.765  -1.339   6.802  0.00  0.00    -0.073 S 
ATOM      8  C   UNL     1       5.579  -1.768   5.286  0.00  0.00    +0.115 A 
ATOM      9  N   UNL     1       5.313  -1.599   4.005  0.00  0.00    -0.215 NA
ATOM     10  C   UNL     1       5.886  -1.997   9.437  0.00  0.00    +0.043 C 
ATOM     11  C   UNL     1       6.915  -3.002   9.973  0.00  0.00    +0.005 C 
ATOM     12  C   UNL     1       8.248  -2.771   9.255  0.00  0.00    +0.005 C 
ATOM     13  C   UNL     1       8.135  -3.212   7.795  0.00  0.00    +0.037 C 
ATOM     14  N   UNL     1       8.793  -3.532   4.992  0.00  0.00    -0.318 N 
ATOM     15  C   UNL     1       8.808  -4.978   5.262  0.00  0.00    +0.088 C 
ATOM     16  C   UNL     1       9.903  -5.621   4.404  0.00  0.00    -0.059 C 
ATOM     17  N   UNL     1      11.181  -4.944   4.655  0.00  0.00    +0.387 N 
ATOM     18  C   UNL     1      11.102  -3.546   4.213  0.00  0.00    -0.059 C 
ATOM     19  C   UNL     1      10.068  -2.801   5.056  0.00  0.00    +0.088 C 
ATOM     20  H   UNL     1      11.387  -4.972   5.642  0.00  0.00    -0.081 HD
ENDROOT
BRANCH   1  21
ATOM     21  S   UNL     1       5.769  -1.822   1.378  0.00  0.00    -0.086 S 
BRANCH  21  22
ATOM     22  C   UNL     1       4.184  -0.941   1.399  0.00  0.00    +0.082 C 
BRANCH  22  23
ATOM     23  C   UNL     1       3.731  -0.672  -0.037  0.00  0.00    +0.046 C 
BRANCH  23  27
ATOM     24  C   UNL     1      -0.003   1.404   0.010  0.00  0.00    +0.000 A 
ATOM     25  C   UNL     1       1.183   2.114   0.016  0.00  0.00    +0.000 A 
ATOM     26  C   UNL     1       2.391   1.442   0.001  0.00  0.00    +0.003 A 
ATOM     27  C   UNL     1       2.414   0.060  -0.020  0.00  0.00    -0.047 A 
ATOM     28  C   UNL     1       1.228  -0.650  -0.024  0.00  0.00    +0.003 A 
ATOM     29  C   UNL     1       0.020   0.022  -0.011  0.00  0.00    +0.000 A 
ENDBRANCH  23  27
ENDBRANCH  22  23
ENDBRANCH  21  22
ENDBRANCH   1  21
BRANCH  17  30
ATOM     30  C   UNL     1      12.250  -5.630   3.916  0.00  0.00    +0.018 C 
BRANCH  30  31
ATOM     31  C   UNL     1      13.579  -5.013   4.268  0.00  0.00    +0.194 C 
ATOM     32  O   UNL     1      13.631  -4.093   5.057  0.00  0.00    -0.278 OA
ATOM     33  N   UNL     1      14.710  -5.484   3.707  0.00  0.00    -0.331 N 
ATOM     34  H   UNL     1      14.668  -6.220   3.076  0.00  0.00    +0.145 HD
ATOM     35  H   UNL     1      15.566  -5.088   3.933  0.00  0.00    +0.145 HD
ENDBRANCH  30  31
ENDBRANCH  17  30
TORSDOF 6
