REMARK  Name = ZINC16241295
REMARK  10 active torsions:
REMARK  status: ('A' for Active; 'I' for Inactive)
REMARK    1  A    between atoms: C_1  and  C_2
REMARK    2  A    between atoms: C_3  and  N_9
REMARK    3  A    between atoms: N_9  and  C_10
REMARK    4  A    between atoms: C_10  and  N_12
REMARK    5  A    between atoms: N_12  and  C_13
REMARK    6  A    between atoms: C_13  and  C_14
REMARK    7  A    between atoms: C_14  and  C_16
REMARK    8  A    between atoms: C_14  and  N_24
REMARK    9  A    between atoms: C_21  and  O_22
REMARK   10  A    between atoms: O_22  and  C_23
REMARK                            x       y       z     vdW  Elec       q    Type
REMARK                         _______ _______ _______ _____ _____    ______ ____
ROOT
ATOM      1  C   UNL     1      -0.049  -0.991  -6.254  0.00  0.00    +0.092 C 
ENDROOT
BRANCH   1   2
ATOM      2  N   UNL     1       1.323  -1.497  -6.166  0.00  0.00    -0.328 N 
ATOM      3  H   UNL     1       1.990  -1.203  -6.806  0.00  0.00    +0.148 HD
BRANCH   2   4
ATOM      4  C   UNL     1       1.657  -2.371  -5.196  0.00  0.00    +0.134 C 
ATOM      5  S   UNL     1       0.480  -2.889  -4.067  0.00  0.00    -0.019 S 
BRANCH   4   6
ATOM      6  N   UNL     1       2.920  -2.837  -5.115  0.00  0.00    -0.297 N 
ATOM      7  H   UNL     1       3.597  -2.512  -5.729  0.00  0.00    +0.154 HD
BRANCH   6  10
ATOM      8  C   UNL     1       5.434  -2.595  -3.804  0.00  0.00    +0.047 C 
ATOM      9  C   UNL     1       4.470  -3.707  -3.481  0.00  0.00    -0.011 A 
ATOM     10  C   UNL     1       3.253  -3.788  -4.145  0.00  0.00    +0.037 A 
ATOM     11  C   UNL     1       2.368  -4.815  -3.845  0.00  0.00    +0.023 A 
ATOM     12  C   UNL     1       2.700  -5.753  -2.887  0.00  0.00    +0.003 A 
ATOM     13  C   UNL     1       3.911  -5.671  -2.226  0.00  0.00    +0.020 A 
ATOM     14  C   UNL     1       4.798  -4.652  -2.527  0.00  0.00    +0.046 A 
ATOM     15 CL   UNL     1       6.322  -4.556  -1.700  0.00  0.00    -0.083 Cl
ENDBRANCH   6  10
ENDBRANCH   4   6
ENDBRANCH   2   4
ENDBRANCH   1   2
BRANCH   1  16
ATOM     16  C   UNL     1      -0.191  -0.116  -7.501  0.00  0.00    -0.017 C 
BRANCH  16  17
ATOM     17  C   UNL     1       0.031  -0.957  -8.732  0.00  0.00    -0.018 A 
ATOM     18  C   UNL     1       1.283  -1.016  -9.313  0.00  0.00    +0.005 A 
ATOM     19  C   UNL     1       1.487  -1.787 -10.442  0.00  0.00    +0.000 A 
ATOM     20  C   UNL     1       0.439  -2.501 -10.993  0.00  0.00    +0.004 A 
ATOM     21  C   UNL     1      -0.815  -2.445 -10.416  0.00  0.00    +0.046 A 
ATOM     22  C   UNL     1      -1.021  -1.677  -9.280  0.00  0.00    +0.122 A 
BRANCH  22  23
ATOM     23  O   UNL     1      -2.253  -1.625  -8.707  0.00  0.00    -0.495 OA
ATOM     24  C   UNL     1      -3.288  -2.391  -9.325  0.00  0.00    +0.277 C 
ENDBRANCH  22  23
ENDBRANCH  16  17
BRANCH  16  25
ATOM     25  N   UNL     1       0.805   0.962  -7.459  0.00  0.00    +0.385 N 
ATOM     26  C   UNL     1       0.602   1.892  -8.600  0.00  0.00    -0.078 C 
ATOM     27  C   UNL     1       1.291   3.195  -8.121  0.00  0.00    -0.020 C 
ATOM     28  C   UNL     1       0.949   3.234  -6.614  0.00  0.00    -0.020 C 
ATOM     29  C   UNL     1       0.624   1.776  -6.238  0.00  0.00    -0.078 C 
ATOM     30  H   UNL     1       1.738   0.577  -7.485  0.00  0.00    -0.081 HD
ENDBRANCH  16  25
ENDBRANCH   1  16
TORSDOF 8
