REMARK  Name = ZINC02191803
REMARK  14 active torsions:
REMARK  status: ('A' for Active; 'I' for Inactive)
REMARK    1  A    between atoms: C_1  and  C_2
REMARK    2  A    between atoms: C_2  and  O_3
REMARK    3  A    between atoms: O_3  and  C_4
REMARK    4  A    between atoms: C_4  and  C_6
REMARK    5  A    between atoms: C_6  and  C_7
REMARK    6  A    between atoms: C_6  and  N_11
REMARK    7  A    between atoms: C_6  and  N_28
REMARK    8  A    between atoms: N_11  and  C_12
REMARK    9  A    between atoms: C_13  and  C_26
REMARK   10  A    between atoms: C_18  and  C_22
REMARK   11  A    between atoms: C_22  and  C_23
REMARK   12  A    between atoms: C_22  and  C_24
REMARK   13  A    between atoms: C_22  and  C_25
REMARK   14  A    between atoms: C_29  and  C_31
REMARK                            x       y       z     vdW  Elec       q    Type
REMARK                         _______ _______ _______ _____ _____    ______ ____
ROOT
ATOM      1  C   UNL     1      -1.376  -2.280  -0.025  0.00  0.00    +0.296 C 
ENDROOT
BRANCH   1   2
ATOM      2  C   UNL     1      -1.485  -0.790  -0.351  0.00  0.00    +0.438 C 
ATOM      3  F   UNL     1      -0.209  -0.217  -0.346  0.00  0.00    -0.166 F 
ATOM      4  F   UNL     1      -2.063  -0.629  -1.615  0.00  0.00    -0.166 F 
ATOM      5  F   UNL     1      -2.283  -0.159   0.610  0.00  0.00    -0.166 F 
ENDBRANCH   1   2
BRANCH   1   6
ATOM      6  N   UNL     1      -0.655  -2.453   1.238  0.00  0.00    -0.274 N 
ATOM      7  C   UNL     1      -1.273  -2.192   2.407  0.00  0.00    +0.246 C 
ATOM      8  O   UNL     1      -2.399  -1.734   2.411  0.00  0.00    -0.270 OA
ATOM      9  H   UNL     1       0.267  -2.755   1.234  0.00  0.00    +0.152 HD
BRANCH   7  10
ATOM     10  C   UNL     1      -0.581  -2.462   3.686  0.00  0.00    +0.037 A 
ATOM     11  C   UNL     1       0.710  -2.994   3.685  0.00  0.00    +0.013 A 
ATOM     12  C   UNL     1       1.352  -3.240   4.881  0.00  0.00    +0.001 A 
ATOM     13  C   UNL     1       0.715  -2.971   6.080  0.00  0.00    +0.000 A 
ATOM     14  C   UNL     1      -0.566  -2.448   6.087  0.00  0.00    +0.001 A 
ATOM     15  C   UNL     1      -1.217  -2.193   4.898  0.00  0.00    +0.013 A 
ENDBRANCH   7  10
ENDBRANCH   1   6
BRANCH   1  16
ATOM     16  C   UNL     1      -0.629  -2.983  -1.130  0.00  0.00    +0.359 C 
ATOM     17  O   UNL     1      -1.229  -3.669  -1.923  0.00  0.00    -0.246 OA
BRANCH  16  18
ATOM     18  O   UNL     1       0.702  -2.846  -1.232  0.00  0.00    -0.462 OA
BRANCH  18  20
ATOM     19  C   UNL     1       2.861  -3.278  -2.274  0.00  0.00    +0.048 C 
ATOM     20  C   UNL     1       1.356  -3.551  -2.320  0.00  0.00    +0.229 C 
ENDBRANCH  18  20
ENDBRANCH  16  18
ENDBRANCH   1  16
BRANCH   1  21
ATOM     21  N   UNL     1      -2.719  -2.853   0.097  0.00  0.00    -0.301 N 
ATOM     22  H   UNL     1      -3.498  -2.278   0.041  0.00  0.00    +0.149 HD
BRANCH  21  23
ATOM     23  C   UNL     1      -2.876  -4.214   0.292  0.00  0.00    +0.086 A 
ATOM     24  C   UNL     1      -4.053  -4.950   0.332  0.00  0.00    +0.083 A 
ATOM     25  C   UNL     1      -3.941  -6.383   0.550  0.00  0.00    -0.018 A 
ATOM     26  C   UNL     1      -2.682  -6.845   0.701  0.00  0.00    -0.004 A 
ATOM     27  S   UNL     1      -1.652  -5.412   0.552  0.00  0.00    -0.077 S 
ATOM     28  C   UNL     1      -2.263  -8.263   0.941  0.00  0.00    +0.047 C 
ATOM     29  C   UNL     1      -3.452  -9.180   0.619  0.00  0.00    -0.000 C 
ATOM     30  C   UNL     1      -4.704  -8.622   1.301  0.00  0.00    +0.009 C 
ATOM     31  C   UNL     1      -5.137  -7.325   0.615  0.00  0.00    +0.037 C 
BRANCH  29  32
ATOM     32  C   UNL     1      -3.168 -10.590   1.140  0.00  0.00    -0.035 C 
ATOM     33  C   UNL     1      -2.960 -10.541   2.655  0.00  0.00    +0.011 C 
ATOM     34  C   UNL     1      -4.354 -11.501   0.818  0.00  0.00    +0.011 C 
ATOM     35  C   UNL     1      -1.907 -11.138   0.470  0.00  0.00    +0.011 C 
ENDBRANCH  29  32
BRANCH  24  36
ATOM     36  C   UNL     1      -5.328  -4.321   0.162  0.00  0.00    +0.102 C 
ATOM     37  N   UNL     1      -6.340  -3.822   0.027  0.00  0.00    -0.191 NA
ENDBRANCH  24  36
ENDBRANCH  21  23
ENDBRANCH   1  21
TORSDOF 10
