REMARK  Name = ZINC40372793
REMARK  4 active torsions:
REMARK  status: ('A' for Active; 'I' for Inactive)
REMARK    1  A    between atoms: C_5  and  C_8
REMARK    2  A    between atoms: C_5  and  N_12
REMARK    3  A    between atoms: N_9  and  O_10
REMARK    4  A    between atoms: C_13  and  C_15
REMARK                            x       y       z     vdW  Elec       q    Type
REMARK                         _______ _______ _______ _____ _____    ______ ____
ROOT
ATOM      1  C   UNL     1      -0.517   1.161   0.088  0.00  0.00    +0.000 C 
ATOM      2  C   UNL     1       0.854   1.610  -0.458  0.00  0.00    +0.000 C 
ATOM      3  C   UNL     1       1.776   1.849   0.707  0.00  0.00    +0.002 C 
ATOM      4  C   UNL     1       2.635   0.614   1.042  0.00  0.00    +0.033 C 
ATOM      5  C   UNL     1       1.839  -0.704   0.972  0.00  0.00    +0.093 C 
ATOM      6  C   UNL     1       0.466  -0.580   1.575  0.00  0.00    +0.033 C 
ATOM      7  C   UNL     1      -0.536  -0.249   0.450  0.00  0.00    +0.002 C 
ENDROOT
BRANCH   5   8
ATOM      8  C   UNL     1       2.601  -1.774   1.710  0.00  0.00    +0.155 C 
ATOM      9  N   UNL     1       2.671  -1.743   3.000  0.00  0.00    -0.075 NA
ATOM     10  N   UNL     1       3.223  -2.783   1.011  0.00  0.00    -0.342 N 
ATOM     11  H   UNL     1       3.207  -2.783   0.041  0.00  0.00    +0.144 HD
ATOM     12  H   UNL     1       3.678  -3.495   1.488  0.00  0.00    +0.144 HD
BRANCH   9  13
ATOM     13  O   UNL     1       2.118  -0.652   3.714  0.00  0.00    -0.408 OA
ATOM     14  H   UNL     1       2.219  -0.718   4.673  0.00  0.00    +0.328 HD
ENDBRANCH   9  13
ENDBRANCH   5   8
BRANCH   5  15
ATOM     15  N   UNL     1       1.706  -1.103  -0.431  0.00  0.00    -0.301 N 
ATOM     16  C   UNL     1       1.132  -2.282  -0.745  0.00  0.00    +0.243 C 
ATOM     17  O   UNL     1       0.628  -2.961   0.124  0.00  0.00    -0.273 OA
ATOM     18  H   UNL     1       2.031  -0.519  -1.135  0.00  0.00    +0.150 HD
BRANCH  16  19
ATOM     19  C   UNL     1       1.117  -2.755  -2.176  0.00  0.00    +0.204 C 
ATOM     20  C   UNL     1       2.558  -3.059  -2.657  0.00  0.00    +0.043 C 
ATOM     21  C   UNL     1       2.279  -4.081  -3.793  0.00  0.00    +0.031 C 
ATOM     22  C   UNL     1       1.047  -4.840  -3.256  0.00  0.00    +0.161 C 
ATOM     23  O   UNL     1       0.412  -4.003  -2.280  0.00  0.00    -0.367 OA
ENDBRANCH  16  19
ENDBRANCH   5  15
TORSDOF 4
