REMARK  Name = ZINC64660540
REMARK  5 active torsions:
REMARK  status: ('A' for Active; 'I' for Inactive)
REMARK    1  A    between atoms: C_1  and  C_2
REMARK    2  A    between atoms: C_6  and  N_9
REMARK    3  A    between atoms: C_7  and  C_8
REMARK    4  A    between atoms: C_10  and  C_12
REMARK    5  A    between atoms: C_12  and  N_13
REMARK                            x       y       z     vdW  Elec       q    Type
REMARK                         _______ _______ _______ _____ _____    ______ ____
ROOT
ATOM      1  N   UNL     1       0.417  -6.326   3.404  0.00  0.00    -0.257 N 
ATOM      2  C   UNL     1       1.714  -6.863   3.474  0.00  0.00    +0.058 A 
ATOM      3  C   UNL     1       2.656  -5.908   3.808  0.00  0.00    +0.025 A 
ATOM      4  C   UNL     1       3.989  -6.266   3.920  0.00  0.00    +0.002 A 
ATOM      5  C   UNL     1       4.378  -7.573   3.700  0.00  0.00    +0.002 A 
ATOM      6  C   UNL     1       3.439  -8.534   3.366  0.00  0.00    +0.025 A 
ATOM      7  C   UNL     1       2.105  -8.184   3.253  0.00  0.00    +0.053 A 
ATOM      8  N   UNL     1       1.301  -9.280   2.912  0.00  0.00    -0.316 N 
ATOM      9  C   UNL     1      -0.058  -9.331   2.716  0.00  0.00    +0.016 C 
ATOM     10  C   UNL     1      -0.751 -10.629   2.355  0.00  0.00    +0.051 C 
ATOM     11  C   UNL     1      -2.246 -10.381   2.653  0.00  0.00    +0.011 C 
ATOM     12  C   UNL     1      -2.348  -8.848   2.502  0.00  0.00    +0.042 C 
ATOM     13  C   UNL     1      -0.956  -8.328   2.799  0.00  0.00    +0.032 C 
ATOM     14  H   UNL     1       1.770 -10.122   2.799  0.00  0.00    +0.152 HD
ATOM     15  C   UNL     1      -0.733  -6.963   3.116  0.00  0.00    +0.249 C 
ATOM     16  O   UNL     1      -1.729  -6.264   3.124  0.00  0.00    -0.270 OA
ENDROOT
BRANCH   1  17
ATOM     17  C   UNL     1       0.302  -4.893   3.684  0.00  0.00    +0.210 C 
BRANCH  17  19
ATOM     18  N   UNL     1       0.142  -3.426   5.669  0.00  0.00    -0.284 N 
ATOM     19  C   UNL     1       0.248  -4.675   5.174  0.00  0.00    +0.235 C 
ATOM     20  O   UNL     1       0.301  -5.623   5.928  0.00  0.00    -0.274 OA
ATOM     21  H   UNL     1       0.020  -2.674   5.068  0.00  0.00    +0.155 HD
BRANCH  18  27
ATOM     22  C   UNL     1      -0.965  -0.662   9.581  0.00  0.00    +0.044 C 
ATOM     23  C   UNL     1      -0.321  -1.881   8.973  0.00  0.00    -0.046 A 
ATOM     24  C   UNL     1       0.336  -2.791   9.782  0.00  0.00    +0.004 A 
ATOM     25  C   UNL     1       0.927  -3.911   9.228  0.00  0.00    +0.002 A 
ATOM     26  C   UNL     1       0.865  -4.125   7.865  0.00  0.00    +0.023 A 
ATOM     27  C   UNL     1       0.206  -3.213   7.050  0.00  0.00    +0.037 A 
ATOM     28  C   UNL     1      -0.392  -2.091   7.611  0.00  0.00    -0.026 A 
ATOM     29  C   UNL     1      -1.112  -1.102   6.731  0.00  0.00    +0.046 C 
ENDBRANCH  18  27
ENDBRANCH  17  19
ENDBRANCH   1  17
TORSDOF 3
