REMARK  Name = ZINC39638542
REMARK  11 active torsions:
REMARK  status: ('A' for Active; 'I' for Inactive)
REMARK    1  A    between atoms: C_1  and  C_2
REMARK    2  A    between atoms: C_2  and  C_3
REMARK    3  A    between atoms: C_3  and  C_4
REMARK    4  A    between atoms: C_4  and  C_6
REMARK    5  A    between atoms: C_4  and  C_7
REMARK    6  A    between atoms: C_11  and  C_20
REMARK    7  A    between atoms: N_22  and  C_23
REMARK    8  A    between atoms: C_23  and  C_24
REMARK    9  A    between atoms: C_29  and  O_30
REMARK   10  A    between atoms: O_30  and  C_31
REMARK   11  A    between atoms: C_31  and  C_32
REMARK                            x       y       z     vdW  Elec       q    Type
REMARK                         _______ _______ _______ _____ _____    ______ ____
ROOT
ATOM      1  C   UNL     1       1.655  -2.556   2.526  0.00  0.00    +0.218 C 
ATOM      2  O   UNL     1       2.232  -1.786   3.265  0.00  0.00    -0.275 OA
ATOM      3  N   UNL     1       1.824  -3.885   2.673  0.00  0.00    -0.300 N 
ATOM      4  C   UNL     1       1.215  -4.972   1.871  0.00  0.00    +0.121 C 
ATOM      5  C   UNL     1       2.342  -6.016   1.709  0.00  0.00    +0.100 C 
ATOM      6  C   UNL     1       3.286  -5.762   2.896  0.00  0.00    -0.004 C 
ATOM      7  C   UNL     1       2.665  -4.590   3.670  0.00  0.00    +0.115 C 
ATOM      8  C   UNL     1       4.675  -5.378   2.394  0.00  0.00    -0.010 C 
ATOM      9  C   UNL     1       5.610  -5.186   3.592  0.00  0.00    -0.082 C 
ATOM     10  N   UNL     1       5.674  -6.430   4.369  0.00  0.00    +0.379 N 
ATOM     11  C   UNL     1       4.352  -6.742   4.925  0.00  0.00    -0.082 C 
ATOM     12  C   UNL     1       3.364  -7.000   3.784  0.00  0.00    -0.010 C 
ATOM     13  H   UNL     1       5.972  -7.185   3.769  0.00  0.00    -0.086 HD
ATOM     14  H   UNL     1       6.337  -6.321   5.122  0.00  0.00    -0.086 HD
ENDROOT
BRANCH   5  15
ATOM     15  C   UNL     1       1.777  -7.412   1.774  0.00  0.00    +0.218 C 
ATOM     16  O   UNL     1       0.796  -7.638   2.451  0.00  0.00    -0.275 OA
ATOM     17  N   UNL     1       2.362  -8.409   1.082  0.00  0.00    -0.311 N 
ATOM     18  H   UNL     1       3.147  -8.228   0.541  0.00  0.00    +0.149 HD
BRANCH  17  19
ATOM     19  C   UNL     1       1.813  -9.766   1.145  0.00  0.00    +0.143 C 
BRANCH  19  20
ATOM     20  C   UNL     1       2.645 -10.685   0.288  0.00  0.00    +0.011 A 
ATOM     21  C   UNL     1       2.215 -11.025  -0.980  0.00  0.00    +0.009 A 
ATOM     22  C   UNL     1       2.977 -11.868  -1.767  0.00  0.00    +0.001 A 
ATOM     23  C   UNL     1       4.171 -12.374  -1.287  0.00  0.00    +0.004 A 
ATOM     24  C   UNL     1       4.606 -12.036  -0.020  0.00  0.00    +0.046 A 
ATOM     25  C   UNL     1       3.845 -11.186   0.769  0.00  0.00    +0.125 A 
BRANCH  25  26
ATOM     26  O   UNL     1       4.274 -10.848   2.014  0.00  0.00    -0.492 OA
BRANCH  26  27
ATOM     27  C   UNL     1       5.519 -11.401   2.444  0.00  0.00    +0.225 C 
ATOM     28  C   UNL     1       5.833 -10.912   3.859  0.00  0.00    +0.048 C 
ENDBRANCH  26  27
ENDBRANCH  25  26
ENDBRANCH  19  20
ENDBRANCH  17  19
ENDBRANCH   5  15
BRANCH   1  29
ATOM     29  C   UNL     1       0.751  -2.026   1.444  0.00  0.00    +0.072 C 
ATOM     30  C   UNL     1      -0.668  -2.556   1.660  0.00  0.00    +0.017 C 
BRANCH  29  31
ATOM     31  C   UNL     1       0.737  -0.497   1.494  0.00  0.00    +0.012 C 
BRANCH  31  33
ATOM     32  C   UNL     1      -0.095   1.574   0.370  0.00  0.00    +0.004 C 
ATOM     33  C   UNL     1      -0.081   0.045   0.320  0.00  0.00    -0.003 C 
ENDBRANCH  31  33
ENDBRANCH  29  31
ENDBRANCH   1  29
TORSDOF 8
