REMARK  Name = ZINC20170811
REMARK  10 active torsions:
REMARK  status: ('A' for Active; 'I' for Inactive)
REMARK    1  A    between atoms: C_1  and  C_2
REMARK    2  A    between atoms: C_7  and  N_8
REMARK    3  A    between atoms: C_9  and  C_11
REMARK    4  A    between atoms: C_11  and  S_12
REMARK    5  A    between atoms: S_12  and  C_13
REMARK    6  A    between atoms: C_14  and  C_36
REMARK    7  A    between atoms: C_15  and  C_31
REMARK    8  A    between atoms: C_17  and  C_21
REMARK    9  A    between atoms: C_18  and  C_20
REMARK   10  A    between atoms: N_23  and  C_24
REMARK                            x       y       z     vdW  Elec       q    Type
REMARK                         _______ _______ _______ _____ _____    ______ ____
ROOT
ATOM      1  C   UNL     1      -1.044  -0.490  -0.324  0.00  0.00    +0.080 C 
ATOM      2  C   UNL     1       0.076  -1.203  -0.032  0.00  0.00    +0.072 C 
ATOM      3  C   UNL     1       1.355  -0.519   0.361  0.00  0.00    +0.134 C 
ATOM      4  C   UNL     1       1.313   0.938   0.003  0.00  0.00    +0.047 C 
ATOM      5  C   UNL     1       0.160   1.562  -0.286  0.00  0.00    +0.015 C 
ATOM      6  N   UNL     1      -1.030   0.886  -0.273  0.00  0.00    -0.312 N 
ATOM      7  C   UNL     1       0.176   3.029  -0.630  0.00  0.00    +0.061 C 
ATOM      8  H   UNL     1      -1.976   1.444  -0.223  0.00  0.00    +0.152 HD
ENDROOT
BRANCH   3   9
ATOM      9  C   UNL     1       1.554  -0.658   1.849  0.00  0.00    +0.118 A 
ATOM     10  C   UNL     1       2.598  -1.255   2.451  0.00  0.00    +0.045 A 
ATOM     11  C   UNL     1       2.379  -1.157   3.844  0.00  0.00    +0.041 A 
ATOM     12  C   UNL     1       1.214  -0.505   4.010  0.00  0.00    +0.195 A 
ATOM     13  O   UNL     1       0.722  -0.200   2.799  0.00  0.00    -0.467 OA
ENDBRANCH   3   9
BRANCH   4  14
ATOM     14  C   UNL     1       2.522   1.674  -0.031  0.00  0.00    +0.247 C 
ATOM     15  O   UNL     1       2.506   2.857  -0.320  0.00  0.00    -0.270 OA
ATOM     16  N   UNL     1       3.690   1.066   0.256  0.00  0.00    -0.279 N 
ATOM     17  H   UNL     1       3.696   0.017   0.588  0.00  0.00    +0.155 HD
BRANCH  16  18
ATOM     18  C   UNL     1       4.894   1.768   0.131  0.00  0.00    +0.069 A 
ATOM     19  C   UNL     1       4.942   3.124   0.425  0.00  0.00    +0.026 A 
ATOM     20  C   UNL     1       6.133   3.814   0.306  0.00  0.00    +0.002 A 
ATOM     21  C   UNL     1       7.275   3.159  -0.116  0.00  0.00    +0.003 A 
ATOM     22  C   UNL     1       7.231   1.809  -0.415  0.00  0.00    +0.040 A 
ATOM     23  C   UNL     1       6.044   1.111  -0.293  0.00  0.00    +0.144 A 
ATOM     24  F   UNL     1       6.001  -0.207  -0.586  0.00  0.00    -0.204 F 
ENDBRANCH  16  18
ENDBRANCH   4  14
BRANCH   2  25
ATOM     25  C   UNL     1       0.037  -2.633  -0.100  0.00  0.00    +0.098 C 
ATOM     26  N   UNL     1       0.005  -3.768  -0.154  0.00  0.00    -0.191 NA
ENDBRANCH   2  25
BRANCH   1  27
ATOM     27  S   UNL     1      -2.526  -1.333  -0.770  0.00  0.00    -0.100 S 
BRANCH  27  28
ATOM     28  C   UNL     1      -3.625   0.080  -1.032  0.00  0.00    +0.171 C 
BRANCH  28  30
ATOM     29  N   UNL     1      -5.980   0.468  -1.683  0.00  0.00    -0.285 N 
ATOM     30  C   UNL     1      -4.991  -0.413  -1.434  0.00  0.00    +0.227 C 
ATOM     31  O   UNL     1      -5.201  -1.604  -1.533  0.00  0.00    -0.275 OA
ATOM     32  H   UNL     1      -5.771   1.548  -1.665  0.00  0.00    +0.155 HD
BRANCH  29  39
ATOM     33  C   UNL     1      -8.185   2.007  -0.751  0.00  0.00    +0.045 C 
ATOM     34  C   UNL     1      -8.376   0.730  -1.528  0.00  0.00    -0.029 A 
ATOM     35  C   UNL     1      -9.650   0.277  -1.812  0.00  0.00    +0.005 A 
ATOM     36  C   UNL     1      -9.826  -0.897  -2.520  0.00  0.00    +0.000 A 
ATOM     37  C   UNL     1      -8.728  -1.620  -2.950  0.00  0.00    +0.002 A 
ATOM     38  C   UNL     1      -7.452  -1.170  -2.675  0.00  0.00    +0.023 A 
ATOM     39  C   UNL     1      -7.272   0.010  -1.964  0.00  0.00    +0.036 A 
ENDBRANCH  29  39
ENDBRANCH  28  30
ENDBRANCH  27  28
ENDBRANCH   1  27
TORSDOF 8
