REMARK  Name = ZINC39934907
REMARK  10 active torsions:
REMARK  status: ('A' for Active; 'I' for Inactive)
REMARK    1  A    between atoms: C_1  and  O_2
REMARK    2  A    between atoms: O_2  and  C_3
REMARK    3  A    between atoms: C_8  and  C_13
REMARK    4  A    between atoms: C_13  and  C_33
REMARK    5  A    between atoms: C_14  and  C_15
REMARK    6  A    between atoms: C_18  and  O_23
REMARK    7  A    between atoms: C_19  and  O_21
REMARK    8  A    between atoms: O_21  and  C_22
REMARK    9  A    between atoms: O_23  and  C_24
REMARK   10  A    between atoms: C_24  and  C_25
REMARK                            x       y       z     vdW  Elec       q    Type
REMARK                         _______ _______ _______ _____ _____    ______ ____
ROOT
ATOM      1  C   UNL     1       5.132  -6.546   3.974  0.00  0.00    -0.020 A 
ATOM      2  C   UNL     1       6.090  -6.071   3.072  0.00  0.00    +0.012 A 
ATOM      3  C   UNL     1       7.245  -6.790   2.852  0.00  0.00    +0.050 A 
ATOM      4  C   UNL     1       7.461  -7.985   3.524  0.00  0.00    +0.162 A 
ATOM      5  C   UNL     1       6.511  -8.465   4.425  0.00  0.00    +0.162 A 
ATOM      6  C   UNL     1       5.353  -7.748   4.655  0.00  0.00    +0.057 A 
ENDROOT
BRANCH   1   8
ATOM      7  C   UNL     1       3.300  -5.133   3.189  0.00  0.00    +0.072 C 
ATOM      8  C   UNL     1       3.898  -5.781   4.211  0.00  0.00    +0.026 C 
BRANCH   7  14
ATOM      9  C   UNL     1      -0.579  -2.421   0.198  0.00  0.00    +0.122 A 
ATOM     10  C   UNL     1       0.343  -1.305   0.372  0.00  0.00    +0.048 A 
ATOM     11  C   UNL     1       1.358  -1.353   1.254  0.00  0.00    +0.031 A 
ATOM     12  C   UNL     1       1.557  -2.557   2.075  0.00  0.00    +0.061 A 
ATOM     13  N   UNL     1       2.439  -2.861   2.983  0.00  0.00    -0.359 N 
ATOM     14  C   UNL     1       2.134  -4.216   3.458  0.00  0.00    +0.216 C 
ATOM     15  N   UNL     1       0.956  -4.664   2.707  0.00  0.00    -0.359 N 
ATOM     16  C   UNL     1       0.617  -3.696   1.898  0.00  0.00    +0.064 A 
ATOM     17  C   UNL     1      -0.464  -3.562   0.920  0.00  0.00    +0.073 A 
ATOM     18  H   UNL     1       3.165  -2.296   3.289  0.00  0.00    +0.162 HD
ATOM     19  H   UNL     1       0.510  -5.521   2.795  0.00  0.00    +0.162 HD
BRANCH   9  21
ATOM     20  C   UNL     1      -1.661  -1.090  -1.445  0.00  0.00    +0.277 C 
ATOM     21  O   UNL     1      -1.582  -2.312  -0.709  0.00  0.00    -0.495 OA
ENDBRANCH   9  21
ENDBRANCH   7  14
BRANCH   7  22
ATOM     22  C   UNL     1       3.772  -5.317   1.850  0.00  0.00    +0.099 C 
ATOM     23  N   UNL     1       4.146  -5.463   0.788  0.00  0.00    -0.191 NA
ENDBRANCH   7  22
ENDBRANCH   1   8
BRANCH   5  24
ATOM     24  O   UNL     1       6.727  -9.637   5.081  0.00  0.00    -0.491 OA
ATOM     25  C   UNL     1       5.712 -10.068   5.989  0.00  0.00    +0.277 C 
ENDBRANCH   5  24
BRANCH   4  26
ATOM     26  O   UNL     1       8.601  -8.690   3.303  0.00  0.00    -0.484 OA
BRANCH  26  27
ATOM     27  C   UNL     1       9.531  -8.142   2.367  0.00  0.00    +0.264 C 
BRANCH  27  28
ATOM     28  C   UNL     1      10.725  -9.054   2.252  0.00  0.00    -0.009 A 
ATOM     29  C   UNL     1      11.811  -8.879   3.090  0.00  0.00    +0.008 A 
ATOM     30  C   UNL     1      12.907  -9.715   2.986  0.00  0.00    +0.022 A 
ATOM     31  C   UNL     1      12.918 -10.727   2.043  0.00  0.00    +0.059 A 
ATOM     32  C   UNL     1      11.831 -10.902   1.204  0.00  0.00    +0.060 A 
ATOM     33  C   UNL     1      10.732 -10.068   1.313  0.00  0.00    +0.028 A 
ATOM     34 CL   UNL     1      11.843 -12.171   0.019  0.00  0.00    -0.082 Cl
ATOM     35 CL   UNL     1      14.294 -11.776   1.911  0.00  0.00    -0.082 Cl
ENDBRANCH  27  28
ENDBRANCH  26  27
ENDBRANCH   4  26
TORSDOF 8
