REMARK  Name = ZINC45396656
REMARK  10 active torsions:
REMARK  status: ('A' for Active; 'I' for Inactive)
REMARK    1  A    between atoms: C_1  and  N_2
REMARK    2  A    between atoms: N_2  and  C_3
REMARK    3  A    between atoms: N_2  and  C_4
REMARK    4  A    between atoms: C_4  and  C_6
REMARK    5  A    between atoms: C_4  and  C_23
REMARK    6  A    between atoms: C_6  and  N_7
REMARK    7  A    between atoms: C_8  and  C_10
REMARK    8  A    between atoms: C_13  and  S_16
REMARK    9  A    between atoms: S_16  and  N_19
REMARK   10  A    between atoms: N_19  and  C_20
REMARK                            x       y       z     vdW  Elec       q    Type
REMARK                         _______ _______ _______ _____ _____    ______ ____
ROOT
ATOM      1  N   UNL     1      -0.964  -2.611   0.830  0.00  0.00    -0.313 N 
ATOM      2  C   UNL     1      -1.053  -3.951   0.934  0.00  0.00    +0.244 C 
ATOM      3  O   UNL     1      -1.722  -4.580   0.137  0.00  0.00    -0.270 OA
ATOM      4  H   UNL     1      -0.430  -2.109   1.467  0.00  0.00    +0.149 HD
ENDROOT
BRANCH   2   5
ATOM      5  C   UNL     1      -0.339  -4.658   2.019  0.00  0.00    +0.037 A 
ATOM      6  C   UNL     1       0.424  -3.939   2.940  0.00  0.00    +0.015 A 
ATOM      7  C   UNL     1       1.088  -4.605   3.950  0.00  0.00    +0.029 A 
ATOM      8  C   UNL     1       0.999  -5.982   4.050  0.00  0.00    +0.105 A 
ATOM      9  C   UNL     1       0.244  -6.700   3.140  0.00  0.00    +0.029 A 
ATOM     10  C   UNL     1      -0.430  -6.046   2.129  0.00  0.00    +0.015 A 
BRANCH   8  11
ATOM     11  S   UNL     1       1.850  -6.824   5.343  0.00  0.00    +0.059 S 
ATOM     12  O   UNL     1       2.050  -8.158   4.896  0.00  0.00    -0.153 OA
ATOM     13  O   UNL     1       2.926  -5.983   5.735  0.00  0.00    -0.153 OA
BRANCH  11  14
ATOM     14  N   UNL     1       0.818  -6.907   6.635  0.00  0.00    -0.187 NA
ATOM     15  H   UNL     1       1.032  -6.439   7.457  0.00  0.00    +0.148 HD
BRANCH  14  16
ATOM     16  C   UNL     1      -0.417  -7.688   6.537  0.00  0.00    +0.077 C 
ATOM     17  C   UNL     1      -1.640  -7.175   7.301  0.00  0.00    +0.022 C 
ATOM     18  C   UNL     1      -0.894  -8.417   7.795  0.00  0.00    +0.022 C 
ENDBRANCH  14  16
ENDBRANCH  11  14
ENDBRANCH   8  11
ENDBRANCH   2   5
BRANCH   1  19
ATOM     19  C   UNL     1      -1.671  -1.910  -0.244  0.00  0.00    +0.094 C 
BRANCH  19  20
ATOM     20  C   UNL     1      -1.510  -0.400  -0.062  0.00  0.00    -0.020 C 
BRANCH  20  21
ATOM     21  C   UNL     1      -0.062  -0.024  -0.247  0.00  0.00    -0.041 A 
ATOM     22  C   UNL     1       0.770   0.082   0.852  0.00  0.00    +0.003 A 
ATOM     23  C   UNL     1       2.098   0.427   0.683  0.00  0.00    +0.000 A 
ATOM     24  C   UNL     1       2.595   0.666  -0.585  0.00  0.00    +0.001 A 
ATOM     25  C   UNL     1       1.764   0.561  -1.684  0.00  0.00    +0.020 A 
ATOM     26  C   UNL     1       0.436   0.210  -1.516  0.00  0.00    +0.043 A 
ATOM     27 CL   UNL     1      -0.607   0.071  -2.897  0.00  0.00    -0.083 Cl
ENDBRANCH  20  21
BRANCH  20  29
ATOM     28  C   UNL     1      -1.832   1.436   1.449  0.00  0.00    -0.096 C 
ATOM     29  N   UNL     1      -1.946  -0.020   1.288  0.00  0.00    +0.382 N 
ATOM     30  C   UNL     1      -3.344  -0.426   1.483  0.00  0.00    -0.096 C 
ATOM     31  H   UNL     1      -1.364  -0.480   1.972  0.00  0.00    -0.082 HD
ENDBRANCH  20  29
ENDBRANCH  19  20
ENDBRANCH   1  19
TORSDOF 8
