REMARK  Name = ZINC16022076
REMARK  9 active torsions:
REMARK  status: ('A' for Active; 'I' for Inactive)
REMARK    1  A    between atoms: C_1  and  C_2
REMARK    2  A    between atoms: C_2  and  C_3
REMARK    3  A    between atoms: C_3  and  C_5
REMARK    4  A    between atoms: C_3  and  N_6
REMARK    5  A    between atoms: C_11  and  C_30
REMARK    6  A    between atoms: C_22  and  C_29
REMARK    7  A    between atoms: C_23  and  C_28
REMARK    8  A    between atoms: C_30  and  C_31
REMARK    9  A    between atoms: C_34  and  O_37
REMARK                            x       y       z     vdW  Elec       q    Type
REMARK                         _______ _______ _______ _____ _____    ______ ____
ROOT
ATOM      1  N   UNL     1       2.148  -0.104   1.172  0.00  0.00    -0.239 N 
ATOM      2  C   UNL     1       2.959  -0.473   0.174  0.00  0.00    +0.227 C 
ATOM      3  O   UNL     1       2.640  -1.167  -0.768  0.00  0.00    -0.275 OA
ATOM      4  C   UNL     1       4.335   0.111   0.402  0.00  0.00    +0.107 C 
ATOM      5  C   UNL     1       5.322  -1.032   0.722  0.00  0.00    +0.072 C 
ATOM      6  N   UNL     1       6.095  -0.551   1.898  0.00  0.00    -0.295 NA
ATOM      7  C   UNL     1       5.096   0.153   2.724  0.00  0.00    +0.136 C 
ATOM      8  C   UNL     1       4.172   0.901   1.731  0.00  0.00    +0.122 C 
ATOM      9  C   UNL     1       2.723   0.672   2.098  0.00  0.00    +0.228 C 
ATOM     10  O   UNL     1       2.170   1.119   3.079  0.00  0.00    -0.275 OA
ATOM     11  C   UNL     1       5.749   1.104   3.686  0.00  0.00    +0.004 A 
ATOM     12  C   UNL     1       6.575   2.195   3.526  0.00  0.00    +0.008 A 
ATOM     13  C   UNL     1       7.028   2.888   4.635  0.00  0.00    +0.004 A 
ATOM     14  C   UNL     1       6.649   2.483   5.902  0.00  0.00    -0.046 A 
ATOM     15  C   UNL     1       5.821   1.392   6.066  0.00  0.00    -0.026 A 
ATOM     16  C   UNL     1       5.361   0.688   4.955  0.00  0.00    +0.042 A 
ATOM     17  N   UNL     1       4.528  -0.429   4.864  0.00  0.00    -0.283 N 
ATOM     18  C   UNL     1       4.323  -0.807   3.587  0.00  0.00    +0.243 C 
ATOM     19  O   UNL     1       3.647  -1.740   3.207  0.00  0.00    -0.273 OA
ATOM     20  C   UNL     1       5.414   0.959   7.451  0.00  0.00    +0.046 C 
ATOM     21  C   UNL     1       7.144   3.237   7.109  0.00  0.00    +0.044 C 
ATOM     22  H   UNL     1       6.502  -1.323   2.403  0.00  0.00    +0.124 HD
ATOM     23  H   UNL     1       4.141  -0.881   5.630  0.00  0.00    +0.155 HD
ENDROOT
BRANCH   1  24
ATOM     24  C   UNL     1       0.742  -0.511   1.242  0.00  0.00    +0.081 C 
ATOM     25  C   UNL     1       0.655  -2.037   1.299  0.00  0.00    +0.028 C 
BRANCH  24  27
ATOM     26  C   UNL     1      -0.019   1.526   0.010  0.00  0.00    +0.006 C 
ATOM     27  C   UNL     1       0.002  -0.004   0.002  0.00  0.00    +0.019 C 
ENDBRANCH  24  27
ENDBRANCH   1  24
BRANCH   5  28
ATOM     28  C   UNL     1       6.254  -1.279  -0.466  0.00  0.00    +0.054 C 
BRANCH  28  29
ATOM     29  C   UNL     1       7.125  -2.475  -0.181  0.00  0.00    -0.046 A 
ATOM     30  C   UNL     1       8.343  -2.308   0.451  0.00  0.00    +0.007 A 
ATOM     31  C   UNL     1       9.143  -3.403   0.713  0.00  0.00    +0.045 A 
ATOM     32  C   UNL     1       8.723  -4.672   0.341  0.00  0.00    +0.117 A 
ATOM     33  C   UNL     1       7.500  -4.838  -0.292  0.00  0.00    +0.045 A 
ATOM     34  C   UNL     1       6.701  -3.740  -0.547  0.00  0.00    +0.007 A 
BRANCH  32  35
ATOM     35  O   UNL     1       9.509  -5.751   0.597  0.00  0.00    -0.507 OA
ATOM     36  H   UNL     1       9.344  -6.163   1.456  0.00  0.00    +0.292 HD
ENDBRANCH  32  35
ENDBRANCH  28  29
ENDBRANCH   5  28
TORSDOF 5
