REMARK  Name = ZINC09261796
REMARK  10 active torsions:
REMARK  status: ('A' for Active; 'I' for Inactive)
REMARK    1  A    between atoms: C_1  and  C_2
REMARK    2  A    between atoms: C_6  and  N_9
REMARK    3  A    between atoms: C_7  and  C_8
REMARK    4  A    between atoms: C_10  and  C_12
REMARK    5  A    between atoms: C_12  and  S_13
REMARK    6  A    between atoms: S_13  and  C_14
REMARK    7  A    between atoms: C_17  and  C_20
REMARK    8  A    between atoms: N_18  and  C_19
REMARK    9  A    between atoms: C_20  and  N_21
REMARK   10  A    between atoms: C_22  and  C_24
REMARK                            x       y       z     vdW  Elec       q    Type
REMARK                         _______ _______ _______ _____ _____    ______ ____
ROOT
ATOM      1  C   UNL     1      -1.451   7.972  -0.397  0.00  0.00    +0.192 A 
ATOM      2  N   UNL     1      -0.287   8.578  -0.393  0.00  0.00    -0.122 NA
ATOM      3  N   UNL     1      -0.455   9.849  -0.493  0.00  0.00    -0.132 NA
ATOM      4  C   UNL     1      -1.726  10.127  -0.557  0.00  0.00    +0.151 A 
ATOM      5  N   UNL     1      -2.407   8.943  -0.499  0.00  0.00    -0.308 N 
ATOM      6  C   UNL     1      -3.859   8.753  -0.537  0.00  0.00    +0.152 C 
ENDROOT
BRANCH   1   7
ATOM      7  S   UNL     1      -1.729   6.236  -0.285  0.00  0.00    -0.077 S 
BRANCH   7   8
ATOM      8  C   UNL     1      -0.020   5.650  -0.184  0.00  0.00    +0.173 C 
BRANCH   8  10
ATOM      9  N   UNL     1       1.162   3.485   0.009  0.00  0.00    -0.285 N 
ATOM     10  C   UNL     1      -0.009   4.147  -0.078  0.00  0.00    +0.227 C 
ATOM     11  O   UNL     1      -1.055   3.532  -0.072  0.00  0.00    -0.275 OA
ATOM     12  H   UNL     1       1.993   3.979   0.085  0.00  0.00    +0.155 HD
BRANCH   9  18
ATOM     13  C   UNL     1       3.389  -0.737   1.187  0.00  0.00    +0.044 C 
ATOM     14  C   UNL     1       2.245   0.014   0.554  0.00  0.00    -0.046 A 
ATOM     15  C   UNL     1       1.211  -0.680  -0.045  0.00  0.00    +0.004 A 
ATOM     16  C   UNL     1       0.160   0.005  -0.627  0.00  0.00    +0.002 A 
ATOM     17  C   UNL     1       0.141   1.386  -0.611  0.00  0.00    +0.023 A 
ATOM     18  C   UNL     1       1.178   2.086  -0.009  0.00  0.00    +0.037 A 
ATOM     19  C   UNL     1       2.232   1.395   0.575  0.00  0.00    -0.026 A 
ATOM     20  C   UNL     1       3.359   2.151   1.229  0.00  0.00    +0.046 C 
ENDBRANCH   9  18
ENDBRANCH   8  10
ENDBRANCH   7   8
ENDBRANCH   1   7
BRANCH   4  21
ATOM     21  C   UNL     1      -2.334  11.501  -0.675  0.00  0.00    +0.181 C 
BRANCH  21  22
ATOM     22  N   UNL     1      -2.580  12.043   0.664  0.00  0.00    -0.304 N 
ATOM     23  C   UNL     1      -3.124  13.268   0.807  0.00  0.00    +0.245 C 
ATOM     24  O   UNL     1      -3.410  13.924  -0.176  0.00  0.00    -0.270 OA
ATOM     25  H   UNL     1      -2.352  11.519   1.448  0.00  0.00    +0.149 HD
BRANCH  23  26
ATOM     26  C   UNL     1      -3.372  13.814   2.157  0.00  0.00    +0.051 A 
ATOM     27  C   UNL     1      -3.050  13.061   3.288  0.00  0.00    +0.014 A 
ATOM     28  C   UNL     1      -3.280  13.578   4.546  0.00  0.00    +0.001 A 
ATOM     29  C   UNL     1      -3.837  14.837   4.689  0.00  0.00    +0.001 A 
ATOM     30  C   UNL     1      -4.164  15.586   3.574  0.00  0.00    +0.016 A 
ATOM     31  C   UNL     1      -3.935  15.083   2.308  0.00  0.00    +0.030 A 
ATOM     32 BR   UNL     1      -4.382  16.109   0.784  0.00  0.00    -0.050 Br
ENDBRANCH  23  26
ENDBRANCH  21  22
ENDBRANCH   4  21
TORSDOF 7
