REMARK  Name = ZINC16632964
REMARK  11 active torsions:
REMARK  status: ('A' for Active; 'I' for Inactive)
REMARK    1  A    between atoms: C_1  and  C_2
REMARK    2  A    between atoms: C_3  and  C_32
REMARK    3  A    between atoms: N_4  and  C_25
REMARK    4  A    between atoms: C_5  and  N_9
REMARK    5  A    between atoms: C_6  and  C_7
REMARK    6  A    between atoms: C_10  and  C_12
REMARK    7  A    between atoms: C_12  and  S_13
REMARK    8  A    between atoms: S_13  and  C_14
REMARK    9  A    between atoms: C_17  and  C_20
REMARK   10  A    between atoms: N_18  and  N_19
REMARK   11  A    between atoms: C_25  and  C_26
REMARK                            x       y       z     vdW  Elec       q    Type
REMARK                         _______ _______ _______ _____ _____    ______ ____
ROOT
ATOM      1  N   UNL     1      -5.388   3.798   0.246  0.00  0.00    -0.270 N 
ATOM      2  C   UNL     1      -4.695   4.471   1.185  0.00  0.00    +0.229 C 
ATOM      3  O   UNL     1      -5.282   5.146   2.005  0.00  0.00    -0.275 OA
ATOM      4  H   UNL     1      -4.917   3.271  -0.419  0.00  0.00    +0.156 HD
ENDROOT
BRANCH   1   9
ATOM      5  C   UNL     1     -10.163   5.451   0.167  0.00  0.00    +0.047 C 
ATOM      6  C   UNL     1      -8.940   4.571   0.194  0.00  0.00    -0.011 A 
ATOM      7  C   UNL     1      -8.919   3.228   0.213  0.00  0.00    +0.022 A 
ATOM      8  N   UNL     1      -7.620   2.796   0.229  0.00  0.00    -0.327 N 
ATOM      9  C   UNL     1      -6.774   3.858   0.229  0.00  0.00    +0.124 A 
ATOM     10  C   UNL     1      -7.540   5.014   0.203  0.00  0.00    +0.095 A 
ATOM     11  C   UNL     1     -10.134   2.337   0.212  0.00  0.00    +0.064 C 
BRANCH  10  12
ATOM     12  C   UNL     1      -7.064   6.365   0.190  0.00  0.00    +0.103 C 
ATOM     13  N   UNL     1      -6.686   7.436   0.179  0.00  0.00    -0.191 NA
ENDBRANCH  10  12
BRANCH   8  14
ATOM     14  C   UNL     1      -7.203   1.391   0.247  0.00  0.00    +0.158 C 
BRANCH  14  15
ATOM     15  C   UNL     1      -6.979   0.952   1.671  0.00  0.00    -0.028 A 
ATOM     16  C   UNL     1      -5.781   1.234   2.301  0.00  0.00    +0.005 A 
ATOM     17  C   UNL     1      -5.577   0.835   3.609  0.00  0.00    +0.000 A 
ATOM     18  C   UNL     1      -6.567   0.146   4.284  0.00  0.00    +0.000 A 
ATOM     19  C   UNL     1      -7.763  -0.141   3.652  0.00  0.00    +0.000 A 
ATOM     20  C   UNL     1      -7.969   0.263   2.346  0.00  0.00    +0.005 A 
ENDBRANCH  14  15
ENDBRANCH   8  14
ENDBRANCH   1   9
BRANCH   2  21
ATOM     21  C   UNL     1      -3.191   4.387   1.218  0.00  0.00    +0.173 C 
BRANCH  21  22
ATOM     22  S   UNL     1      -2.559   5.394   2.583  0.00  0.00    -0.075 S 
BRANCH  22  23
ATOM     23  C   UNL     1      -0.830   5.120   2.390  0.00  0.00    +0.209 A 
ATOM     24  N   UNL     1      -0.256   4.375   1.473  0.00  0.00    -0.121 NA
ATOM     25  N   UNL     1       1.020   4.390   1.624  0.00  0.00    -0.126 NA
ATOM     26  C   UNL     1       1.342   5.152   2.646  0.00  0.00    +0.188 A 
ATOM     27  N   UNL     1       0.166   5.646   3.167  0.00  0.00    -0.223 N 
BRANCH  26  28
ATOM     28  C   UNL     1       2.701   5.424   3.141  0.00  0.00    +0.058 A 
ATOM     29  C   UNL     1       3.870   4.763   2.865  0.00  0.00    +0.019 A 
ATOM     30  C   UNL     1       5.035   5.208   3.449  0.00  0.00    +0.008 A 
ATOM     31  C   UNL     1       4.990   6.277   4.286  0.00  0.00    +0.046 A 
ATOM     32  S   UNL     1       3.255   6.697   4.264  0.00  0.00    -0.093 S 
ENDBRANCH  26  28
BRANCH  27  33
ATOM     33  N   UNL     1       0.024   6.481   4.237  0.00  0.00    -0.295 N 
ATOM     34  H   UNL     1       0.045   7.448   3.947  0.00  0.00    +0.163 HD
ATOM     35  H   UNL     1      -0.823   6.276   4.747  0.00  0.00    +0.163 HD
ENDBRANCH  27  33
ENDBRANCH  22  23
ENDBRANCH  21  22
ENDBRANCH   2  21
TORSDOF 9
