REMARK  Name = ZINC43227042
REMARK  14 active torsions:
REMARK  status: ('A' for Active; 'I' for Inactive)
REMARK    1  A    between atoms: C_1  and  C_2
REMARK    2  A    between atoms: C_2  and  C_3
REMARK    3  A    between atoms: C_3  and  C_4
REMARK    4  A    between atoms: C_4  and  C_5
REMARK    5  A    between atoms: C_5  and  C_7
REMARK    6  A    between atoms: C_5  and  N_36
REMARK    7  A    between atoms: C_9  and  C_12
REMARK    8  A    between atoms: N_14  and  C_15
REMARK    9  A    between atoms: C_15  and  C_16
REMARK   10  A    between atoms: C_16  and  C_35
REMARK   11  A    between atoms: C_20  and  C_34
REMARK   12  A    between atoms: C_29  and  C_31
REMARK   13  A    between atoms: C_31  and  C_32
REMARK   14  A    between atoms: C_31  and  C_33
REMARK                            x       y       z     vdW  Elec       q    Type
REMARK                         _______ _______ _______ _____ _____    ______ ____
ROOT
ATOM      1  C   UNL     1       6.046  -7.301  -1.325  0.00  0.00    +0.111 C 
ENDROOT
BRANCH   1   2
ATOM      2  C   UNL     1       7.279  -6.439  -1.060  0.00  0.00    -0.013 C 
ATOM      3  C   UNL     1       7.566  -5.544  -2.269  0.00  0.00    +0.008 C 
ATOM      4  C   UNL     1       8.210  -6.317  -3.413  0.00  0.00    +0.001 C 
ATOM      5  C   UNL     1       9.512  -6.967  -2.941  0.00  0.00    +0.011 C 
ATOM      6  C   UNL     1       9.207  -7.952  -1.816  0.00  0.00    -0.003 C 
ATOM      7  C   UNL     1       8.492  -7.254  -0.675  0.00  0.00    +0.007 C 
ATOM      8  C   UNL     1       8.226  -8.255   0.447  0.00  0.00    +0.009 C 
ATOM      9  C   UNL     1       9.571  -8.608   1.088  0.00  0.00    +0.036 C 
ATOM     10  C   UNL     1      10.640  -8.847   0.057  0.00  0.00    -0.043 A 
ATOM     11  C   UNL     1      10.493  -8.547  -1.281  0.00  0.00    -0.038 A 
ATOM     12  C   UNL     1      11.527  -8.794  -2.168  0.00  0.00    +0.005 A 
ATOM     13  C   UNL     1      12.715  -9.342  -1.723  0.00  0.00    +0.004 A 
ATOM     14  C   UNL     1      12.868  -9.645  -0.384  0.00  0.00    -0.045 A 
ATOM     15  C   UNL     1      11.838  -9.399   0.499  0.00  0.00    +0.007 A 
ATOM     16  C   UNL     1       8.396  -9.116  -2.386  0.00  0.00    +0.016 C 
ATOM     17  C   UNL     1       6.935  -5.495   0.117  0.00  0.00    +0.013 C 
BRANCH  14  18
ATOM     18  C   UNL     1      14.160 -10.245   0.111  0.00  0.00    +0.013 C 
ATOM     19  C   UNL     1      14.409 -11.576  -0.600  0.00  0.00    +0.012 C 
ATOM     20  C   UNL     1      15.314  -9.285  -0.185  0.00  0.00    +0.012 C 
ENDBRANCH  14  18
ENDBRANCH   1   2
BRANCH   1  23
ATOM     21  C   UNL     1       3.681  -6.983  -1.818  0.00  0.00    +0.263 C 
ATOM     22  O   UNL     1       3.556  -8.192  -1.854  0.00  0.00    -0.269 OA
ATOM     23  N   UNL     1       4.887  -6.438  -1.562  0.00  0.00    -0.310 N 
ATOM     24  H   UNL     1       4.987  -5.473  -1.533  0.00  0.00    +0.149 HD
BRANCH  21  27
ATOM     25  C   UNL     1       1.531  -4.079  -2.247  0.00  0.00    +0.065 A 
ATOM     26  N   UNL     1       2.609  -4.781  -2.026  0.00  0.00    -0.241 NA
ATOM     27  C   UNL     1       2.516  -6.114  -2.056  0.00  0.00    +0.133 A 
ATOM     28  C   UNL     1       1.273  -6.625  -2.321  0.00  0.00    +0.079 A 
ATOM     29  S   UNL     1       0.343  -5.237  -2.498  0.00  0.00    -0.081 S 
BRANCH  25  30
ATOM     30  C   UNL     1       1.387  -2.579  -2.266  0.00  0.00    -0.018 C 
BRANCH  30  31
ATOM     31  N   UNL     1       0.581  -2.179  -3.428  0.00  0.00    +0.384 N 
ATOM     32  H   UNL     1       0.484  -1.175  -3.440  0.00  0.00    -0.089 HD
ATOM     33  H   UNL     1       1.038  -2.484  -4.274  0.00  0.00    -0.089 HD
ATOM     34  H   UNL     1      -0.332  -2.605  -3.366  0.00  0.00    -0.089 HD
ENDBRANCH  30  31
BRANCH  30  35
ATOM     35  C   UNL     1       0.694  -2.117  -0.982  0.00  0.00    -0.010 C 
BRANCH  35  36
ATOM     36  C   UNL     1       0.658  -0.588  -0.943  0.00  0.00    -0.001 C 
BRANCH  36  38
ATOM     37  C   UNL     1      -0.070   1.402   0.380  0.00  0.00    +0.004 C 
ATOM     38  C   UNL     1      -0.034  -0.127   0.341  0.00  0.00    -0.003 C 
ENDBRANCH  36  38
ENDBRANCH  35  36
ENDBRANCH  30  35
ENDBRANCH  25  30
ENDBRANCH  21  27
ENDBRANCH   1  23
TORSDOF 9
