REMARK  Name = ZINC24834107
REMARK  7 active torsions:
REMARK  status: ('A' for Active; 'I' for Inactive)
REMARK    1  A    between atoms: C_1  and  C_2
REMARK    2  A    between atoms: C_3  and  C_19
REMARK    3  A    between atoms: C_4  and  C_10
REMARK    4  A    between atoms: C_13  and  N_16
REMARK    5  A    between atoms: N_16  and  C_17
REMARK    6  A    between atoms: N_16  and  C_18
REMARK    7  A    between atoms: C_21  and  C_24
REMARK                            x       y       z     vdW  Elec       q    Type
REMARK                         _______ _______ _______ _____ _____    ______ ____
ROOT
ATOM      1  C   UNL     1       4.599   5.514   0.217  0.00  0.00    +0.061 C 
ATOM      2  C   UNL     1       3.881   6.835   0.109  0.00  0.00    +0.017 C 
ATOM      3  C   UNL     1       2.543   6.852  -0.036  0.00  0.00    +0.058 C 
ATOM      4  C   UNL     1       1.860   8.201  -0.134  0.00  0.00    +0.139 C 
ATOM      5  N   UNL     1       2.722   9.393  -0.068  0.00  0.00    -0.315 N 
ATOM      6  C   UNL     1       4.051   9.217   0.073  0.00  0.00    +0.135 C 
ATOM      7  S   UNL     1       5.065  10.594   0.152  0.00  0.00    -0.019 S 
ATOM      8  N   UNL     1       4.603   8.000   0.155  0.00  0.00    -0.300 N 
ATOM      9  H   UNL     1       2.278  10.398  -0.134  0.00  0.00    +0.149 HD
ATOM     10  H   UNL     1       5.697   7.965   0.263  0.00  0.00    +0.154 HD
ENDROOT
BRANCH   4  11
ATOM     11  C   UNL     1       0.853   8.294   0.983  0.00  0.00    -0.023 A 
ATOM     12  C   UNL     1       1.270   8.608   2.264  0.00  0.00    +0.007 A 
ATOM     13  C   UNL     1       0.350   8.700   3.289  0.00  0.00    +0.023 A 
ATOM     14  C   UNL     1      -0.996   8.465   3.035  0.00  0.00    +0.029 A 
ATOM     15  C   UNL     1      -1.411   8.143   1.749  0.00  0.00    +0.023 A 
ATOM     16  C   UNL     1      -0.485   8.059   0.727  0.00  0.00    +0.007 A 
BRANCH  14  17
ATOM     17  N   UNL     1      -1.929   8.550   4.071  0.00  0.00    -0.336 N 
ATOM     18  C   UNL     1      -3.347   8.301   3.801  0.00  0.00    +0.129 C 
ATOM     19  C   UNL     1      -1.489   8.889   5.426  0.00  0.00    +0.129 C 
ENDBRANCH  14  17
ENDBRANCH   4  11
BRANCH   3  20
ATOM     20  C   UNL     1       1.772   5.610  -0.092  0.00  0.00    +0.258 A 
ATOM     21  N   UNL     1       2.260   4.377  -0.112  0.00  0.00    -0.187 NA
ATOM     22  C   UNL     1       1.185   3.566  -0.167  0.00  0.00    +0.202 A 
ATOM     23  N   UNL     1       0.119   4.326  -0.170  0.00  0.00    -0.056 NA
ATOM     24  O   UNL     1       0.433   5.497  -0.127  0.00  0.00    -0.333 OA
BRANCH  22  25
ATOM     25  C   UNL     1       1.205   2.083  -0.210  0.00  0.00    +0.023 A 
ATOM     26  C   UNL     1       0.010   1.368  -0.260  0.00  0.00    +0.013 A 
ATOM     27  C   UNL     1       0.034  -0.011  -0.300  0.00  0.00    +0.021 A 
ATOM     28  C   UNL     1       1.243  -0.685  -0.292  0.00  0.00    +0.041 A 
ATOM     29  C   UNL     1       2.433   0.021  -0.243  0.00  0.00    +0.021 A 
ATOM     30  C   UNL     1       2.420   1.400  -0.202  0.00  0.00    +0.013 A 
ATOM     31 CL   UNL     1       1.267  -2.420  -0.342  0.00  0.00    -0.084 Cl
ENDBRANCH  22  25
ENDBRANCH   3  20
TORSDOF 4
