REMARK  Name = ZINC36647971
REMARK  10 active torsions:
REMARK  status: ('A' for Active; 'I' for Inactive)
REMARK    1  A    between atoms: C_1  and  C_2
REMARK    2  A    between atoms: C_2  and  N_3
REMARK    3  A    between atoms: N_3  and  C_4
REMARK    4  A    between atoms: N_3  and  C_6
REMARK    5  A    between atoms: C_4  and  C_5
REMARK    6  A    between atoms: C_6  and  C_7
REMARK    7  A    between atoms: C_7  and  N_8
REMARK    8  A    between atoms: C_19  and  C_21
REMARK    9  A    between atoms: N_26  and  S_28
REMARK   10  A    between atoms: S_28  and  C_31
REMARK                            x       y       z     vdW  Elec       q    Type
REMARK                         _______ _______ _______ _____ _____    ______ ____
ROOT
ATOM      1  N   UNL     1       1.127  -3.953  -2.928  0.00  0.00    -0.252 N 
ATOM      2  C   UNL     1       0.077  -4.662  -3.490  0.00  0.00    +0.168 A 
ATOM      3  N   UNL     1      -1.028  -4.205  -4.030  0.00  0.00    -0.221 NA
ATOM      4  C   UNL     1      -1.975  -5.019  -4.546  0.00  0.00    +0.115 A 
ATOM      5  C   UNL     1      -3.203  -4.659  -5.151  0.00  0.00    +0.150 A 
ATOM      6  C   UNL     1      -4.058  -5.620  -5.627  0.00  0.00    +0.040 A 
ATOM      7  C   UNL     1      -3.755  -6.971  -5.532  0.00  0.00    +0.004 A 
ATOM      8  C   UNL     1      -2.564  -7.358  -4.946  0.00  0.00    +0.017 A 
ATOM      9  C   UNL     1      -1.701  -6.403  -4.468  0.00  0.00    +0.044 A 
ATOM     10  S   UNL     1      -0.112  -6.429  -3.672  0.00  0.00    -0.052 S 
ATOM     11  F   UNL     1      -3.536  -3.354  -5.262  0.00  0.00    -0.203 F 
ATOM     12  C   UNL     1       2.244  -4.600  -2.537  0.00  0.00    +0.226 C 
ATOM     13  O   UNL     1       3.121  -3.997  -1.956  0.00  0.00    -0.275 OA
ENDROOT
BRANCH  12  14
ATOM     14  C   UNL     1       2.401  -6.071  -2.823  0.00  0.00    +0.091 C 
ATOM     15  C   UNL     1       2.598  -6.281  -4.326  0.00  0.00    +0.015 C 
ATOM     16  C   UNL     1       2.726  -7.777  -4.622  0.00  0.00    +0.018 C 
ATOM     17  C   UNL     1       3.951  -8.335  -3.891  0.00  0.00    +0.109 C 
ATOM     18  N   UNL     1       3.839  -8.009  -2.462  0.00  0.00    -0.175 NA
ATOM     19  C   UNL     1       3.623  -6.609  -2.071  0.00  0.00    +0.122 C 
BRANCH  18  20
ATOM     20  S   UNL     1       3.954  -9.197  -1.315  0.00  0.00    +0.067 S 
ATOM     21  O   UNL     1       3.276  -8.716  -0.163  0.00  0.00    -0.152 OA
ATOM     22  O   UNL     1       3.599 -10.415  -1.954  0.00  0.00    -0.152 OA
BRANCH  20  23
ATOM     23  C   UNL     1       5.655  -9.336  -0.876  0.00  0.00    +0.143 A 
ATOM     24  C   UNL     1       6.341  -8.688   0.097  0.00  0.00    +0.036 A 
ATOM     25  C   UNL     1       7.687  -8.959   0.262  0.00  0.00    +0.010 A 
ATOM     26  C   UNL     1       8.280  -9.864  -0.554  0.00  0.00    +0.047 A 
ATOM     27  S   UNL     1       6.920 -10.371  -1.594  0.00  0.00    -0.077 S 
ENDBRANCH  20  23
ENDBRANCH  18  20
ENDBRANCH  12  14
BRANCH   1  28
ATOM     28  C   UNL     1       1.024  -2.502  -2.758  0.00  0.00    +0.097 C 
BRANCH  28  29
ATOM     29  C   UNL     1       0.417  -2.191  -1.388  0.00  0.00    -0.059 C 
BRANCH  29  30
ATOM     30  N   UNL     1       0.432  -0.739  -1.164  0.00  0.00    +0.380 N 
ATOM     31  H   UNL     1       1.370  -0.389  -1.292  0.00  0.00    -0.082 HD
BRANCH  30  33
ATOM     32  C   UNL     1      -0.360   1.433  -1.972  0.00  0.00    -0.017 C 
ATOM     33  C   UNL     1      -0.470  -0.086  -2.122  0.00  0.00    -0.082 C 
ENDBRANCH  30  33
BRANCH  30  34
ATOM     34  C   UNL     1      -0.016  -0.451   0.205  0.00  0.00    -0.082 C 
ATOM     35  C   UNL     1       1.003  -1.005   1.203  0.00  0.00    -0.017 C 
ENDBRANCH  30  34
ENDBRANCH  29  30
ENDBRANCH  28  29
ENDBRANCH   1  28
TORSDOF 8
