REMARK  Name = ZINC40456537
REMARK  6 active torsions:
REMARK  status: ('A' for Active; 'I' for Inactive)
REMARK    1  A    between atoms: C_1  and  C_2
REMARK    2  A    between atoms: C_2  and  N_3
REMARK    3  A    between atoms: N_3  and  C_4
REMARK    4  A    between atoms: C_7  and  C_23
REMARK    5  A    between atoms: C_17  and  S_19
REMARK    6  A    between atoms: S_19  and  N_22
REMARK                            x       y       z     vdW  Elec       q    Type
REMARK                         _______ _______ _______ _____ _____    ______ ____
ROOT
ATOM      1  C   UNL     1       0.710  -1.947  -1.215  0.00  0.00    -0.060 C 
ATOM      2  C   UNL     1      -0.729  -2.476  -1.326  0.00  0.00    +0.011 C 
ATOM      3  C   UNL     1      -0.760  -3.999  -1.206  0.00  0.00    +0.127 C 
ATOM      4  S   UNL     1       0.180  -4.758  -2.566  0.00  0.00    -0.016 S 
ATOM      5  O   UNL     1       0.339  -6.143  -2.293  0.00  0.00    -0.173 OA
ATOM      6  O   UNL     1      -0.397  -4.353  -3.800  0.00  0.00    -0.173 OA
ATOM      7  C   UNL     1       1.792  -3.938  -2.378  0.00  0.00    +0.199 C 
ATOM      8  C   UNL     1       1.511  -2.422  -2.369  0.00  0.00    +0.035 C 
ATOM      9  C   UNL     1       2.492  -1.633  -3.103  0.00  0.00    +0.013 C 
ATOM     10  C   UNL     1       3.225  -2.267  -4.024  0.00  0.00    +0.136 C 
ATOM     11  S   UNL     1       2.720  -4.008  -3.968  0.00  0.00    -0.079 S 
ATOM     12  C   UNL     1      -0.139  -4.414   0.129  0.00  0.00    +0.032 C 
ENDROOT
BRANCH   1  13
ATOM     13  N   UNL     1       0.690  -0.478  -1.207  0.00  0.00    +0.381 N 
ATOM     14  H   UNL     1       0.202  -0.144  -2.024  0.00  0.00    -0.086 HD
ATOM     15  H   UNL     1       1.636  -0.129  -1.214  0.00  0.00    -0.086 HD
BRANCH  13  17
ATOM     16  C   UNL     1      -0.019   1.526   0.010  0.00  0.00    -0.017 C 
ATOM     17  C   UNL     1       0.002  -0.004   0.002  0.00  0.00    -0.086 C 
ENDBRANCH  13  17
ENDBRANCH   1  13
BRANCH  10  18
ATOM     18  S   UNL     1       4.457  -1.560  -5.068  0.00  0.00    +0.062 S 
ATOM     19  O   UNL     1       4.240  -2.092  -6.368  0.00  0.00    -0.153 OA
ATOM     20  O   UNL     1       4.458  -0.164  -4.806  0.00  0.00    -0.153 OA
BRANCH  18  21
ATOM     21  N   UNL     1       5.922  -2.139  -4.558  0.00  0.00    -0.203 NA
ATOM     22  H   UNL     1       5.966  -2.752  -3.807  0.00  0.00    +0.144 HD
ATOM     23  H   UNL     1       6.735  -1.866  -5.009  0.00  0.00    +0.144 HD
ENDBRANCH  18  21
ENDBRANCH  10  18
TORSDOF 4
