REMARK  Name = ZINC16039425
REMARK  8 active torsions:
REMARK  status: ('A' for Active; 'I' for Inactive)
REMARK    1  A    between atoms: C_1  and  C_2
REMARK    2  A    between atoms: C_7  and  C_9
REMARK    3  A    between atoms: C_7  and  C_10
REMARK    4  A    between atoms: N_11  and  C_13
REMARK    5  A    between atoms: C_13  and  N_14
REMARK    6  A    between atoms: N_22  and  N_23
REMARK    7  A    between atoms: C_24  and  C_26
REMARK    8  A    between atoms: C_26  and  C_27
REMARK                            x       y       z     vdW  Elec       q    Type
REMARK                         _______ _______ _______ _____ _____    ______ ____
ROOT
ATOM      1  N   UNL     1       1.334  -2.441  -3.374  0.00  0.00    -0.282 N 
ATOM      2  C   UNL     1       0.861  -2.565  -4.676  0.00  0.00    +0.044 A 
ATOM      3  C   UNL     1      -0.343  -3.044  -5.179  0.00  0.00    +0.024 A 
ATOM      4  C   UNL     1      -0.567  -3.061  -6.541  0.00  0.00    +0.002 A 
ATOM      5  C   UNL     1       0.400  -2.604  -7.421  0.00  0.00    +0.001 A 
ATOM      6  C   UNL     1       1.602  -2.125  -6.940  0.00  0.00    +0.012 A 
ATOM      7  C   UNL     1       1.837  -2.104  -5.569  0.00  0.00    +0.028 A 
ATOM      8  C   UNL     1       2.987  -1.667  -4.744  0.00  0.00    +0.153 C 
ATOM      9  N   UNL     1       4.124  -1.165  -5.161  0.00  0.00    -0.175 NA
ATOM     10  C   UNL     1       2.571  -1.916  -3.349  0.00  0.00    +0.270 C 
ATOM     11  O   UNL     1       3.232  -1.688  -2.353  0.00  0.00    -0.268 OA
ENDROOT
BRANCH   9  12
ATOM     12  N   UNL     1       5.111  -0.803  -4.236  0.00  0.00    -0.206 N 
ATOM     13  C   UNL     1       6.279  -0.286  -4.664  0.00  0.00    +0.237 C 
ATOM     14  O   UNL     1       6.476  -0.135  -5.851  0.00  0.00    -0.274 OA
ATOM     15  H   UNL     1       4.953  -0.924  -3.286  0.00  0.00    +0.177 HD
BRANCH  13  16
ATOM     16  C   UNL     1       7.341   0.104  -3.668  0.00  0.00    +0.132 C 
BRANCH  16  17
ATOM     17  C   UNL     1       8.540   0.650  -4.401  0.00  0.00    -0.039 A 
ATOM     18  C   UNL     1       9.551  -0.201  -4.805  0.00  0.00    +0.004 A 
ATOM     19  C   UNL     1      10.650   0.300  -5.476  0.00  0.00    +0.000 A 
ATOM     20  C   UNL     1      10.738   1.653  -5.744  0.00  0.00    +0.000 A 
ATOM     21  C   UNL     1       9.727   2.505  -5.340  0.00  0.00    +0.000 A 
ATOM     22  C   UNL     1       8.626   2.003  -4.673  0.00  0.00    +0.004 A 
ENDBRANCH  16  17
ENDBRANCH  13  16
ENDBRANCH   9  12
BRANCH   1  23
ATOM     23  C   UNL     1       0.577  -2.827  -2.181  0.00  0.00    +0.039 C 
BRANCH  23  33
ATOM     24  C   UNL     1      -0.019   1.532   0.011  0.00  0.00    +0.009 C 
ATOM     25  C   UNL     1       0.002  -0.004   0.002  0.00  0.00    -0.048 C 
ATOM     26  C   UNL     1      -1.426  -0.615   0.003  0.00  0.00    -0.011 C 
ATOM     27  C   UNL     1      -1.100  -2.018  -0.584  0.00  0.00    -0.065 C 
ATOM     28  C   UNL     1      -0.396  -2.818   0.494  0.00  0.00    -0.009 C 
ATOM     29  C   UNL     1       0.654  -2.101   1.313  0.00  0.00    -0.036 C 
ATOM     30  C   UNL     1       0.727  -0.591   1.214  0.00  0.00    +0.011 C 
ATOM     31  C   UNL     1       2.041  -2.692   0.990  0.00  0.00    +0.011 C 
ATOM     32  C   UNL     1       0.383  -2.444   2.801  0.00  0.00    +0.011 C 
ATOM     33  N   UNL     1      -0.211  -1.692  -1.717  0.00  0.00    +0.393 N 
ATOM     34  C   UNL     1       0.649  -0.577  -1.280  0.00  0.00    -0.070 C 
ATOM     35  H   UNL     1      -0.788  -1.358  -2.491  0.00  0.00    -0.079 HD
ENDBRANCH  23  33
ENDBRANCH   1  23
TORSDOF 5
