REMARK  Name = ZINC13499028
REMARK  11 active torsions:
REMARK  status: ('A' for Active; 'I' for Inactive)
REMARK    1  A    between atoms: C_1  and  C_2
REMARK    2  A    between atoms: C_4  and  C_36
REMARK    3  A    between atoms: C_7  and  C_14
REMARK    4  A    between atoms: C_14  and  N_75
REMARK    5  A    between atoms: C_15  and  N_75
REMARK    6  A    between atoms: C_21  and  C_23
REMARK    7  A    between atoms: C_21  and  C_33
REMARK    8  A    between atoms: C_21  and  N_75
REMARK    9  A    between atoms: N_27  and  C_28
REMARK   10  A    between atoms: C_33  and  C_34
REMARK   11  A    between atoms: C_33  and  C_35
REMARK                            x       y       z     vdW  Elec       q    Type
REMARK                         _______ _______ _______ _____ _____    ______ ____
ROOT
ATOM      1  N   UNL     1       0.603  -2.103  -1.294  0.00  0.00    +0.391 N 
ATOM      2  H   UNL     1      -0.417  -2.193  -1.222  0.00  0.00    -0.080 HD
ENDROOT
BRANCH   1   3
ATOM      3  C   UNL     1       0.973  -0.681  -1.137  0.00  0.00    -0.067 C 
ATOM      4  C   UNL     1       2.472  -0.487  -1.375  0.00  0.00    -0.015 C 
ATOM      5  C   UNL     1       2.827   0.992  -1.209  0.00  0.00    -0.002 C 
ATOM      6  C   UNL     1       2.038   1.823  -2.224  0.00  0.00    -0.000 C 
ATOM      7  C   UNL     1       0.539   1.629  -1.987  0.00  0.00    -0.002 C 
ATOM      8  C   UNL     1       0.184   0.149  -2.152  0.00  0.00    -0.015 C 
ENDBRANCH   1   3
BRANCH   1   9
ATOM      9  C   UNL     1       1.233  -2.909  -0.227  0.00  0.00    -0.036 C 
BRANCH   9  16
ATOM     10  C   UNL     1      -3.442  -2.756   6.234  0.00  0.00    +0.044 C 
ATOM     11  C   UNL     1      -2.679  -2.976   4.953  0.00  0.00    -0.048 A 
ATOM     12  C   UNL     1      -2.999  -4.055   4.140  0.00  0.00    +0.007 A 
ATOM     13  C   UNL     1      -2.319  -4.273   2.975  0.00  0.00    -0.041 A 
ATOM     14  C   UNL     1      -1.292  -3.401   2.599  0.00  0.00    +0.002 A 
ATOM     15  C   UNL     1      -0.546  -3.602   1.355  0.00  0.00    +0.017 A 
ATOM     16  C   UNL     1       0.443  -2.728   1.044  0.00  0.00    +0.001 A 
ATOM     17  C   UNL     1       0.732  -1.647   1.903  0.00  0.00    +0.251 A 
ATOM     18  O   UNL     1       1.622  -0.870   1.603  0.00  0.00    -0.268 OA
ATOM     19  N   UNL     1       0.049  -1.451   3.045  0.00  0.00    -0.322 N 
ATOM     20  H   UNL     1       0.273  -0.697   3.613  0.00  0.00    +0.169 HD
ATOM     21  C   UNL     1      -0.965  -2.307   3.421  0.00  0.00    +0.050 A 
ATOM     22  C   UNL     1      -1.671  -2.105   4.602  0.00  0.00    +0.029 A 
ATOM     23  C   UNL     1      -2.675  -5.446   2.099  0.00  0.00    +0.044 C 
ENDBRANCH   9  16
ENDBRANCH   1   9
BRANCH   1  24
ATOM     24  C   UNL     1       1.035  -2.595  -2.619  0.00  0.00    +0.006 C 
BRANCH  24  25
ATOM     25  C   UNL     1       2.525  -2.825  -2.637  0.00  0.00    +0.139 A 
ATOM     26  N   UNL     1       3.232  -3.444  -1.724  0.00  0.00    -0.115 NA
ATOM     27  N   UNL     1       4.464  -3.436  -2.101  0.00  0.00    -0.023 NA
ATOM     28  N   UNL     1       4.562  -2.821  -3.227  0.00  0.00    -0.044 NA
ATOM     29  N   UNL     1       3.388  -2.429  -3.591  0.00  0.00    -0.228 N 
BRANCH  29  30
ATOM     30  C   UNL     1       3.056  -1.691  -4.812  0.00  0.00    +0.111 C 
ATOM     31  C   UNL     1       3.509  -2.491  -6.052  0.00  0.00    +0.027 C 
ATOM     32  C   UNL     1       4.011  -1.407  -7.039  0.00  0.00    +0.002 C 
ATOM     33  C   UNL     1       4.712  -0.390  -6.104  0.00  0.00    +0.002 C 
ATOM     34  C   UNL     1       3.820  -0.356  -4.846  0.00  0.00    +0.027 C 
ENDBRANCH  29  30
ENDBRANCH  24  25
BRANCH  24  35
ATOM     35  C   UNL     1       0.313  -3.910  -2.915  0.00  0.00    -0.024 C 
ATOM     36  C   UNL     1      -1.198  -3.701  -2.794  0.00  0.00    +0.006 C 
ATOM     37  C   UNL     1       0.651  -4.370  -4.334  0.00  0.00    +0.006 C 
ENDBRANCH  24  35
ENDBRANCH   1  24
TORSDOF 7
