REMARK  Name = ZINC64798160
REMARK  7 active torsions:
REMARK  status: ('A' for Active; 'I' for Inactive)
REMARK    1  A    between atoms: C_1  and  O_2
REMARK    2  A    between atoms: O_2  and  C_3
REMARK    3  A    between atoms: C_5  and  C_15
REMARK    4  A    between atoms: C_8  and  O_9
REMARK    5  A    between atoms: O_9  and  C_10
REMARK    6  A    between atoms: C_25  and  S_26
REMARK    7  A    between atoms: S_26  and  C_29
REMARK                            x       y       z     vdW  Elec       q    Type
REMARK                         _______ _______ _______ _____ _____    ______ ____
ROOT
ATOM      1  C   UNL     1       2.392   0.249   3.385  0.00  0.00    +0.066 C 
ATOM      2  C   UNL     1       1.746  -0.516   4.549  0.00  0.00    +0.109 C 
ATOM      3  C   UNL     1       2.540  -0.329   5.810  0.00  0.00    +0.218 C 
ATOM      4  O   UNL     1       1.940  -0.218   6.859  0.00  0.00    -0.275 OA
ATOM      5  N   UNL     1       3.883  -0.279   5.833  0.00  0.00    -0.283 N 
ATOM      6  C   UNL     1       4.588  -0.195   4.598  0.00  0.00    +0.070 A 
ATOM      7  C   UNL     1       3.869   0.050   3.459  0.00  0.00    +0.021 A 
ATOM      8  S   UNL     1       5.093   0.067   2.183  0.00  0.00    -0.097 S 
ATOM      9  C   UNL     1       6.523  -0.221   3.216  0.00  0.00    +0.074 A 
ATOM     10  C   UNL     1       5.967  -0.321   4.449  0.00  0.00    +0.122 A 
ATOM     11  H   UNL     1       4.363  -0.299   6.676  0.00  0.00    +0.155 HD
ENDROOT
BRANCH   1  14
ATOM     12  C   UNL     1       0.736   0.070  -0.006  0.00  0.00    +0.162 A 
ATOM     13  C   UNL     1       1.215   0.559   1.199  0.00  0.00    +0.053 A 
ATOM     14  C   UNL     1       1.873  -0.285   2.075  0.00  0.00    -0.035 A 
ATOM     15  C   UNL     1       2.055  -1.616   1.751  0.00  0.00    +0.008 A 
ATOM     16  C   UNL     1       1.581  -2.110   0.550  0.00  0.00    +0.050 A 
ATOM     17  C   UNL     1       0.915  -1.272  -0.329  0.00  0.00    +0.162 A 
BRANCH  12  19
ATOM     18  C   UNL     1      -0.058   2.263  -0.470  0.00  0.00    +0.277 C 
ATOM     19  O   UNL     1       0.088   0.898  -0.868  0.00  0.00    -0.491 OA
ENDBRANCH  12  19
BRANCH  17  20
ATOM     20  O   UNL     1       0.442  -1.758  -1.508  0.00  0.00    -0.485 OA
BRANCH  20  21
ATOM     21  C   UNL     1       0.719  -3.128  -1.803  0.00  0.00    +0.174 C 
ATOM     22  C   UNL     1       2.105  -3.256  -2.468  0.00  0.00    +0.044 C 
ATOM     23  C   UNL     1       1.919  -4.375  -3.522  0.00  0.00    +0.004 C 
ATOM     24  C   UNL     1       0.493  -4.104  -4.061  0.00  0.00    +0.004 C 
ATOM     25  C   UNL     1      -0.306  -3.667  -2.816  0.00  0.00    +0.044 C 
ENDBRANCH  20  21
ENDBRANCH  17  20
ENDBRANCH   1  14
BRANCH  10  26
ATOM     26  S   UNL     1       6.985  -0.607   5.858  0.00  0.00    +0.027 S 
ATOM     27  O   UNL     1       8.322  -0.690   5.383  0.00  0.00    -0.164 OA
ATOM     28  O   UNL     1       6.585   0.333   6.846  0.00  0.00    -0.164 OA
BRANCH  26  29
ATOM     29  C   UNL     1       6.573  -2.202   6.484  0.00  0.00    +0.094 A 
ATOM     30  C   UNL     1       5.672  -2.324   7.524  0.00  0.00    +0.027 A 
ATOM     31  C   UNL     1       5.349  -3.576   8.015  0.00  0.00    +0.002 A 
ATOM     32  C   UNL     1       5.926  -4.704   7.465  0.00  0.00    +0.000 A 
ATOM     33  C   UNL     1       6.827  -4.582   6.424  0.00  0.00    +0.002 A 
ATOM     34  C   UNL     1       7.147  -3.331   5.930  0.00  0.00    +0.027 A 
ENDBRANCH  26  29
ENDBRANCH  10  26
TORSDOF 6
