REMARK  Name = ZINC39991892
REMARK  8 active torsions:
REMARK  status: ('A' for Active; 'I' for Inactive)
REMARK    1  A    between atoms: C_1  and  C_2
REMARK    2  A    between atoms: C_7  and  N_8
REMARK    3  A    between atoms: C_9  and  S_20
REMARK    4  A    between atoms: S_20  and  C_21
REMARK    5  A    between atoms: C_21  and  C_22
REMARK    6  A    between atoms: N_24  and  C_25
REMARK    7  A    between atoms: C_29  and  C_35
REMARK    8  A    between atoms: C_36  and  C_39
REMARK                            x       y       z     vdW  Elec       q    Type
REMARK                         _______ _______ _______ _____ _____    ______ ____
ROOT
ATOM      1  N   UNL     1      -0.287  -0.347   2.377  0.00  0.00    -0.244 N 
ATOM      2  C   UNL     1      -1.400   0.136   3.213  0.00  0.00    +0.240 C 
ATOM      3  N   UNL     1      -0.757   1.076   4.148  0.00  0.00    -0.259 N 
ATOM      4  N   UNL     1       0.604   1.082   3.820  0.00  0.00    -0.283 N 
ATOM      5  C   UNL     1       0.858   0.285   2.839  0.00  0.00    +0.183 C 
ATOM      6  N   UNL     1       2.125   0.085   2.307  0.00  0.00    -0.299 N 
ATOM      7  C   UNL     1       2.314  -0.136   0.864  0.00  0.00    +0.136 C 
ATOM      8  C   UNL     1       3.398   0.827   0.366  0.00  0.00    +0.179 C 
ATOM      9  O   UNL     1       4.560   0.693   1.187  0.00  0.00    -0.377 OA
ATOM     10  C   UNL     1       4.352   1.040   2.558  0.00  0.00    +0.179 C 
ATOM     11  C   UNL     1       3.318   0.094   3.167  0.00  0.00    +0.136 C 
ATOM     12  H   UNL     1      -1.190   1.587   4.850  0.00  0.00    +0.169 HD
ATOM     13  H   UNL     1       1.273   1.616   4.277  0.00  0.00    +0.187 HD
ENDROOT
BRANCH   1  20
ATOM     14  C   UNL     1       0.219  -3.087   2.950  0.00  0.00    +0.045 C 
ATOM     15  C   UNL     1      -0.130  -2.614   1.562  0.00  0.00    -0.029 A 
ATOM     16  C   UNL     1      -0.217  -3.520   0.524  0.00  0.00    +0.005 A 
ATOM     17  C   UNL     1      -0.537  -3.086  -0.750  0.00  0.00    +0.000 A 
ATOM     18  C   UNL     1      -0.770  -1.744  -0.988  0.00  0.00    +0.002 A 
ATOM     19  C   UNL     1      -0.685  -0.833   0.045  0.00  0.00    +0.024 A 
ATOM     20  C   UNL     1      -0.369  -1.266   1.327  0.00  0.00    +0.042 A 
ENDBRANCH   1  20
BRANCH   2  21
ATOM     21  S   UNL     1      -2.636   0.990   2.196  0.00  0.00    -0.108 S 
BRANCH  21  22
ATOM     22  C   UNL     1      -1.761   2.453   1.577  0.00  0.00    +0.168 C 
BRANCH  22  23
ATOM     23  C   UNL     1      -2.715   3.313   0.790  0.00  0.00    +0.225 C 
ATOM     24  O   UNL     1      -3.872   2.973   0.659  0.00  0.00    -0.275 OA
ATOM     25  N   UNL     1      -2.283   4.461   0.230  0.00  0.00    -0.285 N 
ATOM     26  H   UNL     1      -1.358   4.733   0.334  0.00  0.00    +0.151 HD
BRANCH  25  27
ATOM     27  C   UNL     1      -3.211   5.297  -0.535  0.00  0.00    +0.243 C 
ATOM     28  C   UNL     1      -2.523   5.867  -1.734  0.00  0.00    +0.065 C 
ATOM     29  C   UNL     1      -2.225   7.154  -1.482  0.00  0.00    -0.011 C 
ATOM     30  C   UNL     1      -1.532   8.008  -2.510  0.00  0.00    +0.099 C 
ATOM     31  N   UNL     1      -0.741   7.140  -3.391  0.00  0.00    -0.233 NA
ATOM     32  N   UNL     1      -1.385   6.031  -3.837  0.00  0.00    -0.247 N 
ATOM     33  C   UNL     1      -2.170   5.273  -3.033  0.00  0.00    +0.258 C 
ATOM     34  O   UNL     1      -2.559   4.169  -3.364  0.00  0.00    -0.269 OA
ATOM     35  C   UNL     1      -2.575   8.766  -3.334  0.00  0.00    +0.030 C 
ATOM     36  C   UNL     1      -2.699   7.480  -0.099  0.00  0.00    +0.146 C 
ATOM     37  O   UNL     1      -3.628   6.431   0.257  0.00  0.00    -0.347 OA
ATOM     38  C   UNL     1      -1.518   7.493   0.874  0.00  0.00    +0.043 C 
ATOM     39  H   UNL     1      -0.350   7.665  -4.159  0.00  0.00    +0.145 HD
ATOM     40  H   UNL     1      -1.280   5.772  -4.766  0.00  0.00    +0.169 HD
ENDBRANCH  25  27
ENDBRANCH  22  23
ENDBRANCH  21  22
ENDBRANCH   2  21
TORSDOF 5
