REMARK  Name = ZINC36548531
REMARK  15 active torsions:
REMARK  status: ('A' for Active; 'I' for Inactive)
REMARK    1  A    between atoms: C_1  and  C_2
REMARK    2  A    between atoms: C_2  and  C_3
REMARK    3  A    between atoms: C_2  and  C_4
REMARK    4  A    between atoms: C_2  and  C_5
REMARK    5  A    between atoms: C_5  and  C_6
REMARK    6  A    between atoms: C_6  and  C_7
REMARK    7  A    between atoms: C_6  and  C_8
REMARK    8  A    between atoms: C_6  and  N_9
REMARK    9  A    between atoms: C_10  and  C_12
REMARK   10  A    between atoms: C_12  and  C_14
REMARK   11  A    between atoms: C_12  and  N_22
REMARK   12  A    between atoms: C_17  and  O_20
REMARK   13  A    between atoms: O_20  and  C_21
REMARK   14  A    between atoms: N_22  and  C_23
REMARK   15  A    between atoms: C_30  and  C_32
REMARK                            x       y       z     vdW  Elec       q    Type
REMARK                         _______ _______ _______ _____ _____    ______ ____
ROOT
ATOM      1  C   UNL     1       5.264   0.036  -4.448  0.00  0.00    +0.197 C 
ENDROOT
BRANCH   1   2
ATOM      2  C   UNL     1       5.217  -1.460  -4.625  0.00  0.00    -0.018 A 
ATOM      3  C   UNL     1       6.016  -2.273  -3.843  0.00  0.00    +0.009 A 
ATOM      4  C   UNL     1       5.974  -3.644  -4.003  0.00  0.00    +0.046 A 
ATOM      5  C   UNL     1       5.131  -4.205  -4.951  0.00  0.00    +0.120 A 
ATOM      6  C   UNL     1       4.330  -3.387  -5.734  0.00  0.00    +0.046 A 
ATOM      7  C   UNL     1       4.371  -2.017  -5.566  0.00  0.00    +0.009 A 
BRANCH   5   8
ATOM      8  O   UNL     1       5.089  -5.554  -5.111  0.00  0.00    -0.495 OA
ATOM      9  C   UNL     1       4.197  -6.062  -6.105  0.00  0.00    +0.277 C 
ENDBRANCH   5   8
ENDBRANCH   1   2
BRANCH   1  11
ATOM     10  N   UNL     1       3.231   0.458  -3.103  0.00  0.00    -0.308 N 
ATOM     11  C   UNL     1       4.577   0.411  -3.160  0.00  0.00    +0.239 C 
ATOM     12  O   UNL     1       5.235   0.671  -2.175  0.00  0.00    -0.273 OA
ATOM     13  H   UNL     1       2.702   0.133  -3.849  0.00  0.00    +0.149 HD
BRANCH  10  14
ATOM     14  C   UNL     1       2.567   1.001  -1.915  0.00  0.00    +0.030 C 
ATOM     15  C   UNL     1       3.170   2.365  -1.572  0.00  0.00    +0.031 C 
ATOM     16  C   UNL     1       2.765   0.044  -0.738  0.00  0.00    +0.031 C 
BRANCH  14  17
ATOM     17  C   UNL     1       1.071   1.161  -2.196  0.00  0.00    +0.031 C 
BRANCH  17  19
ATOM     18  C   UNL     1       0.992   0.667  -4.644  0.00  0.00    +0.010 C 
ATOM     19  C   UNL     1       0.875   1.767  -3.587  0.00  0.00    -0.036 C 
ATOM     20  C   UNL     1       1.948   2.830  -3.836  0.00  0.00    +0.010 C 
ATOM     21  C   UNL     1      -0.510   2.411  -3.672  0.00  0.00    +0.010 C 
ENDBRANCH  17  19
ENDBRANCH  14  17
ENDBRANCH  10  14
ENDBRANCH   1  11
BRANCH   1  22
ATOM     22  N   UNL     1       6.660   0.479  -4.404  0.00  0.00    -0.252 N 
ATOM     23  C   UNL     1       7.432   0.383  -5.504  0.00  0.00    +0.241 C 
ATOM     24  O   UNL     1       8.610   0.664  -5.444  0.00  0.00    -0.273 OA
BRANCH  22  25
ATOM     25  C   UNL     1       7.191   1.002  -3.219  0.00  0.00    +0.056 A 
ATOM     26  C   UNL     1       7.803   0.160  -2.300  0.00  0.00    +0.025 A 
ATOM     27  C   UNL     1       8.326   0.678  -1.132  0.00  0.00    +0.002 A 
ATOM     28  C   UNL     1       8.241   2.035  -0.876  0.00  0.00    +0.002 A 
ATOM     29  C   UNL     1       7.633   2.877  -1.789  0.00  0.00    +0.022 A 
ATOM     30  C   UNL     1       7.112   2.365  -2.963  0.00  0.00    +0.062 A 
ATOM     31 CL   UNL     1       6.356   3.424  -4.112  0.00  0.00    -0.082 Cl
ENDBRANCH  22  25
BRANCH  23  32
ATOM     32  C   UNL     1       6.832  -0.073  -6.809  0.00  0.00    +0.160 C 
ATOM     33  C   UNL     1       7.002  -1.600  -6.971  0.00  0.00    +0.041 C 
ATOM     34  C   UNL     1       8.320  -1.687  -7.775  0.00  0.00    +0.098 C 
ATOM     35  C   UNL     1       8.403  -0.359  -8.495  0.00  0.00    +0.214 C 
ATOM     36  O   UNL     1       9.127  -0.125  -9.439  0.00  0.00    -0.276 OA
ATOM     37  N   UNL     1       7.554   0.525  -7.937  0.00  0.00    -0.304 N 
ATOM     38  H   UNL     1       7.436   1.439  -8.241  0.00  0.00    +0.149 HD
ENDBRANCH  23  32
ENDBRANCH   1  22
TORSDOF 9
