REMARK  Name = ZINC12100290
REMARK  6 active torsions:
REMARK  status: ('A' for Active; 'I' for Inactive)
REMARK    1  A    between atoms: C_4  and  C_7
REMARK    2  A    between atoms: C_18  and  C_19
REMARK    3  A    between atoms: C_18  and  N_59
REMARK    4  A    between atoms: C_19  and  N_20
REMARK    5  A    between atoms: C_21  and  C_23
REMARK    6  A    between atoms: C_23  and  C_24
REMARK                            x       y       z     vdW  Elec       q    Type
REMARK                         _______ _______ _______ _____ _____    ______ ____
ROOT
ATOM      1  C   UNL     1       2.490   1.048  -0.016  0.00  0.00    +0.187 C 
ATOM      2  C   UNL     1       3.026   1.016  -1.431  0.00  0.00    -0.028 C 
ATOM      3  C   UNL     1       5.400   0.828  -0.920  0.00  0.00    -0.039 C 
ATOM      4  C   UNL     1       5.392   0.433   0.545  0.00  0.00    -0.022 A 
ATOM      5  C   UNL     1       6.371  -0.401   1.045  0.00  0.00    +0.005 A 
ATOM      6  C   UNL     1       6.364  -0.737   2.387  0.00  0.00    +0.000 A 
ATOM      7  C   UNL     1       5.381  -0.237   3.221  0.00  0.00    +0.004 A 
ATOM      8  C   UNL     1       4.396   0.592   2.719  0.00  0.00    +0.046 A 
ATOM      9  C   UNL     1       4.397   0.921   1.370  0.00  0.00    +0.123 A 
ATOM     10  O   UNL     1       3.413   1.709   0.859  0.00  0.00    -0.486 OA
ATOM     11  N   UNL     1       4.236   0.179  -1.571  0.00  0.00    +0.386 N 
ATOM     12  H   UNL     1       4.066  -0.725  -1.115  0.00  0.00    -0.081 HD
ENDROOT
BRANCH   1  16
ATOM     13  C   UNL     1      -1.238   3.133   0.030  0.00  0.00    +0.000 A 
ATOM     14  C   UNL     1      -1.219   1.751   0.017  0.00  0.00    +0.000 A 
ATOM     15  C   UNL     1      -0.013   1.076   0.008  0.00  0.00    +0.007 A 
ATOM     16  C   UNL     1       1.175   1.783   0.000  0.00  0.00    -0.009 A 
ATOM     17  C   UNL     1       1.156   3.165   0.008  0.00  0.00    +0.007 A 
ATOM     18  C   UNL     1      -0.050   3.840   0.022  0.00  0.00    +0.000 A 
ENDBRANCH   1  16
BRANCH  11  19
ATOM     19  C   UNL     1       4.522  -0.052  -2.995  0.00  0.00    -0.059 C 
BRANCH  19  20
ATOM     20  C   UNL     1       5.645  -1.087  -3.103  0.00  0.00    +0.085 C 
BRANCH  20  21
ATOM     21  N   UNL     1       5.926  -1.357  -4.515  0.00  0.00    -0.317 N 
ATOM     22  C   UNL     1       6.885  -2.242  -4.854  0.00  0.00    +0.217 C 
ATOM     23  O   UNL     1       7.514  -2.815  -3.990  0.00  0.00    -0.275 OA
ATOM     24  H   UNL     1       5.423  -0.898  -5.206  0.00  0.00    +0.149 HD
BRANCH  22  25
ATOM     25  C   UNL     1       7.174  -2.520  -6.306  0.00  0.00    +0.133 C 
BRANCH  25  26
ATOM     26  C   UNL     1       8.280  -3.538  -6.412  0.00  0.00    -0.014 A 
ATOM     27  C   UNL     1       9.588  -3.284  -6.568  0.00  0.00    +0.087 A 
ATOM     28  N   UNL     1      10.289  -4.457  -6.623  0.00  0.00    -0.360 N 
ATOM     29  H   UNL     1      11.250  -4.528  -6.732  0.00  0.00    +0.165 HD
ATOM     30  C   UNL     1       9.426  -5.524  -6.502  0.00  0.00    +0.047 A 
ATOM     31  C   UNL     1       8.130  -4.995  -6.359  0.00  0.00    +0.003 A 
ATOM     32  C   UNL     1       7.040  -5.854  -6.209  0.00  0.00    +0.010 A 
ATOM     33  C   UNL     1       7.238  -7.206  -6.199  0.00  0.00    +0.001 A 
ATOM     34  C   UNL     1       8.515  -7.732  -6.337  0.00  0.00    +0.002 A 
ATOM     35  C   UNL     1       9.604  -6.903  -6.493  0.00  0.00    +0.026 A 
ENDBRANCH  25  26
ENDBRANCH  22  25
ENDBRANCH  20  21
ENDBRANCH  19  20
ENDBRANCH  11  19
TORSDOF 6
