REMARK  Name = ZINC12629220
REMARK  14 active torsions:
REMARK  status: ('A' for Active; 'I' for Inactive)
REMARK    1  A    between atoms: C_1  and  C_2
REMARK    2  A    between atoms: C_8  and  C_9
REMARK    3  A    between atoms: C_8  and  N_78
REMARK    4  A    between atoms: N_11  and  C_12
REMARK    5  A    between atoms: C_13  and  C_26
REMARK    6  A    between atoms: C_18  and  C_22
REMARK    7  A    between atoms: C_22  and  C_23
REMARK    8  A    between atoms: C_22  and  C_24
REMARK    9  A    between atoms: C_22  and  C_25
REMARK   10  A    between atoms: N_28  and  C_29
REMARK   11  A    between atoms: C_32  and  O_37
REMARK   12  A    between atoms: C_34  and  O_35
REMARK   13  A    between atoms: O_35  and  C_36
REMARK   14  A    between atoms: O_37  and  C_38
REMARK                            x       y       z     vdW  Elec       q    Type
REMARK                         _______ _______ _______ _____ _____    ______ ____
ROOT
ATOM      1  C   UNL     1      -4.258   1.669   5.651  0.00  0.00    +0.084 A 
ATOM      2  C   UNL     1      -2.953   2.139   5.625  0.00  0.00    +0.069 A 
ATOM      3  C   UNL     1      -2.058   1.696   6.680  0.00  0.00    -0.023 A 
ATOM      4  C   UNL     1      -2.610   0.866   7.592  0.00  0.00    -0.004 A 
ATOM      5  S   UNL     1      -4.286   0.661   7.061  0.00  0.00    -0.077 S 
ATOM      6  C   UNL     1      -1.937   0.258   8.784  0.00  0.00    +0.046 C 
ATOM      7  C   UNL     1      -0.625   1.014   9.037  0.00  0.00    -0.000 C 
ATOM      8  C   UNL     1       0.131   1.148   7.713  0.00  0.00    +0.009 C 
ATOM      9  C   UNL     1      -0.600   2.127   6.793  0.00  0.00    +0.037 C 
ENDROOT
BRANCH   1  12
ATOM     10  C   UNL     1      -6.503   1.384   4.953  0.00  0.00    +0.201 C 
ATOM     11  O   UNL     1      -6.693   0.649   5.899  0.00  0.00    -0.278 OA
ATOM     12  N   UNL     1      -5.289   1.938   4.764  0.00  0.00    -0.281 N 
ATOM     13  H   UNL     1      -5.136   2.526   4.007  0.00  0.00    +0.155 HD
BRANCH  10  14
ATOM     14  C   UNL     1      -7.623   1.677   3.988  0.00  0.00    +0.019 C 
BRANCH  14  21
ATOM     15  C   UNL     1     -12.480   1.185   3.388  0.00  0.00    +0.005 C 
ATOM     16  C   UNL     1     -11.264   0.741   4.204  0.00  0.00    -0.031 C 
ATOM     17  C   UNL     1     -11.119  -0.781   4.120  0.00  0.00    -0.001 C 
ATOM     18  C   UNL     1      -9.867  -1.210   4.889  0.00  0.00    -0.018 C 
ATOM     19  C   UNL     1      -8.646  -0.494   4.307  0.00  0.00    -0.078 C 
ATOM     20  C   UNL     1     -10.003   1.400   3.641  0.00  0.00    -0.075 C 
ATOM     21  N   UNL     1      -8.837   0.966   4.440  0.00  0.00    +0.386 N 
ATOM     22  H   UNL     1      -9.008   1.190   5.427  0.00  0.00    -0.081 HD
ENDBRANCH  14  21
ENDBRANCH  10  14
ENDBRANCH   1  12
BRANCH   7  23
ATOM     23  C   UNL     1       0.230   0.236  10.040  0.00  0.00    -0.035 C 
ATOM     24  C   UNL     1       0.543  -1.151   9.475  0.00  0.00    +0.011 C 
ATOM     25  C   UNL     1       1.536   0.992  10.291  0.00  0.00    +0.011 C 
ATOM     26  C   UNL     1      -0.535   0.089  11.357  0.00  0.00    +0.011 C 
ENDBRANCH   7  23
BRANCH   2  27
ATOM     27  C   UNL     1      -2.492   3.046   4.569  0.00  0.00    +0.251 C 
ATOM     28  O   UNL     1      -2.588   4.251   4.716  0.00  0.00    -0.270 OA
ATOM     29  N   UNL     1      -1.963   2.546   3.435  0.00  0.00    -0.278 N 
ATOM     30  H   UNL     1      -1.960   1.588   3.282  0.00  0.00    +0.155 HD
BRANCH  29  31
ATOM     31  C   UNL     1      -1.417   3.411   2.474  0.00  0.00    +0.076 A 
ATOM     32  C   UNL     1      -0.946   4.659   2.853  0.00  0.00    +0.030 A 
ATOM     33  C   UNL     1      -0.408   5.511   1.907  0.00  0.00    +0.047 A 
ATOM     34  C   UNL     1      -0.338   5.120   0.578  0.00  0.00    +0.124 A 
ATOM     35  C   UNL     1      -0.802   3.870   0.196  0.00  0.00    +0.093 A 
ATOM     36  C   UNL     1      -1.347   3.016   1.140  0.00  0.00    +0.145 A 
BRANCH  36  37
ATOM     37  O   UNL     1      -1.808   1.792   0.767  0.00  0.00    -0.493 OA
ATOM     38  C   UNL     1      -1.704   1.455  -0.618  0.00  0.00    +0.277 C 
ENDBRANCH  36  37
BRANCH  34  39
ATOM     39  O   UNL     1       0.192   5.960  -0.350  0.00  0.00    -0.495 OA
ATOM     40  C   UNL     1       0.656   7.230   0.114  0.00  0.00    +0.277 C 
ENDBRANCH  34  39
ENDBRANCH  29  31
ENDBRANCH   2  27
TORSDOF 8
