REMARK  Name = ZINC01382637
REMARK  6 active torsions:
REMARK  status: ('A' for Active; 'I' for Inactive)
REMARK    1  A    between atoms: C_3  and  N_8
REMARK    2  A    between atoms: N_8  and  C_9
REMARK    3  A    between atoms: C_9  and  C_11
REMARK    4  A    between atoms: C_9  and  C_18
REMARK    5  A    between atoms: N_20  and  C_21
REMARK    6  A    between atoms: C_26  and  C_28
REMARK                            x       y       z     vdW  Elec       q    Type
REMARK                         _______ _______ _______ _____ _____    ______ ____
ROOT
ATOM      1  N   UNL     1       4.024  -1.782   0.137  0.00  0.00    -0.251 N 
ATOM      2  C   UNL     1       3.777  -0.768  -0.715  0.00  0.00    +0.252 C 
ATOM      3  O   UNL     1       3.289   0.267  -0.304  0.00  0.00    -0.270 OA
ENDROOT
BRANCH   2   4
ATOM      4  C   UNL     1       4.098  -0.913  -2.148  0.00  0.00    +0.041 A 
ATOM      5  C   UNL     1       5.083  -1.815  -2.558  0.00  0.00    +0.017 A 
ATOM      6  C   UNL     1       5.381  -1.948  -3.896  0.00  0.00    +0.050 A 
ATOM      7  C   UNL     1       4.706  -1.187  -4.843  0.00  0.00    +0.162 A 
ATOM      8  C   UNL     1       3.721  -0.288  -4.442  0.00  0.00    +0.163 A 
ATOM      9  C   UNL     1       3.417  -0.149  -3.100  0.00  0.00    +0.062 A 
ATOM     10  O   UNL     1       3.044   0.458  -5.358  0.00  0.00    -0.485 OA
ATOM     11  C   UNL     1       3.631   0.566  -6.660  0.00  0.00    +0.270 C 
ATOM     12  C   UNL     1       4.070  -0.835  -7.106  0.00  0.00    +0.270 C 
ATOM     13  O   UNL     1       5.023  -1.328  -6.158  0.00  0.00    -0.485 OA
ENDBRANCH   2   4
BRANCH   1  16
ATOM     14  C   UNL     1       3.769  -1.486   3.793  0.00  0.00    +0.003 A 
ATOM     15  C   UNL     1       4.304  -1.508   2.520  0.00  0.00    +0.023 A 
ATOM     16  C   UNL     1       3.484  -1.759   1.427  0.00  0.00    +0.039 A 
ATOM     17  C   UNL     1       2.127  -1.980   1.617  0.00  0.00    +0.043 A 
ATOM     18  C   UNL     1       1.597  -1.962   2.894  0.00  0.00    +0.043 A 
ATOM     19  C   UNL     1       2.418  -1.712   3.981  0.00  0.00    +0.020 A 
ATOM     20 CL   UNL     1      -0.098  -2.246   3.134  0.00  0.00    -0.083 Cl
ENDBRANCH   1  16
BRANCH   1  21
ATOM     21  C   UNL     1       4.858  -2.909  -0.288  0.00  0.00    +0.197 C 
BRANCH  21  22
ATOM     22  C   UNL     1       4.934  -3.925   0.823  0.00  0.00    -0.018 A 
ATOM     23  C   UNL     1       3.806  -4.639   1.183  0.00  0.00    +0.009 A 
ATOM     24  C   UNL     1       3.876  -5.575   2.197  0.00  0.00    +0.038 A 
ATOM     25  C   UNL     1       5.072  -5.788   2.861  0.00  0.00    +0.123 A 
ATOM     26  C   UNL     1       6.199  -5.068   2.503  0.00  0.00    +0.038 A 
ATOM     27  C   UNL     1       6.129  -4.137   1.484  0.00  0.00    +0.009 A 
ATOM     28  F   UNL     1       5.140  -6.699   3.857  0.00  0.00    -0.205 F 
ENDBRANCH  21  22
BRANCH  21  29
ATOM     29  C   UNL     1       4.255  -3.547  -1.512  0.00  0.00    +0.239 C 
ATOM     30  O   UNL     1       3.228  -3.104  -1.984  0.00  0.00    -0.273 OA
ATOM     31  N   UNL     1       4.855  -4.610  -2.083  0.00  0.00    -0.311 N 
ATOM     32  H   UNL     1       5.675  -4.964  -1.706  0.00  0.00    +0.149 HD
BRANCH  31  33
ATOM     33  C   UNL     1       4.268  -5.231  -3.274  0.00  0.00    +0.073 C 
ATOM     34  C   UNL     1       3.244  -6.307  -2.858  0.00  0.00    +0.022 C 
ATOM     35  C   UNL     1       3.428  -7.431  -3.908  0.00  0.00    +0.002 C 
ATOM     36  C   UNL     1       4.960  -7.441  -4.133  0.00  0.00    +0.002 C 
ATOM     37  C   UNL     1       5.359  -5.952  -4.085  0.00  0.00    +0.022 C 
ENDBRANCH  31  33
ENDBRANCH  21  29
ENDBRANCH   1  21
TORSDOF 6
