REMARK  Name = ZINC63784143
REMARK  8 active torsions:
REMARK  status: ('A' for Active; 'I' for Inactive)
REMARK    1  A    between atoms: C_1  and  C_2
REMARK    2  A    between atoms: C_2  and  N_3
REMARK    3  A    between atoms: C_4  and  N_6
REMARK    4  A    between atoms: N_8  and  C_9
REMARK    5  A    between atoms: C_9  and  C_10
REMARK    6  A    between atoms: C_10  and  C_11
REMARK    7  A    between atoms: C_24  and  C_29
REMARK    8  A    between atoms: C_26  and  C_28
REMARK                            x       y       z     vdW  Elec       q    Type
REMARK                         _______ _______ _______ _____ _____    ______ ____
ROOT
ATOM      1  N   UNL     1      -2.882  -2.336   0.234  0.00  0.00    -0.130 NA
ATOM      2  C   UNL     1      -3.085  -3.602  -0.088  0.00  0.00    +0.198 C 
ATOM      3  N   UNL     1      -2.039  -4.478  -0.102  0.00  0.00    -0.357 N 
ATOM      4  N   UNL     1      -4.343  -4.034  -0.406  0.00  0.00    -0.297 N 
ATOM      5  C   UNL     1      -5.408  -3.143  -0.391  0.00  0.00    +0.231 A 
ATOM      6  N   UNL     1      -5.186  -1.877  -0.072  0.00  0.00    -0.217 NA
ATOM      7  C   UNL     1      -6.178  -1.002  -0.049  0.00  0.00    +0.044 A 
ATOM      8  C   UNL     1      -7.460  -1.424  -0.363  0.00  0.00    +0.046 A 
ATOM      9  C   UNL     1      -7.656  -2.756  -0.693  0.00  0.00    +0.044 A 
ATOM     10  N   UNL     1      -6.619  -3.578  -0.702  0.00  0.00    -0.217 NA
ATOM     11  C   UNL     1      -9.032  -3.261  -1.042  0.00  0.00    +0.066 C 
ATOM     12  C   UNL     1      -5.917   0.437   0.316  0.00  0.00    +0.066 C 
ATOM     13  H   UNL     1      -1.135  -4.156   0.036  0.00  0.00    +0.162 HD
ATOM     14  H   UNL     1      -4.492  -4.963  -0.642  0.00  0.00    +0.171 HD
ENDROOT
BRANCH   1  16
ATOM     15  N   UNL     1      -1.454  -0.649   0.968  0.00  0.00    -0.298 N 
ATOM     16  C   UNL     1      -1.707  -1.956   0.755  0.00  0.00    +0.326 C 
ATOM     17  O   UNL     1      -0.867  -2.792   1.038  0.00  0.00    -0.251 OA
ATOM     18  H   UNL     1      -2.123   0.017   0.743  0.00  0.00    +0.150 HD
BRANCH  15  20
ATOM     19  C   UNL     1      -0.140   1.289   1.675  0.00  0.00    +0.024 C 
ATOM     20  C   UNL     1      -0.170  -0.235   1.538  0.00  0.00    +0.102 C 
ENDBRANCH  15  20
ENDBRANCH   1  16
BRANCH   3  21
ATOM     21  C   UNL     1      -2.282  -5.905  -0.328  0.00  0.00    +0.120 C 
BRANCH  21  22
ATOM     22  C   UNL     1      -0.944  -6.641  -0.421  0.00  0.00    +0.054 C 
BRANCH  22  23
ATOM     23  C   UNL     1      -1.194  -8.109  -0.653  0.00  0.00    -0.040 C 
ATOM     24  C   UNL     1      -1.213  -8.753  -1.843  0.00  0.00    +0.000 A 
ATOM     25  C   UNL     1      -1.015  -8.296  -3.223  0.00  0.00    +0.030 A 
ATOM     26  C   UNL     1      -1.097  -9.196  -4.231  0.00  0.00    +0.042 A 
ATOM     27  C   UNL     1      -1.366 -10.551  -3.988  0.00  0.00    +0.022 A 
ATOM     28  C   UNL     1      -1.559 -11.045  -2.747  0.00  0.00    +0.027 A 
ATOM     29  C   UNL     1      -1.495 -10.188  -1.614  0.00  0.00    +0.043 A 
ATOM     30  N   UNL     1      -1.644 -10.423  -0.333  0.00  0.00    -0.380 N 
ATOM     31  C   UNL     1      -1.467  -9.162   0.397  0.00  0.00    +0.144 C 
ATOM     32 CL   UNL     1      -0.864  -8.659  -5.865  0.00  0.00    -0.084 Cl
ATOM     33  H   UNL     1      -1.835 -11.286   0.066  0.00  0.00    +0.160 HD
ENDBRANCH  22  23
ENDBRANCH  21  22
ENDBRANCH   3  21
TORSDOF 5
