REMARK  Name = ZINC60015697
REMARK  10 active torsions:
REMARK  status: ('A' for Active; 'I' for Inactive)
REMARK    1  A    between atoms: C_1  and  C_2
REMARK    2  A    between atoms: C_5  and  C_33
REMARK    3  A    between atoms: N_8  and  C_10
REMARK    4  A    between atoms: C_10  and  C_11
REMARK    5  A    between atoms: C_11  and  C_13
REMARK    6  A    between atoms: C_11  and  N_14
REMARK    7  A    between atoms: C_15  and  C_17
REMARK    8  A    between atoms: C_20  and  S_23
REMARK    9  A    between atoms: S_23  and  N_26
REMARK   10  A    between atoms: N_26  and  C_27
REMARK                            x       y       z     vdW  Elec       q    Type
REMARK                         _______ _______ _______ _____ _____    ______ ____
ROOT
ATOM      1  C   UNL     1       4.737   0.598  -2.463  0.00  0.00    +0.037 A 
ATOM      2  C   UNL     1       4.255  -0.688  -2.215  0.00  0.00    +0.015 A 
ATOM      3  C   UNL     1       4.799  -1.766  -2.883  0.00  0.00    +0.029 A 
ATOM      4  C   UNL     1       5.819  -1.574  -3.798  0.00  0.00    +0.109 A 
ATOM      5  C   UNL     1       6.302  -0.302  -4.048  0.00  0.00    +0.029 A 
ATOM      6  C   UNL     1       5.763   0.785  -3.392  0.00  0.00    +0.015 A 
ENDROOT
BRANCH   1   8
ATOM      7  N   UNL     1       3.169   1.574  -0.856  0.00  0.00    -0.311 N 
ATOM      8  C   UNL     1       4.160   1.758  -1.752  0.00  0.00    +0.244 C 
ATOM      9  O   UNL     1       4.577   2.877  -1.974  0.00  0.00    -0.270 OA
ATOM     10  H   UNL     1       2.836   0.680  -0.679  0.00  0.00    +0.149 HD
BRANCH   7  11
ATOM     11  C   UNL     1       2.597   2.723  -0.150  0.00  0.00    +0.054 C 
ATOM     12  C   UNL     1       3.450   3.043   1.079  0.00  0.00    +0.026 C 
BRANCH  11  13
ATOM     13  C   UNL     1       1.170   2.391   0.291  0.00  0.00    -0.057 C 
BRANCH  13  19
ATOM     14  C   UNL     1      -0.626   3.804  -4.038  0.00  0.00    +0.005 C 
ATOM     15  C   UNL     1      -0.493   2.631  -3.064  0.00  0.00    -0.031 C 
ATOM     16  C   UNL     1      -1.887   2.138  -2.666  0.00  0.00    +0.003 C 
ATOM     17  C   UNL     1      -1.745   1.017  -1.632  0.00  0.00    -0.031 C 
ATOM     18  C   UNL     1      -0.949   1.536  -0.433  0.00  0.00    -0.076 C 
ATOM     19  N   UNL     1       0.382   1.967  -0.874  0.00  0.00    +0.381 N 
ATOM     20  C   UNL     1       0.257   3.090  -1.812  0.00  0.00    -0.076 C 
ATOM     21  C   UNL     1      -3.134   0.569  -1.170  0.00  0.00    +0.005 C 
ATOM     22  H   UNL     1       0.849   1.199  -1.332  0.00  0.00    -0.082 HD
ENDBRANCH  13  19
ENDBRANCH  11  13
ENDBRANCH   7  11
ENDBRANCH   1   8
BRANCH   4  23
ATOM     23  S   UNL     1       6.508  -2.956  -4.646  0.00  0.00    +0.072 S 
ATOM     24  O   UNL     1       7.859  -2.624  -4.933  0.00  0.00    -0.150 OA
ATOM     25  O   UNL     1       6.149  -4.111  -3.900  0.00  0.00    -0.150 OA
BRANCH  23  26
ATOM     26  N   UNL     1       5.730  -3.074  -6.103  0.00  0.00    -0.216 N 
ATOM     27  H   UNL     1       6.228  -2.971  -6.929  0.00  0.00    +0.174 HD
BRANCH  26  28
ATOM     28  C   UNL     1       4.356  -3.320  -6.143  0.00  0.00    +0.048 A 
ATOM     29  C   UNL     1       3.869  -4.592  -5.870  0.00  0.00    +0.024 A 
ATOM     30  C   UNL     1       2.509  -4.833  -5.910  0.00  0.00    +0.002 A 
ATOM     31  C   UNL     1       1.633  -3.809  -6.222  0.00  0.00    +0.000 A 
ATOM     32  C   UNL     1       2.115  -2.542  -6.495  0.00  0.00    +0.002 A 
ATOM     33  C   UNL     1       3.472  -2.293  -6.451  0.00  0.00    +0.024 A 
ENDBRANCH  26  28
ENDBRANCH  23  26
ENDBRANCH   4  23
TORSDOF 7
