REMARK  Name = ZINC35483340
REMARK  12 active torsions:
REMARK  status: ('A' for Active; 'I' for Inactive)
REMARK    1  A    between atoms: C_1  and  C_2
REMARK    2  A    between atoms: C_2  and  N_3
REMARK    3  A    between atoms: N_3  and  C_4
REMARK    4  A    between atoms: N_3  and  C_6
REMARK    5  A    between atoms: C_4  and  C_5
REMARK    6  A    between atoms: C_6  and  C_7
REMARK    7  A    between atoms: C_7  and  C_8
REMARK    8  A    between atoms: C_8  and  N_9
REMARK    9  A    between atoms: C_10  and  C_25
REMARK   10  A    between atoms: C_28  and  O_31
REMARK   11  A    between atoms: O_31  and  C_32
REMARK   12  A    between atoms: C_32  and  C_33
REMARK                            x       y       z     vdW  Elec       q    Type
REMARK                         _______ _______ _______ _____ _____    ______ ____
ROOT
ATOM      1  N   UNL     1      -0.169  -3.893   3.441  0.00  0.00    -0.284 N 
ATOM      2  C   UNL     1       1.258  -4.179   3.667  0.00  0.00    +0.144 C 
ATOM      3  C   UNL     1       1.412  -4.342   5.143  0.00  0.00    +0.072 A 
ATOM      4  C   UNL     1       2.590  -4.646   5.964  0.00  0.00    +0.199 A 
ATOM      5  O   UNL     1       3.726  -4.648   5.525  0.00  0.00    -0.287 OA
ATOM      6  C   UNL     1       2.264  -4.950   7.380  0.00  0.00    +0.064 A 
ATOM      7  C   UNL     1       3.243  -5.450   8.238  0.00  0.00    +0.015 A 
ATOM      8  C   UNL     1       2.926  -5.730   9.538  0.00  0.00    +0.001 A 
ATOM      9  C   UNL     1       1.636  -5.519  10.004  0.00  0.00    +0.004 A 
ATOM     10  C   UNL     1       0.657  -5.025   9.171  0.00  0.00    +0.047 A 
ATOM     11  C   UNL     1       0.956  -4.729   7.841  0.00  0.00    +0.139 A 
ATOM     12  O   UNL     1      -0.018  -4.234   7.043  0.00  0.00    -0.450 OA
ATOM     13  C   UNL     1       0.185  -4.160   5.713  0.00  0.00    +0.199 A 
ATOM     14  C   UNL     1      -0.786  -3.878   4.641  0.00  0.00    +0.283 C 
ATOM     15  O   UNL     1      -1.970  -3.667   4.811  0.00  0.00    -0.267 OA
ENDROOT
BRANCH   2  16
ATOM     16  C   UNL     1       1.651  -5.449   2.958  0.00  0.00    -0.022 A 
ATOM     17  C   UNL     1       0.789  -6.530   2.948  0.00  0.00    +0.009 A 
ATOM     18  C   UNL     1       1.147  -7.696   2.300  0.00  0.00    +0.046 A 
ATOM     19  C   UNL     1       2.374  -7.781   1.657  0.00  0.00    +0.121 A 
ATOM     20  C   UNL     1       3.237  -6.695   1.667  0.00  0.00    +0.046 A 
ATOM     21  C   UNL     1       2.872  -5.530   2.313  0.00  0.00    +0.009 A 
BRANCH  19  22
ATOM     22  O   UNL     1       2.729  -8.927   1.018  0.00  0.00    -0.487 OA
BRANCH  22  23
ATOM     23  C   UNL     1       4.006  -8.944   0.378  0.00  0.00    +0.264 C 
BRANCH  23  24
ATOM     24  C   UNL     1       4.225 -10.286  -0.272  0.00  0.00    -0.010 A 
ATOM     25  C   UNL     1       4.820 -11.310   0.440  0.00  0.00    +0.007 A 
ATOM     26  C   UNL     1       5.021 -12.541  -0.156  0.00  0.00    +0.000 A 
ATOM     27  C   UNL     1       4.625 -12.748  -1.464  0.00  0.00    +0.000 A 
ATOM     28  C   UNL     1       4.029 -11.724  -2.176  0.00  0.00    +0.000 A 
ATOM     29  C   UNL     1       3.825 -10.494  -1.579  0.00  0.00    +0.007 A 
ENDBRANCH  23  24
ENDBRANCH  22  23
ENDBRANCH  19  22
ENDBRANCH   2  16
BRANCH   1  30
ATOM     30  C   UNL     1      -0.805  -3.658   2.143  0.00  0.00    +0.107 C 
BRANCH  30  31
ATOM     31  C   UNL     1      -0.756  -2.164   1.814  0.00  0.00    +0.000 C 
BRANCH  31  32
ATOM     32  C   UNL     1      -1.421  -1.919   0.458  0.00  0.00    -0.077 C 
BRANCH  32  33
ATOM     33  N   UNL     1      -1.374  -0.485   0.142  0.00  0.00    +0.379 N 
ATOM     34  H   UNL     1      -1.792   0.039   0.895  0.00  0.00    -0.082 HD
BRANCH  33  36
ATOM     35  C   UNL     1       0.082   1.451  -0.216  0.00  0.00    -0.017 C 
ATOM     36  C   UNL     1       0.024  -0.066  -0.029  0.00  0.00    -0.082 C 
ENDBRANCH  33  36
BRANCH  33  37
ATOM     37  C   UNL     1      -2.116  -0.233  -1.101  0.00  0.00    -0.082 C 
ATOM     38  C   UNL     1      -3.600  -0.533  -0.879  0.00  0.00    -0.017 C 
ENDBRANCH  33  37
ENDBRANCH  32  33
ENDBRANCH  31  32
ENDBRANCH  30  31
ENDBRANCH   1  30
TORSDOF 10
