REMARK  Name = ZINC09921037
REMARK  10 active torsions:
REMARK  status: ('A' for Active; 'I' for Inactive)
REMARK    1  A    between atoms: C_1  and  C_2
REMARK    2  A    between atoms: C_2  and  O_3
REMARK    3  A    between atoms: O_3  and  C_4
REMARK    4  A    between atoms: C_7  and  C_12
REMARK    5  A    between atoms: C_9  and  O_10
REMARK    6  A    between atoms: O_10  and  C_11
REMARK    7  A    between atoms: C_12  and  O_14
REMARK    8  A    between atoms: O_14  and  C_15
REMARK    9  A    between atoms: C_15  and  C_16
REMARK   10  A    between atoms: N_21  and  C_22
REMARK                            x       y       z     vdW  Elec       q    Type
REMARK                         _______ _______ _______ _____ _____    ______ ____
ROOT
ATOM      1  C   UNL     1      -7.192   1.201   2.099  0.00  0.00    +0.258 C 
ATOM      2  O   UNL     1      -6.796   1.898   3.008  0.00  0.00    -0.272 OA
ATOM      3  N   UNL     1      -6.368   0.892   1.079  0.00  0.00    -0.237 N 
ATOM      4  C   UNL     1      -5.103   1.358   1.069  0.00  0.00    +0.306 C 
ATOM      5  O   UNL     1      -4.707   2.057   1.980  0.00  0.00    -0.252 OA
ATOM      6  N   UNL     1      -4.279   1.049   0.049  0.00  0.00    -0.294 N 
ATOM      7  H   UNL     1      -6.684   0.334   0.351  0.00  0.00    +0.159 HD
ATOM      8  H   UNL     1      -4.595   0.491  -0.679  0.00  0.00    +0.151 HD
ENDROOT
BRANCH   6   9
ATOM      9  C   UNL     1      -2.904   1.556   0.038  0.00  0.00    +0.037 C 
ATOM     10  C   UNL     1      -2.188   1.063  -1.221  0.00  0.00    +0.029 C 
ATOM     11  C   UNL     1      -0.753   1.593  -1.232  0.00  0.00    -0.008 C 
ATOM     12  C   UNL     1      -0.013   1.086   0.008  0.00  0.00    +0.007 C 
ATOM     13  C   UNL     1      -0.729   1.579   1.267  0.00  0.00    -0.008 C 
ATOM     14  C   UNL     1      -2.164   1.050   1.278  0.00  0.00    +0.029 C 
ATOM     15  C   UNL     1      -0.750   3.109   1.275  0.00  0.00    +0.007 C 
ATOM     16  C   UNL     1      -1.490   3.616   0.036  0.00  0.00    -0.008 C 
ATOM     17  C   UNL     1      -0.773   3.123  -1.223  0.00  0.00    +0.007 C 
ATOM     18  C   UNL     1      -2.925   3.086   0.047  0.00  0.00    +0.029 C 
ENDBRANCH   6   9
BRANCH   1  19
ATOM     19  C   UNL     1      -8.606   0.679   2.110  0.00  0.00    +0.328 C 
BRANCH  19  20
ATOM     20  O   UNL     1      -9.286   1.147   3.304  0.00  0.00    -0.452 OA
BRANCH  20  21
ATOM     21  C   UNL     1     -10.568   0.767   3.467  0.00  0.00    +0.340 C 
ATOM     22  O   UNL     1     -11.104   0.063   2.634  0.00  0.00    -0.245 OA
BRANCH  21  26
ATOM     23  C   UNL     1     -12.733   2.031   6.897  0.00  0.00    +0.162 A 
ATOM     24  C   UNL     1     -11.412   2.422   6.727  0.00  0.00    +0.050 A 
ATOM     25  C   UNL     1     -10.705   2.009   5.619  0.00  0.00    +0.019 A 
ATOM     26  C   UNL     1     -11.321   1.205   4.657  0.00  0.00    +0.063 A 
ATOM     27  C   UNL     1     -12.652   0.811   4.828  0.00  0.00    +0.064 A 
ATOM     28  C   UNL     1     -13.353   1.224   5.944  0.00  0.00    +0.162 A 
BRANCH  28  29
ATOM     29  O   UNL     1     -14.647   0.843   6.113  0.00  0.00    -0.491 OA
ATOM     30  C   UNL     1     -15.218   0.016   5.097  0.00  0.00    +0.277 C 
ENDBRANCH  28  29
BRANCH  23  31
ATOM     31  O   UNL     1     -13.424   2.436   7.994  0.00  0.00    -0.489 OA
BRANCH  31  33
ATOM     32  C   UNL     1     -13.662   3.614  10.091  0.00  0.00    +0.048 C 
ATOM     33  C   UNL     1     -12.729   3.262   8.930  0.00  0.00    +0.226 C 
ENDBRANCH  31  33
ENDBRANCH  23  31
ENDBRANCH  21  26
ENDBRANCH  20  21
ENDBRANCH  19  20
ENDBRANCH   1  19
TORSDOF 8
