REMARK  Name = ZINC12604972
REMARK  11 active torsions:
REMARK  status: ('A' for Active; 'I' for Inactive)
REMARK    1  A    between atoms: C_1  and  C_2
REMARK    2  A    between atoms: C_5  and  N_8
REMARK    3  A    between atoms: N_8  and  S_9
REMARK    4  A    between atoms: S_9  and  C_12
REMARK    5  A    between atoms: C_15  and  C_18
REMARK    6  A    between atoms: N_20  and  C_21
REMARK    7  A    between atoms: C_21  and  C_22
REMARK    8  A    between atoms: C_22  and  C_24
REMARK    9  A    between atoms: C_22  and  N_66
REMARK   10  A    between atoms: C_29  and  O_30
REMARK   11  A    between atoms: O_30  and  C_31
REMARK                            x       y       z     vdW  Elec       q    Type
REMARK                         _______ _______ _______ _____ _____    ______ ____
ROOT
ATOM      1  C   UNL     1       4.719   5.623   1.437  0.00  0.00    +0.244 C 
ATOM      2  O   UNL     1       3.950   5.456   2.363  0.00  0.00    -0.270 OA
ATOM      3  N   UNL     1       4.297   5.443   0.170  0.00  0.00    -0.313 N 
ATOM      4  H   UNL     1       4.910   5.576  -0.569  0.00  0.00    +0.149 HD
ENDROOT
BRANCH   1   8
ATOM      5  C   UNL     1       8.737   6.772   2.195  0.00  0.00    +0.109 A 
ATOM      6  C   UNL     1       7.864   6.583   3.251  0.00  0.00    +0.029 A 
ATOM      7  C   UNL     1       6.558   6.210   3.012  0.00  0.00    +0.015 A 
ATOM      8  C   UNL     1       6.117   6.023   1.701  0.00  0.00    +0.037 A 
ATOM      9  C   UNL     1       7.005   6.210   0.640  0.00  0.00    +0.015 A 
ATOM     10  C   UNL     1       8.307   6.589   0.892  0.00  0.00    +0.029 A 
BRANCH   5  11
ATOM     11  S   UNL     1      10.404   7.249   2.509  0.00  0.00    +0.072 S 
ATOM     12  O   UNL     1      10.911   7.781   1.292  0.00  0.00    -0.150 OA
ATOM     13  O   UNL     1      10.393   7.993   3.719  0.00  0.00    -0.150 OA
BRANCH  11  14
ATOM     14  N   UNL     1      11.260   5.864   2.812  0.00  0.00    -0.216 N 
ATOM     15  H   UNL     1      11.660   5.722   3.684  0.00  0.00    +0.174 HD
BRANCH  14  20
ATOM     16  C   UNL     1      11.857   1.952  -1.249  0.00  0.00    +0.044 C 
ATOM     17  C   UNL     1      11.699   2.991  -0.170  0.00  0.00    -0.050 A 
ATOM     18  C   UNL     1      12.409   4.175  -0.243  0.00  0.00    +0.005 A 
ATOM     19  C   UNL     1      12.266   5.130   0.744  0.00  0.00    +0.025 A 
ATOM     20  C   UNL     1      11.407   4.901   1.812  0.00  0.00    +0.048 A 
ATOM     21  C   UNL     1      10.699   3.708   1.885  0.00  0.00    +0.025 A 
ATOM     22  C   UNL     1      10.843   2.759   0.891  0.00  0.00    +0.005 A 
ENDBRANCH  14  20
ENDBRANCH  11  14
ENDBRANCH   5  11
ENDBRANCH   1   8
BRANCH   3  23
ATOM     23  C   UNL     1       2.911   5.046  -0.091  0.00  0.00    +0.094 C 
BRANCH  23  24
ATOM     24  C   UNL     1       2.728   4.786  -1.588  0.00  0.00    -0.017 C 
BRANCH  24  25
ATOM     25  C   UNL     1       3.557   3.595  -1.996  0.00  0.00    -0.018 A 
ATOM     26  C   UNL     1       4.823   3.780  -2.518  0.00  0.00    +0.005 A 
ATOM     27  C   UNL     1       5.584   2.688  -2.892  0.00  0.00    +0.000 A 
ATOM     28  C   UNL     1       5.078   1.409  -2.749  0.00  0.00    +0.004 A 
ATOM     29  C   UNL     1       3.816   1.219  -2.222  0.00  0.00    +0.046 A 
ATOM     30  C   UNL     1       3.050   2.313  -1.846  0.00  0.00    +0.122 A 
BRANCH  30  31
ATOM     31  O   UNL     1       1.806   2.128  -1.332  0.00  0.00    -0.495 OA
ATOM     32  C   UNL     1       1.349   0.780  -1.207  0.00  0.00    +0.277 C 
ENDBRANCH  30  31
ENDBRANCH  24  25
BRANCH  24  37
ATOM     33  C   UNL     1       2.950   5.771  -3.804  0.00  0.00    -0.078 C 
ATOM     34  C   UNL     1       2.944   7.217  -4.359  0.00  0.00    -0.020 C 
ATOM     35  C   UNL     1       2.211   8.009  -3.252  0.00  0.00    -0.020 C 
ATOM     36  C   UNL     1       2.361   7.156  -1.980  0.00  0.00    -0.078 C 
ATOM     37  N   UNL     1       3.157   5.989  -2.363  0.00  0.00    +0.385 N 
ATOM     38  H   UNL     1       4.151   6.171  -2.179  0.00  0.00    -0.081 HD
ENDBRANCH  24  37
ENDBRANCH  23  24
ENDBRANCH   3  23
TORSDOF 9
