REMARK  Name = ZINC65182357
REMARK  11 active torsions:
REMARK  status: ('A' for Active; 'I' for Inactive)
REMARK    1  A    between atoms: C_1  and  C_2
REMARK    2  A    between atoms: C_2  and  C_3
REMARK    3  A    between atoms: C_6  and  C_33
REMARK    4  A    between atoms: C_11  and  C_13
REMARK    5  A    between atoms: C_16  and  C_19
REMARK    6  A    between atoms: C_19  and  C_20
REMARK    7  A    between atoms: C_20  and  N_21
REMARK    8  A    between atoms: N_21  and  C_22
REMARK    9  A    between atoms: C_23  and  C_25
REMARK   10  A    between atoms: C_30  and  O_31
REMARK   11  A    between atoms: O_31  and  C_32
REMARK                            x       y       z     vdW  Elec       q    Type
REMARK                         _______ _______ _______ _____ _____    ______ ____
ROOT
ATOM      1  C   UNL     1       1.721  -2.796  -1.116  0.00  0.00    +0.318 C 
ATOM      2  N   UNL     1       2.188  -4.078  -1.667  0.00  0.00    -0.291 N 
ATOM      3  C   UNL     1       3.541  -4.145  -1.427  0.00  0.00    +0.139 C 
ATOM      4  N   UNL     1       3.963  -3.098  -0.815  0.00  0.00    -0.072 NA
ATOM      5  O   UNL     1       2.903  -2.189  -0.570  0.00  0.00    -0.367 OA
ATOM      6  H   UNL     1       1.647  -4.747  -2.113  0.00  0.00    +0.151 HD
ENDROOT
BRANCH   1  15
ATOM      7  C   UNL     1       0.695  -0.587  -1.658  0.00  0.00    -0.033 C 
ATOM      8  C   UNL     1       1.430   0.351  -2.298  0.00  0.00    -0.000 A 
ATOM      9  C   UNL     1       1.478   1.815  -2.198  0.00  0.00    +0.013 A 
ATOM     10  C   UNL     1       2.337   2.498  -2.989  0.00  0.00    -0.050 A 
ATOM     11  C   UNL     1       3.179   1.845  -3.899  0.00  0.00    +0.005 A 
ATOM     12  C   UNL     1       3.192   0.504  -4.048  0.00  0.00    +0.026 A 
ATOM     13  C   UNL     1       2.330  -0.314  -3.267  0.00  0.00    +0.043 A 
ATOM     14  N   UNL     1       2.158  -1.613  -3.228  0.00  0.00    -0.373 N 
ATOM     15  C   UNL     1       1.133  -1.920  -2.224  0.00  0.00    +0.169 C 
ATOM     16  C   UNL     1       2.389   4.001  -2.888  0.00  0.00    +0.044 C 
ATOM     17  H   UNL     1       2.633  -2.264  -3.769  0.00  0.00    +0.160 HD
BRANCH   7  19
ATOM     18  C   UNL     1      -0.470   1.148  -0.324  0.00  0.00    +0.008 C 
ATOM     19  C   UNL     1      -0.344  -0.353  -0.593  0.00  0.00    +0.030 C 
ENDBRANCH   7  19
ENDBRANCH   1  15
BRANCH   3  20
ATOM     20  C   UNL     1       4.418  -5.302  -1.831  0.00  0.00    +0.094 C 
BRANCH  20  21
ATOM     21  C   UNL     1       5.859  -5.024  -1.401  0.00  0.00    +0.115 C 
BRANCH  21  22
ATOM     22  N   UNL     1       6.711  -6.149  -1.794  0.00  0.00    -0.300 N 
ATOM     23  C   UNL     1       7.363  -6.151  -3.106  0.00  0.00    +0.132 C 
ATOM     24  C   UNL     1       6.896  -7.182  -0.949  0.00  0.00    +0.250 C 
ATOM     25  O   UNL     1       6.282  -7.228   0.100  0.00  0.00    -0.270 OA
BRANCH  24  26
ATOM     26  C   UNL     1       7.844  -8.259  -1.296  0.00  0.00    +0.078 A 
ATOM     27  C   UNL     1       9.091  -7.947  -1.841  0.00  0.00    +0.017 A 
ATOM     28  C   UNL     1       9.972  -8.957  -2.163  0.00  0.00    +0.001 A 
ATOM     29  C   UNL     1       9.626 -10.281  -1.947  0.00  0.00    +0.004 A 
ATOM     30  C   UNL     1       8.397 -10.603  -1.408  0.00  0.00    +0.046 A 
ATOM     31  C   UNL     1       7.500  -9.599  -1.074  0.00  0.00    +0.132 A 
BRANCH  31  32
ATOM     32  O   UNL     1       6.293  -9.913  -0.539  0.00  0.00    -0.494 OA
ATOM     33  C   UNL     1       6.013 -11.301  -0.342  0.00  0.00    +0.277 C 
ENDBRANCH  31  32
ENDBRANCH  24  26
ENDBRANCH  21  22
ENDBRANCH  20  21
ENDBRANCH   3  20
TORSDOF 7
