REMARK  Name = ZINC36629046
REMARK  6 active torsions:
REMARK  status: ('A' for Active; 'I' for Inactive)
REMARK    1  A    between atoms: C_1  and  C_2
REMARK    2  A    between atoms: C_2  and  C_3
REMARK    3  A    between atoms: C_3  and  N_4
REMARK    4  A    between atoms: C_10  and  N_15
REMARK    5  A    between atoms: C_11  and  C_12
REMARK    6  A    between atoms: C_16  and  C_18
REMARK                            x       y       z     vdW  Elec       q    Type
REMARK                         _______ _______ _______ _____ _____    ______ ____
ROOT
ATOM      1  N   UNL     1      -1.413  -2.002   0.005  0.00  0.00    +0.383 N 
ATOM      2  C   UNL     1      -2.787  -2.509  -0.110  0.00  0.00    -0.074 C 
ATOM      3  C   UNL     1      -2.773  -4.007  -0.433  0.00  0.00    +0.018 C 
ATOM      4  C   UNL     1      -1.878  -4.697   0.588  0.00  0.00    -0.027 A 
ATOM      5  C   UNL     1      -1.009  -3.973   1.329  0.00  0.00    -0.021 A 
ATOM      6  S   UNL     1      -0.202  -5.161   2.358  0.00  0.00    -0.079 S 
ATOM      7  C   UNL     1      -0.971  -6.561   1.838  0.00  0.00    +0.085 A 
ATOM      8  C   UNL     1      -1.858  -6.119   0.866  0.00  0.00    +0.068 A 
ATOM      9  C   UNL     1      -0.807  -2.492   1.257  0.00  0.00    -0.035 C 
ATOM     10  H   UNL     1      -0.870  -2.327  -0.781  0.00  0.00    -0.081 HD
ENDROOT
BRANCH   8  11
ATOM     11  C   UNL     1      -2.735  -7.051   0.151  0.00  0.00    +0.244 C 
ATOM     12  O   UNL     1      -2.358  -7.571  -0.882  0.00  0.00    -0.270 OA
ATOM     13  N   UNL     1      -3.960  -7.332   0.638  0.00  0.00    -0.325 N 
ATOM     14  H   UNL     1      -4.261  -6.917   1.462  0.00  0.00    +0.145 HD
ATOM     15  H   UNL     1      -4.541  -7.948   0.166  0.00  0.00    +0.145 HD
ENDBRANCH   8  11
BRANCH   7  16
ATOM     16  N   UNL     1      -0.767  -7.858   2.278  0.00  0.00    -0.273 N 
ATOM     17  C   UNL     1       0.143  -8.108   3.240  0.00  0.00    +0.284 C 
ATOM     18  O   UNL     1       0.786  -7.194   3.722  0.00  0.00    -0.266 OA
ATOM     19  H   UNL     1      -1.280  -8.587   1.894  0.00  0.00    +0.156 HD
BRANCH  17  20
ATOM     20  C   UNL     1       0.358  -9.480   3.706  0.00  0.00    +0.191 A 
ATOM     21  C   UNL     1       1.241  -9.870   4.674  0.00  0.00    +0.056 A 
ATOM     22  C   UNL     1       1.116 -11.262   4.797  0.00  0.00    +0.058 A 
ATOM     23  C   UNL     1       0.173 -11.657   3.910  0.00  0.00    +0.171 A 
ATOM     24  O   UNL     1      -0.284 -10.579   3.259  0.00  0.00    -0.444 OA
ATOM     25 BR   UNL     1      -0.406 -13.436   3.639  0.00  0.00    -0.008 Br
ENDBRANCH  17  20
ENDBRANCH   7  16
BRANCH   1  26
ATOM     26  C   UNL     1      -1.433  -0.534   0.013  0.00  0.00    -0.079 C 
BRANCH  26  28
ATOM     27  C   UNL     1      -0.019   1.526   0.010  0.00  0.00    +0.002 C 
ATOM     28  C   UNL     1       0.002  -0.004   0.002  0.00  0.00    -0.022 C 
ENDBRANCH  26  28
ENDBRANCH   1  26
TORSDOF 5
