REMARK  Name = ZINC24716821
REMARK  9 active torsions:
REMARK  status: ('A' for Active; 'I' for Inactive)
REMARK    1  A    between atoms: C_1  and  O_2
REMARK    2  A    between atoms: O_2  and  C_3
REMARK    3  A    between atoms: C_6  and  C_9
REMARK    4  A    between atoms: C_18  and  C_20
REMARK    5  A    between atoms: C_20  and  N_21
REMARK    6  A    between atoms: N_21  and  C_22
REMARK    7  A    between atoms: N_21  and  C_28
REMARK    8  A    between atoms: C_22  and  C_23
REMARK    9  A    between atoms: C_28  and  C_29
REMARK                            x       y       z     vdW  Elec       q    Type
REMARK                         _______ _______ _______ _____ _____    ______ ____
ROOT
ATOM      1  C   UNL     1       6.045  -0.119  -0.241  0.00  0.00    +0.022 A 
ATOM      2  C   UNL     1       4.739   0.158  -0.521  0.00  0.00    +0.044 A 
ATOM      3  C   UNL     1       3.814  -0.884  -0.636  0.00  0.00    +0.086 A 
ATOM      4  C   UNL     1       4.329  -2.179  -0.444  0.00  0.00    +0.102 A 
ATOM      5  S   UNL     1       6.050  -1.900  -0.119  0.00  0.00    -0.081 S 
ATOM      6  C   UNL     1       3.511  -3.306  -0.531  0.00  0.00    +0.266 A 
ATOM      7  O   UNL     1       3.966  -4.425  -0.364  0.00  0.00    -0.267 OA
ATOM      8  N   UNL     1       2.197  -3.122  -0.801  0.00  0.00    -0.311 N 
ATOM      9  H   UNL     1       1.522  -3.988  -0.868  0.00  0.00    +0.170 HD
ATOM     10  C   UNL     1       1.724  -1.861  -0.987  0.00  0.00    +0.094 A 
ATOM     11  N   UNL     1       2.470  -0.806  -0.910  0.00  0.00    -0.235 NA
ENDROOT
BRANCH   1  15
ATOM     12  C   UNL     1       9.291   2.583   0.225  0.00  0.00    +0.120 A 
ATOM     13  C   UNL     1       9.502   1.217   0.361  0.00  0.00    +0.046 A 
ATOM     14  C   UNL     1       8.451   0.337   0.210  0.00  0.00    +0.012 A 
ATOM     15  C   UNL     1       7.174   0.821  -0.079  0.00  0.00    -0.011 A 
ATOM     16  C   UNL     1       6.967   2.194  -0.220  0.00  0.00    +0.012 A 
ATOM     17  C   UNL     1       8.022   3.068  -0.063  0.00  0.00    +0.046 A 
BRANCH  12  19
ATOM     18  C   UNL     1      10.041   4.838   0.222  0.00  0.00    +0.277 C 
ATOM     19  O   UNL     1      10.329   3.447   0.374  0.00  0.00    -0.495 OA
ENDBRANCH  12  19
ENDBRANCH   1  15
BRANCH  10  20
ATOM     20  C   UNL     1       0.259  -1.683  -1.291  0.00  0.00    -0.002 C 
BRANCH  20  21
ATOM     21  N   UNL     1      -0.038  -0.253  -1.448  0.00  0.00    +0.392 N 
ATOM     22  H   UNL     1       0.673   0.163  -2.177  0.00  0.00    -0.080 HD
BRANCH  21  23
ATOM     23  C   UNL     1      -1.394  -0.051  -1.976  0.00  0.00    -0.002 C 
BRANCH  23  24
ATOM     24  C   UNL     1      -1.435  -0.460  -3.426  0.00  0.00    +0.089 A 
ATOM     25  C   UNL     1      -1.826  -1.658  -3.895  0.00  0.00    +0.042 A 
ATOM     26  C   UNL     1      -1.706  -1.606  -5.303  0.00  0.00    +0.041 A 
ATOM     27  C   UNL     1      -1.248  -0.379  -5.609  0.00  0.00    +0.195 A 
ATOM     28  O   UNL     1      -1.091   0.313  -4.469  0.00  0.00    -0.470 OA
ENDBRANCH  23  24
ENDBRANCH  21  23
BRANCH  21  29
ATOM     29  C   UNL     1       0.145   0.465  -0.179  0.00  0.00    -0.034 C 
BRANCH  29  30
ATOM     30  C   UNL     1       0.221   1.946  -0.447  0.00  0.00    -0.027 A 
ATOM     31  C   UNL     1      -0.773   2.867  -0.438  0.00  0.00    +0.009 A 
ATOM     32  C   UNL     1      -0.467   4.187  -0.712  0.00  0.00    +0.008 A 
ATOM     33  C   UNL     1       0.817   4.519  -0.992  0.00  0.00    +0.045 A 
ATOM     34  S   UNL     1       1.643   2.942  -0.864  0.00  0.00    -0.103 S 
ENDBRANCH  29  30
ENDBRANCH  21  29
ENDBRANCH  20  21
ENDBRANCH  10  20
TORSDOF 8
