REMARK  Name = ZINC39466691
REMARK  7 active torsions:
REMARK  status: ('A' for Active; 'I' for Inactive)
REMARK    1  A    between atoms: C_1  and  S_2
REMARK    2  A    between atoms: S_2  and  C_3
REMARK    3  A    between atoms: P_12  and  C_31
REMARK    4  A    between atoms: C_20  and  S_21
REMARK    5  A    between atoms: S_21  and  O_24
REMARK    6  A    between atoms: O_24  and  C_25
REMARK    7  A    between atoms: C_31  and  C_32
REMARK                            x       y       z     vdW  Elec       q    Type
REMARK                         _______ _______ _______ _____ _____    ______ ____
ROOT
ATOM      1  C   UNL     1      -1.702  -0.454   0.016  0.00  0.00    +0.032 C 
ATOM      2  C   UNL     1      -2.651   0.492   0.025  0.00  0.00    -0.006 C 
ATOM      3  C   UNL     1      -4.099   0.083   0.049  0.00  0.00    +0.017 C 
ATOM      4  C   UNL     1      -4.963   1.203   0.613  0.00  0.00    -0.003 C 
ATOM      5  C   UNL     1      -4.620   1.466   2.084  0.00  0.00    -0.020 C 
ATOM      6  C   UNL     1      -5.555   2.581   2.572  0.00  0.00    +0.156 C 
ATOM      7  O   UNL     1      -5.245   2.906   3.939  0.00  0.00    -0.319 OA
ATOM      8  P   UNL     1      -5.148   1.678   5.003  0.00  0.00    +0.262 P 
ATOM      9  O   UNL     1      -6.502   1.270   5.440  0.00  0.00    -0.274 OA
ATOM     10  N   UNL     1      -4.417   0.449   4.179  0.00  0.00    -0.291 NA
ATOM     11  N   UNL     1      -4.795   0.242   2.869  0.00  0.00    +0.397 N 
ATOM     12  C   UNL     1      -3.917  -0.823   2.359  0.00  0.00    -0.046 C 
ATOM     13  C   UNL     1      -4.265  -1.161   0.926  0.00  0.00    +0.006 C 
ATOM     14  C   UNL     1      -3.304  -2.224   0.451  0.00  0.00    +0.007 C 
ATOM     15  C   UNL     1      -2.098  -1.876   0.012  0.00  0.00    +0.137 C 
ATOM     16  H   UNL     1      -3.747  -0.109   4.603  0.00  0.00    +0.111 HD
ATOM     17  H   UNL     1      -5.761  -0.050   2.833  0.00  0.00    -0.055 HD
ENDROOT
BRANCH  15  18
ATOM     18  S   UNL     1      -0.975  -3.105  -0.565  0.00  0.00    +0.152 S 
ATOM     19  O   UNL     1       0.294  -2.790  -0.008  0.00  0.00    -0.131 OA
ATOM     20  O   UNL     1      -1.606  -4.361  -0.359  0.00  0.00    -0.131 OA
BRANCH  18  21
ATOM     21  O   UNL     1      -0.845  -2.925  -2.071  0.00  0.00    -0.342 OA
BRANCH  21  22
ATOM     22  C   UNL     1      -0.089  -1.857  -2.437  0.00  0.00    +0.157 A 
ATOM     23  C   UNL     1      -0.682  -0.616  -2.619  0.00  0.00    +0.048 A 
ATOM     24  C   UNL     1       0.088   0.469  -2.991  0.00  0.00    +0.004 A 
ATOM     25  C   UNL     1       1.450   0.319  -3.181  0.00  0.00    +0.000 A 
ATOM     26  C   UNL     1       2.043  -0.917  -2.999  0.00  0.00    +0.004 A 
ATOM     27  C   UNL     1       1.278  -2.003  -2.622  0.00  0.00    +0.048 A 
ENDBRANCH  21  22
ENDBRANCH  18  21
ENDBRANCH  15  18
BRANCH   1  29
ATOM     28  C   UNL     1      -0.022   1.810   0.012  0.00  0.00    +0.090 C 
ATOM     29  S   UNL     1       0.002  -0.004   0.002  0.00  0.00    -0.127 S 
ENDBRANCH   1  29
BRANCH   8  30
ATOM     30  C   UNL     1      -4.141   2.166   6.442  0.00  0.00    +0.147 C 
BRANCH  30  31
ATOM     31  C   UNL     1      -4.774   3.354   7.118  0.00  0.00    -0.037 A 
ATOM     32  C   UNL     1      -4.431   4.636   6.729  0.00  0.00    +0.004 A 
ATOM     33  C   UNL     1      -5.012   5.726   7.349  0.00  0.00    +0.000 A 
ATOM     34  C   UNL     1      -5.936   5.535   8.359  0.00  0.00    +0.000 A 
ATOM     35  C   UNL     1      -6.280   4.253   8.748  0.00  0.00    +0.000 A 
ATOM     36  C   UNL     1      -5.702   3.163   8.125  0.00  0.00    +0.004 A 
ENDBRANCH  30  31
ENDBRANCH   8  30
TORSDOF 6
