REMARK  Name = ZINC62164914
REMARK  3 active torsions:
REMARK  status: ('A' for Active; 'I' for Inactive)
REMARK    1  A    between atoms: C_1  and  C_2
REMARK    2  A    between atoms: C_7  and  N_8
REMARK    3  A    between atoms: C_9  and  C_11
REMARK                            x       y       z     vdW  Elec       q    Type
REMARK                         _______ _______ _______ _____ _____    ______ ____
ROOT
ATOM      1  C   UNL     1      -0.166   0.054   4.883  0.00  0.00    +0.093 C 
ATOM      2  C   UNL     1      -0.245  -0.946   6.039  0.00  0.00    +0.016 C 
ATOM      3  C   UNL     1      -0.325  -0.188   7.366  0.00  0.00    +0.020 C 
ATOM      4  C   UNL     1      -1.593   0.672   7.383  0.00  0.00    +0.106 C 
ATOM      5  N   UNL     1      -1.595   1.535   6.194  0.00  0.00    -0.313 N 
ATOM      6  C   UNL     1      -1.432   0.917   4.871  0.00  0.00    +0.119 C 
ATOM      7  C   UNL     1      -1.747   2.913   6.318  0.00  0.00    +0.144 A 
ATOM      8  C   UNL     1      -1.692   3.513   7.577  0.00  0.00    +0.049 A 
ATOM      9  C   UNL     1      -1.849   4.886   7.650  0.00  0.00    +0.052 A 
ATOM     10  C   UNL     1      -2.054   5.585   6.460  0.00  0.00    +0.161 A 
ATOM     11  N   UNL     1      -2.092   4.932   5.311  0.00  0.00    -0.129 NA
ATOM     12  N   UNL     1      -1.941   3.659   5.242  0.00  0.00    -0.132 NA
ATOM     13  N   UNL     1      -2.219   6.975   6.483  0.00  0.00    -0.289 N 
ATOM     14  C   UNL     1      -2.527   7.777   5.414  0.00  0.00    +0.114 A 
ATOM     15  C   UNL     1      -2.590   9.039   5.879  0.00  0.00    +0.130 A 
ATOM     16  N   UNL     1      -2.329   9.014   7.195  0.00  0.00    -0.244 NA
ATOM     17  C   UNL     1      -2.110   7.784   7.570  0.00  0.00    +0.205 A 
ENDROOT
BRANCH   1  19
ATOM     18  N   UNL     1       0.027  -0.014   2.418  0.00  0.00    -0.285 N 
ATOM     19  C   UNL     1      -0.055  -0.693   3.579  0.00  0.00    +0.222 C 
ATOM     20  O   UNL     1      -0.039  -1.906   3.574  0.00  0.00    -0.275 OA
ATOM     21  H   UNL     1       0.080   0.955   2.425  0.00  0.00    +0.155 HD
BRANCH  18  28
ATOM     22  C   UNL     1      -1.263   1.183   0.182  0.00  0.00    +0.046 C 
ATOM     23  C   UNL     1      -0.582  -0.158   0.085  0.00  0.00    -0.028 A 
ATOM     24  C   UNL     1      -0.567  -0.840  -1.116  0.00  0.00    +0.020 A 
ATOM     25  C   UNL     1       0.057  -2.071  -1.206  0.00  0.00    +0.018 A 
ATOM     26  C   UNL     1       0.668  -2.623  -0.093  0.00  0.00    +0.017 A 
ATOM     27  C   UNL     1       0.656  -1.945   1.110  0.00  0.00    +0.024 A 
ATOM     28  C   UNL     1       0.035  -0.706   1.201  0.00  0.00    +0.036 A 
ATOM     29 BR   UNL     1       0.075  -3.002  -2.852  0.00  0.00    -0.050 Br
ENDBRANCH  18  28
ENDBRANCH   1  19
TORSDOF 2
