REMARK  Name = ZINC63122581
REMARK  10 active torsions:
REMARK  status: ('A' for Active; 'I' for Inactive)
REMARK    1  A    between atoms: C_1  and  C_2
REMARK    2  A    between atoms: C_4  and  C_12
REMARK    3  A    between atoms: C_18  and  C_20
REMARK    4  A    between atoms: C_20  and  C_21
REMARK    5  A    between atoms: C_24  and  O_31
REMARK    6  A    between atoms: C_25  and  O_29
REMARK    7  A    between atoms: C_26  and  O_27
REMARK    8  A    between atoms: O_27  and  C_28
REMARK    9  A    between atoms: O_29  and  C_30
REMARK   10  A    between atoms: O_31  and  C_32
REMARK                            x       y       z     vdW  Elec       q    Type
REMARK                         _______ _______ _______ _____ _____    ______ ____
ROOT
ATOM      1  C   UNL     1       0.379  -0.285  -2.575  0.00  0.00    +0.079 A 
ATOM      2  C   UNL     1       1.196  -0.730  -3.606  0.00  0.00    +0.076 A 
ATOM      3  S   UNL     1       0.358  -0.230  -4.976  0.00  0.00    -0.060 S 
ATOM      4  C   UNL     1      -1.030   0.543  -4.167  0.00  0.00    +0.165 A 
ATOM      5  N   UNL     1      -0.752   0.356  -2.895  0.00  0.00    -0.225 NA
ATOM      6  N   UNL     1      -2.126   1.176  -4.734  0.00  0.00    -0.264 N 
ATOM      7  C   UNL     1      -2.236   1.262  -6.075  0.00  0.00    +0.223 C 
ATOM      8  O   UNL     1      -1.375   0.787  -6.785  0.00  0.00    -0.275 OA
ATOM      9  H   UNL     1      -2.814   1.557  -4.166  0.00  0.00    +0.157 HD
ENDROOT
BRANCH   1  12
ATOM     10  C   UNL     1       1.782  -2.769  -1.166  0.00  0.00    +0.035 C 
ATOM     11  C   UNL     1       1.898  -1.315  -0.705  0.00  0.00    +0.109 C 
ATOM     12  C   UNL     1       0.728  -0.508  -1.226  0.00  0.00    +0.009 C 
ATOM     13  C   UNL     1       0.068  -0.033  -0.096  0.00  0.00    +0.005 A 
ATOM     14  C   UNL     1      -1.082   0.770   0.069  0.00  0.00    +0.010 A 
ATOM     15  C   UNL     1      -1.509   1.086   1.318  0.00  0.00    +0.001 A 
ATOM     16  C   UNL     1      -0.837   0.636   2.457  0.00  0.00    +0.002 A 
ATOM     17  C   UNL     1       0.273  -0.138   2.373  0.00  0.00    +0.026 A 
ATOM     18  C   UNL     1       0.779  -0.510   1.101  0.00  0.00    +0.043 A 
ATOM     19  N   UNL     1       1.824  -1.241   0.757  0.00  0.00    -0.377 N 
ATOM     20  H   UNL     1       2.443  -1.662   1.373  0.00  0.00    +0.160 HD
ENDBRANCH   1  12
BRANCH   7  21
ATOM     21  C   UNL     1      -3.426   1.950  -6.691  0.00  0.00    +0.135 C 
BRANCH  21  22
ATOM     22  C   UNL     1      -3.308   1.910  -8.193  0.00  0.00    +0.007 A 
ATOM     23  C   UNL     1      -2.750   2.978  -8.870  0.00  0.00    +0.011 A 
ATOM     24  C   UNL     1      -2.639   2.946 -10.248  0.00  0.00    +0.050 A 
ATOM     25  C   UNL     1      -3.088   1.841 -10.956  0.00  0.00    +0.165 A 
ATOM     26  C   UNL     1      -3.649   0.766 -10.279  0.00  0.00    +0.204 A 
ATOM     27  C   UNL     1      -3.754   0.799  -8.893  0.00  0.00    +0.169 A 
BRANCH  27  28
ATOM     28  O   UNL     1      -4.298  -0.253  -8.226  0.00  0.00    -0.491 OA
ATOM     29  C   UNL     1      -5.711  -0.226  -8.012  0.00  0.00    +0.277 C 
ENDBRANCH  27  28
BRANCH  26  30
ATOM     30  O   UNL     1      -4.091  -0.320 -10.970  0.00  0.00    -0.488 OA
ATOM     31  C   UNL     1      -3.150  -1.373 -11.195  0.00  0.00    +0.277 C 
ENDBRANCH  26  30
BRANCH  25  32
ATOM     32  O   UNL     1      -2.979   1.811 -12.311  0.00  0.00    -0.491 OA
ATOM     33  C   UNL     1      -2.392   2.952 -12.940  0.00  0.00    +0.277 C 
ENDBRANCH  25  32
ENDBRANCH  21  22
ENDBRANCH   7  21
TORSDOF 6
