REMARK  Name = ZINC66603089
REMARK  7 active torsions:
REMARK  status: ('A' for Active; 'I' for Inactive)
REMARK    1  A    between atoms: C_1  and  C_2
REMARK    2  A    between atoms: C_2  and  C_3
REMARK    3  A    between atoms: C_2  and  O_4
REMARK    4  A    between atoms: O_4  and  C_5
REMARK    5  A    between atoms: C_9  and  C_11
REMARK    6  A    between atoms: C_12  and  C_13
REMARK    7  A    between atoms: C_24  and  C_26
REMARK                            x       y       z     vdW  Elec       q    Type
REMARK                         _______ _______ _______ _____ _____    ______ ____
ROOT
ATOM      1  C   UNL     1      -8.443  -0.589  -4.143  0.00  0.00    +0.240 C 
ATOM      2  O   UNL     1      -9.010  -0.839  -3.097  0.00  0.00    -0.271 OA
ATOM      3  N   UNL     1      -8.596  -1.404  -5.205  0.00  0.00    -0.282 N 
ATOM      4  C   UNL     1      -8.008  -1.077  -6.509  0.00  0.00    +0.144 C 
ATOM      5  C   UNL     1      -7.358  -2.305  -7.095  0.00  0.00    -0.027 A 
ATOM      6  C   UNL     1      -6.542  -2.138  -8.206  0.00  0.00    +0.005 A 
ATOM      7  C   UNL     1      -5.927  -3.225  -8.793  0.00  0.00    +0.000 A 
ATOM      8  C   UNL     1      -6.127  -4.490  -8.272  0.00  0.00    +0.000 A 
ATOM      9  C   UNL     1      -6.934  -4.656  -7.166  0.00  0.00    +0.004 A 
ATOM     10  C   UNL     1      -7.550  -3.563  -6.569  0.00  0.00    -0.040 A 
ATOM     11  C   UNL     1      -8.394  -3.817  -5.348  0.00  0.00    +0.067 C 
ATOM     12  C   UNL     1      -9.354  -2.662  -5.102  0.00  0.00    +0.167 C 
ENDROOT
BRANCH  12  13
ATOM     13  C   UNL     1      -9.952  -2.785  -3.724  0.00  0.00    +0.231 C 
ATOM     14  O   UNL     1      -9.233  -2.758  -2.747  0.00  0.00    -0.274 OA
ATOM     15  N   UNL     1     -11.284  -2.925  -3.577  0.00  0.00    -0.328 N 
ATOM     16  H   UNL     1     -11.858  -2.946  -4.358  0.00  0.00    +0.145 HD
ATOM     17  H   UNL     1     -11.668  -3.004  -2.690  0.00  0.00    +0.145 HD
ENDBRANCH  12  13
BRANCH   1  19
ATOM     18  C   UNL     1      -7.353   1.356  -3.159  0.00  0.00    +0.013 C 
ATOM     19  C   UNL     1      -7.593   0.600  -4.249  0.00  0.00    +0.068 C 
BRANCH  18  24
ATOM     20  C   UNL     1      -5.446   4.458  -2.246  0.00  0.00    +0.121 A 
ATOM     21  C   UNL     1      -4.890   4.800  -3.473  0.00  0.00    +0.046 A 
ATOM     22  C   UNL     1      -5.136   4.023  -4.590  0.00  0.00    +0.004 A 
ATOM     23  C   UNL     1      -5.935   2.903  -4.495  0.00  0.00    +0.008 A 
ATOM     24  C   UNL     1      -6.499   2.550  -3.265  0.00  0.00    -0.021 A 
ATOM     25  C   UNL     1      -6.245   3.334  -2.136  0.00  0.00    +0.053 A 
BRANCH  20  26
ATOM     26  O   UNL     1      -5.200   5.226  -1.152  0.00  0.00    -0.489 OA
BRANCH  26  28
ATOM     27  C   UNL     1      -5.352   7.538  -1.841  0.00  0.00    +0.051 C 
ATOM     28  C   UNL     1      -4.434   6.415  -1.353  0.00  0.00    +0.167 C 
ATOM     29  C   UNL     1      -3.780   6.830  -0.034  0.00  0.00    +0.051 C 
ENDBRANCH  26  28
ENDBRANCH  20  26
ENDBRANCH  18  24
ENDBRANCH   1  19
TORSDOF 5
