REMARK  Name = ZINC02840715
REMARK  15 active torsions:
REMARK  status: ('A' for Active; 'I' for Inactive)
REMARK    1  A    between atoms: C_1  and  C_2
REMARK    2  A    between atoms: C_2  and  C_3
REMARK    3  A    between atoms: C_2  and  C_4
REMARK    4  A    between atoms: C_2  and  C_5
REMARK    5  A    between atoms: C_12  and  N_16
REMARK    6  A    between atoms: C_13  and  C_14
REMARK    7  A    between atoms: N_16  and  C_17
REMARK    8  A    between atoms: C_17  and  N_19
REMARK    9  A    between atoms: C_20  and  C_22
REMARK   10  A    between atoms: C_24  and  O_32
REMARK   11  A    between atoms: C_25  and  O_30
REMARK   12  A    between atoms: C_26  and  O_28
REMARK   13  A    between atoms: O_28  and  C_29
REMARK   14  A    between atoms: O_30  and  C_31
REMARK   15  A    between atoms: O_32  and  C_33
REMARK                            x       y       z     vdW  Elec       q    Type
REMARK                         _______ _______ _______ _____ _____    ______ ____
ROOT
ATOM      1  C   UNL     1      -4.477  -2.066  -2.453  0.00  0.00    +0.141 C 
ATOM      2  S   UNL     1      -6.106  -2.547  -2.244  0.00  0.00    -0.018 S 
ENDROOT
BRANCH   1   3
ATOM      3  N   UNL     1      -3.881  -1.286  -1.530  0.00  0.00    -0.264 N 
ATOM      4  C   UNL     1      -4.567  -0.885  -0.441  0.00  0.00    +0.250 C 
ATOM      5  O   UNL     1      -5.724  -1.227  -0.293  0.00  0.00    -0.270 OA
ATOM      6  H   UNL     1      -2.957  -1.013  -1.648  0.00  0.00    +0.157 HD
BRANCH   4   7
ATOM      7  C   UNL     1      -3.915  -0.032   0.570  0.00  0.00    +0.044 A 
ATOM      8  C   UNL     1      -4.625   0.385   1.699  0.00  0.00    +0.062 A 
ATOM      9  C   UNL     1      -4.012   1.185   2.644  0.00  0.00    +0.166 A 
ATOM     10  C   UNL     1      -2.687   1.577   2.472  0.00  0.00    +0.204 A 
ATOM     11  C   UNL     1      -1.976   1.163   1.348  0.00  0.00    +0.166 A 
ATOM     12  C   UNL     1      -2.586   0.367   0.397  0.00  0.00    +0.062 A 
BRANCH  11  13
ATOM     13  O   UNL     1      -0.682   1.547   1.184  0.00  0.00    -0.491 OA
ATOM     14  C   UNL     1      -0.013   1.086   0.008  0.00  0.00    +0.277 C 
ENDBRANCH  11  13
BRANCH  10  15
ATOM     15  O   UNL     1      -2.086   2.364   3.403  0.00  0.00    -0.488 OA
ATOM     16  C   UNL     1      -2.187   3.777   3.220  0.00  0.00    +0.277 C 
ENDBRANCH  10  15
BRANCH   9  17
ATOM     17  O   UNL     1      -4.703   1.590   3.743  0.00  0.00    -0.491 OA
ATOM     18  C   UNL     1      -6.058   1.151   3.855  0.00  0.00    +0.277 C 
ENDBRANCH   9  17
ENDBRANCH   4   7
ENDBRANCH   1   3
BRANCH   1  19
ATOM     19  N   UNL     1      -3.790  -2.466  -3.541  0.00  0.00    -0.290 N 
ATOM     20  H   UNL     1      -2.867  -2.194  -3.660  0.00  0.00    +0.154 HD
BRANCH  19  27
ATOM     21  C   UNL     1      -6.698  -5.851  -8.120  0.00  0.00    -0.000 C 
ATOM     22  C   UNL     1      -5.256  -6.365  -8.162  0.00  0.00    +0.009 C 
ATOM     23  C   UNL     1      -4.289  -5.232  -7.811  0.00  0.00    +0.037 C 
ATOM     24  C   UNL     1      -4.730  -4.601  -6.497  0.00  0.00    -0.018 A 
ATOM     25  C   UNL     1      -5.982  -4.782  -6.023  0.00  0.00    -0.004 A 
ATOM     26  S   UNL     1      -6.023  -3.885  -4.497  0.00  0.00    -0.077 S 
ATOM     27  C   UNL     1      -4.404  -3.269  -4.492  0.00  0.00    +0.089 A 
ATOM     28  C   UNL     1      -3.868  -3.778  -5.666  0.00  0.00    +0.084 A 
ATOM     29  C   UNL     1      -7.082  -5.575  -6.659  0.00  0.00    +0.047 C 
BRANCH  21  31
ATOM     30  C   UNL     1      -7.531  -8.195  -7.886  0.00  0.00    +0.011 C 
ATOM     31  C   UNL     1      -7.636  -6.907  -8.706  0.00  0.00    -0.035 C 
ATOM     32  C   UNL     1      -9.076  -6.391  -8.663  0.00  0.00    +0.011 C 
ATOM     33  C   UNL     1      -7.240  -7.192 -10.156  0.00  0.00    +0.011 C 
ENDBRANCH  21  31
BRANCH  28  34
ATOM     34  C   UNL     1      -2.515  -3.502  -6.045  0.00  0.00    +0.102 C 
ATOM     35  N   UNL     1      -1.442  -3.283  -6.346  0.00  0.00    -0.191 NA
ENDBRANCH  28  34
ENDBRANCH  19  27
ENDBRANCH   1  19
TORSDOF 9
