REMARK  Name = ZINC36160706
REMARK  14 active torsions:
REMARK  status: ('A' for Active; 'I' for Inactive)
REMARK    1  A    between atoms: C_1  and  C_2
REMARK    2  A    between atoms: C_7  and  O_8
REMARK    3  A    between atoms: O_8  and  C_9
REMARK    4  A    between atoms: C_9  and  C_10
REMARK    5  A    between atoms: C_10  and  C_12
REMARK    6  A    between atoms: C_10  and  O_33
REMARK    7  A    between atoms: C_12  and  N_13
REMARK    8  A    between atoms: N_13  and  C_14
REMARK    9  A    between atoms: C_14  and  C_16
REMARK   10  A    between atoms: C_14  and  C_30
REMARK   11  A    between atoms: C_18  and  C_21
REMARK   12  A    between atoms: C_24  and  N_27
REMARK   13  A    between atoms: C_30  and  C_31
REMARK   14  A    between atoms: C_30  and  C_32
REMARK                            x       y       z     vdW  Elec       q    Type
REMARK                         _______ _______ _______ _____ _____    ______ ____
ROOT
ATOM      1  C   UNL     1       0.400  -0.758   8.406  0.00  0.00    +0.022 C 
ENDROOT
BRANCH   1   2
ATOM      2  C   UNL     1       0.430   0.102   9.643  0.00  0.00    +0.214 A 
ATOM      3  N   UNL     1       1.256  -0.030  10.642  0.00  0.00    -0.193 NA
ATOM      4  C   UNL     1       1.002   0.905  11.575  0.00  0.00    +0.202 A 
ATOM      5  N   UNL     1       0.001   1.644  11.166  0.00  0.00    -0.056 NA
ATOM      6  O   UNL     1      -0.383   1.135   9.898  0.00  0.00    -0.339 OA
BRANCH   4   7
ATOM      7  C   UNL     1       1.735   1.071  12.855  0.00  0.00    +0.023 A 
ATOM      8  C   UNL     1       2.790   0.219  13.172  0.00  0.00    +0.014 A 
ATOM      9  C   UNL     1       3.469   0.378  14.364  0.00  0.00    +0.033 A 
ATOM     10  C   UNL     1       3.102   1.381  15.242  0.00  0.00    +0.126 A 
ATOM     11  C   UNL     1       2.055   2.230  14.933  0.00  0.00    +0.033 A 
ATOM     12  C   UNL     1       1.373   2.083  13.741  0.00  0.00    +0.014 A 
BRANCH  10  13
ATOM     13  N   UNL     1       3.833   1.547  16.519  0.00  0.00    +0.056 N 
ATOM     14  O   UNL     1       4.748   0.806  16.792  0.00  0.00    -0.126 OA
ATOM     15  O   UNL     1       3.514   2.423  17.288  0.00  0.00    -0.126 OA
ENDBRANCH  10  13
ENDBRANCH   4   7
ENDBRANCH   1   2
BRANCH   1  16
ATOM     16  N   UNL     1       0.275   0.097   7.218  0.00  0.00    +0.389 N 
ATOM     17  H   UNL     1      -0.529   0.698   7.319  0.00  0.00    -0.085 HD
ATOM     18  H   UNL     1       0.162  -0.480   6.398  0.00  0.00    -0.085 HD
BRANCH  16  19
ATOM     19  C   UNL     1       1.485   0.918   7.076  0.00  0.00    -0.046 C 
BRANCH  19  20
ATOM     20  C   UNL     1       1.409   1.717   5.773  0.00  0.00    +0.135 C 
BRANCH  20  21
ATOM     21  O   UNL     1       1.312   0.816   4.667  0.00  0.00    -0.390 OA
ATOM     22  H   UNL     1       2.061   0.210   4.587  0.00  0.00    +0.210 HD
ENDBRANCH  20  21
BRANCH  20  23
ATOM     23  C   UNL     1       2.670   2.572   5.625  0.00  0.00    +0.258 C 
BRANCH  23  24
ATOM     24  O   UNL     1       2.548   3.404   4.469  0.00  0.00    -0.489 OA
BRANCH  24  31
ATOM     25  C   UNL     1       2.327   5.056   2.189  0.00  0.00    +0.047 C 
ATOM     26  C   UNL     1       3.538   5.066   3.086  0.00  0.00    -0.009 A 
ATOM     27  C   UNL     1       4.596   5.911   2.810  0.00  0.00    +0.007 A 
ATOM     28  C   UNL     1       5.707   5.921   3.632  0.00  0.00    +0.000 A 
ATOM     29  C   UNL     1       5.763   5.085   4.733  0.00  0.00    +0.004 A 
ATOM     30  C   UNL     1       4.708   4.239   5.013  0.00  0.00    +0.046 A 
ATOM     31  C   UNL     1       3.589   4.231   4.193  0.00  0.00    +0.124 A 
ENDBRANCH  24  31
ENDBRANCH  23  24
ENDBRANCH  20  23
ENDBRANCH  19  20
ENDBRANCH  16  19
ENDBRANCH   1  16
BRANCH   1  32
ATOM     32  C   UNL     1      -0.795  -1.711   8.476  0.00  0.00    -0.022 C 
ATOM     33  C   UNL     1      -0.789  -2.627   7.251  0.00  0.00    +0.006 C 
ATOM     34  C   UNL     1      -0.697  -2.558   9.746  0.00  0.00    +0.006 C 
ENDBRANCH   1  32
TORSDOF 11
