REMARK  Name = ZINC09461265
REMARK  7 active torsions:
REMARK  status: ('A' for Active; 'I' for Inactive)
REMARK    1  A    between atoms: C_1  and  C_2
REMARK    2  A    between atoms: C_5  and  C_14
REMARK    3  A    between atoms: N_8  and  C_10
REMARK    4  A    between atoms: C_10  and  C_11
REMARK    5  A    between atoms: C_11  and  C_12
REMARK    6  A    between atoms: C_11  and  C_13
REMARK    7  A    between atoms: N_16  and  C_17
REMARK                            x       y       z     vdW  Elec       q    Type
REMARK                         _______ _______ _______ _____ _____    ______ ____
ROOT
ATOM      1  C   UNL     1      -0.014   1.213   0.003  0.00  0.00    +0.255 C 
ATOM      2  O   UNL     1       0.003  -0.004   0.001  0.00  0.00    -0.269 OA
ATOM      3  N   UNL     1       1.143   1.903   0.001  0.00  0.00    -0.280 N 
ATOM      4  H   UNL     1       1.131   2.870  -0.063  0.00  0.00    +0.155 HD
ENDROOT
BRANCH   3   5
ATOM      5  C   UNL     1       2.364   1.222   0.092  0.00  0.00    +0.051 A 
ATOM      6  C   UNL     1       2.513  -0.021  -0.508  0.00  0.00    +0.073 A 
ATOM      7  C   UNL     1       3.722  -0.692  -0.422  0.00  0.00    +0.164 A 
ATOM      8  C   UNL     1       4.784  -0.122   0.273  0.00  0.00    +0.163 A 
ATOM      9  C   UNL     1       4.631   1.117   0.875  0.00  0.00    +0.066 A 
ATOM     10  C   UNL     1       3.426   1.788   0.786  0.00  0.00    +0.043 A 
ATOM     11 BR   UNL     1       3.222   3.478   1.611  0.00  0.00    -0.048 Br
ATOM     12  O   UNL     1       5.980  -0.767   0.368  0.00  0.00    -0.485 OA
ATOM     13  C   UNL     1       5.981  -2.168   0.071  0.00  0.00    +0.270 C 
ATOM     14  C   UNL     1       5.187  -2.386  -1.224  0.00  0.00    +0.270 C 
ATOM     15  O   UNL     1       3.852  -1.910  -1.016  0.00  0.00    -0.485 OA
ENDBRANCH   3   5
BRANCH   1  20
ATOM     16  C   UNL     1      -5.909   0.952  -0.009  0.00  0.00    +0.068 C 
ATOM     17  C   UNL     1      -5.091   2.218  -0.005  0.00  0.00    +0.068 A 
ATOM     18  C   UNL     1      -3.659   2.283  -0.002  0.00  0.00    +0.031 A 
ATOM     19  C   UNL     1      -2.556   1.414  -0.001  0.00  0.00    +0.032 A 
ATOM     20  C   UNL     1      -1.294   1.928   0.002  0.00  0.00    +0.077 A 
ATOM     21  S   UNL     1      -1.587   3.688   0.013  0.00  0.00    -0.064 S 
ATOM     22  C   UNL     1      -3.361   3.653   0.002  0.00  0.00    +0.107 A 
ATOM     23  N   UNL     1      -4.515   4.346   0.000  0.00  0.00    -0.257 N 
ATOM     24  N   UNL     1      -5.571   3.425  -0.004  0.00  0.00    -0.175 NA
BRANCH  23  25
ATOM     25  C   UNL     1      -4.645   5.805   0.003  0.00  0.00    +0.147 C 
BRANCH  25  26
ATOM     26  C   UNL     1      -4.687   6.315  -1.439  0.00  0.00    +0.004 C 
ATOM     27  C   UNL     1      -5.952   5.797  -2.127  0.00  0.00    +0.009 C 
ATOM     28  C   UNL     1      -4.697   7.845  -1.439  0.00  0.00    +0.009 C 
ENDBRANCH  25  26
ENDBRANCH  23  25
ENDBRANCH   1  20
TORSDOF 4
