REMARK  Name = ZINC35544266
REMARK  4 active torsions:
REMARK  status: ('A' for Active; 'I' for Inactive)
REMARK    1  A    between atoms: C_8  and  C_24
REMARK    2  A    between atoms: N_15  and  C_17
REMARK    3  A    between atoms: N_26  and  C_27
REMARK    4  A    between atoms: C_27  and  C_28
REMARK                            x       y       z     vdW  Elec       q    Type
REMARK                         _______ _______ _______ _____ _____    ______ ____
ROOT
ATOM      1  C   UNL     1      -0.025   1.360   0.012  0.00  0.00    +0.000 A 
ATOM      2  C   UNL     1       1.161   2.072   0.018  0.00  0.00    +0.002 A 
ATOM      3  C   UNL     1       2.368   1.404   0.007  0.00  0.00    +0.023 A 
ATOM      4  C   UNL     1       2.392   0.012  -0.013  0.00  0.00    +0.033 A 
ATOM      5  C   UNL     1       1.204  -0.695  -0.028  0.00  0.00    -0.026 A 
ATOM      6  C   UNL     1      -0.004  -0.022  -0.011  0.00  0.00    +0.005 A 
ATOM      7  C   UNL     1       1.214  -2.201  -0.081  0.00  0.00    +0.051 C 
ATOM      8  C   UNL     1       2.482  -2.658  -0.800  0.00  0.00    +0.101 C 
ATOM      9  C   UNL     1       3.717  -2.087  -0.096  0.00  0.00    +0.103 C 
ATOM     10  N   UNL     1       3.639  -0.639  -0.008  0.00  0.00    -0.323 N 
ATOM     11  C   UNL     1       4.817   0.212   0.146  0.00  0.00    +0.124 C 
ATOM     12  C   UNL     1       6.008  -0.272  -0.655  0.00  0.00    +0.124 C 
ATOM     13  N   UNL     1       6.106  -1.722  -0.638  0.00  0.00    -0.327 N 
ATOM     14  C   UNL     1       4.955  -2.583  -0.824  0.00  0.00    +0.128 C 
ENDROOT
BRANCH  13  15
ATOM     15  C   UNL     1       7.358  -2.308  -0.434  0.00  0.00    +0.031 A 
ATOM     16  C   UNL     1       7.467  -3.687  -0.300  0.00  0.00    +0.023 A 
ATOM     17  C   UNL     1       8.705  -4.264  -0.099  0.00  0.00    +0.003 A 
ATOM     18  C   UNL     1       9.837  -3.471  -0.030  0.00  0.00    +0.020 A 
ATOM     19  C   UNL     1       9.732  -2.098  -0.164  0.00  0.00    +0.043 A 
ATOM     20  C   UNL     1       8.496  -1.515  -0.371  0.00  0.00    +0.043 A 
ATOM     21 CL   UNL     1      11.155  -1.107  -0.077  0.00  0.00    -0.083 Cl
ENDBRANCH  13  15
BRANCH   8  22
ATOM     22  C   UNL     1       2.451  -2.172  -2.226  0.00  0.00    +0.219 C 
ATOM     23  O   UNL     1       3.324  -1.436  -2.635  0.00  0.00    -0.275 OA
ATOM     24  N   UNL     1       1.454  -2.555  -3.047  0.00  0.00    -0.311 N 
ATOM     25  H   UNL     1       0.755  -3.144  -2.720  0.00  0.00    +0.149 HD
BRANCH  24  26
ATOM     26  C   UNL     1       1.424  -2.083  -4.434  0.00  0.00    +0.142 C 
BRANCH  26  27
ATOM     27  C   UNL     1       0.215  -2.652  -5.132  0.00  0.00    +0.005 A 
ATOM     28  C   UNL     1       0.348  -3.754  -5.956  0.00  0.00    +0.008 A 
ATOM     29  C   UNL     1      -0.760  -4.276  -6.596  0.00  0.00    +0.000 A 
ATOM     30  C   UNL     1      -2.002  -3.696  -6.415  0.00  0.00    +0.003 A 
ATOM     31  C   UNL     1      -2.137  -2.595  -5.591  0.00  0.00    +0.038 A 
ATOM     32  C   UNL     1      -1.029  -2.074  -4.945  0.00  0.00    +0.128 A 
ATOM     33  F   UNL     1      -1.160  -1.000  -4.136  0.00  0.00    -0.205 F 
ENDBRANCH  26  27
ENDBRANCH  24  26
ENDBRANCH   8  22
TORSDOF 4
