REMARK  Name = ZINC24841201
REMARK  7 active torsions:
REMARK  status: ('A' for Active; 'I' for Inactive)
REMARK    1  A    between atoms: C_1  and  C_2
REMARK    2  A    between atoms: C_4  and  N_28
REMARK    3  A    between atoms: C_6  and  S_8
REMARK    4  A    between atoms: S_8  and  C_9
REMARK    5  A    between atoms: C_9  and  C_11
REMARK    6  A    between atoms: C_9  and  C_12
REMARK    7  A    between atoms: N_17  and  C_18
REMARK                            x       y       z     vdW  Elec       q    Type
REMARK                         _______ _______ _______ _____ _____    ______ ____
ROOT
ATOM      1  C   UNL     1       1.401   1.607  -0.003  0.00  0.00    +0.233 C 
ATOM      2  O   UNL     1       1.698   2.568   0.675  0.00  0.00    -0.274 OA
ATOM      3  N   UNL     1       2.336   1.006  -0.765  0.00  0.00    -0.239 N 
ATOM      4  C   UNL     1       3.600   1.472  -0.775  0.00  0.00    +0.306 C 
ATOM      5  O   UNL     1       3.897   2.436  -0.096  0.00  0.00    -0.252 OA
ATOM      6  N   UNL     1       4.535   0.871  -1.537  0.00  0.00    -0.294 N 
ATOM      7  H   UNL     1       2.066   0.134  -1.380  0.00  0.00    +0.159 HD
ATOM      8  H   UNL     1       4.265  -0.001  -2.152  0.00  0.00    +0.151 HD
ENDROOT
BRANCH   6   9
ATOM      9  C   UNL     1       5.909   1.378  -1.548  0.00  0.00    +0.037 C 
ATOM     10  C   UNL     1       5.913   2.829  -2.033  0.00  0.00    +0.029 C 
ATOM     11  C   UNL     1       7.349   3.358  -2.044  0.00  0.00    -0.008 C 
ATOM     12  C   UNL     1       8.201   2.503  -2.984  0.00  0.00    +0.007 C 
ATOM     13  C   UNL     1       8.196   1.052  -2.498  0.00  0.00    -0.008 C 
ATOM     14  C   UNL     1       6.761   0.523  -2.488  0.00  0.00    +0.029 C 
ATOM     15  C   UNL     1       8.775   0.986  -1.084  0.00  0.00    +0.007 C 
ATOM     16  C   UNL     1       7.923   1.841  -0.144  0.00  0.00    -0.008 C 
ATOM     17  C   UNL     1       7.928   3.292  -0.629  0.00  0.00    +0.007 C 
ATOM     18  C   UNL     1       6.488   1.312  -0.133  0.00  0.00    +0.029 C 
ENDBRANCH   6   9
BRANCH   1  19
ATOM     19  C   UNL     1      -0.013   1.086   0.008  0.00  0.00    +0.137 C 
ATOM     20  C   UNL     1      -0.753   1.593  -1.232  0.00  0.00    +0.029 C 
BRANCH  19  21
ATOM     21  S   UNL     1      -0.860   1.669   1.497  0.00  0.00    -0.073 S 
BRANCH  21  27
ATOM     22  C   UNL     1      -5.542   0.546   3.231  0.00  0.00    +0.066 C 
ATOM     23  C   UNL     1      -4.489   0.350   2.171  0.00  0.00    +0.044 A 
ATOM     24  C   UNL     1      -4.727  -0.485   1.097  0.00  0.00    +0.066 A 
ATOM     25  C   UNL     1      -3.724  -0.638   0.137  0.00  0.00    +0.121 A 
ATOM     26  N   UNL     1      -2.580   0.021   0.288  0.00  0.00    -0.207 NA
ATOM     27  C   UNL     1      -2.391   0.813   1.334  0.00  0.00    +0.191 A 
ATOM     28  N   UNL     1      -3.324   0.973   2.262  0.00  0.00    -0.227 NA
BRANCH  25  29
ATOM     29  N   UNL     1      -3.919  -1.466  -0.957  0.00  0.00    -0.343 N 
ATOM     30  H   UNL     1      -3.123  -1.581  -1.708  0.00  0.00    +0.144 HD
ATOM     31  H   UNL     1      -4.868  -2.008  -1.074  0.00  0.00    +0.144 HD
ENDBRANCH  25  29
ENDBRANCH  21  27
ENDBRANCH  19  21
ENDBRANCH   1  19
TORSDOF 5
