REMARK  Name = ZINC46875995
REMARK  6 active torsions:
REMARK  status: ('A' for Active; 'I' for Inactive)
REMARK    1  A    between atoms: C_10  and  S_12
REMARK    2  A    between atoms: S_12  and  C_13
REMARK    3  A    between atoms: C_16  and  C_19
REMARK    4  A    between atoms: N_17  and  N_18
REMARK    5  A    between atoms: C_19  and  O_20
REMARK    6  A    between atoms: O_20  and  C_21
REMARK                            x       y       z     vdW  Elec       q    Type
REMARK                         _______ _______ _______ _____ _____    ______ ____
ROOT
ATOM      1  C   UNL     1       5.171   1.727   0.285  0.00  0.00    +0.209 A 
ATOM      2  N   UNL     1       4.601   2.167  -0.812  0.00  0.00    -0.121 NA
ATOM      3  N   UNL     1       5.059   3.331  -1.106  0.00  0.00    -0.128 NA
ATOM      4  C   UNL     1       5.942   3.700  -0.222  0.00  0.00    +0.189 A 
ATOM      5  N   UNL     1       6.041   2.695   0.700  0.00  0.00    -0.225 N 
ENDROOT
BRANCH   5   6
ATOM      6  N   UNL     1       6.845   2.663   1.803  0.00  0.00    -0.295 N 
ATOM      7  H   UNL     1       7.743   2.258   1.585  0.00  0.00    +0.163 HD
ATOM      8  H   UNL     1       6.951   3.585   2.200  0.00  0.00    +0.163 HD
ENDBRANCH   5   6
BRANCH   1   9
ATOM      9  S   UNL     1       4.866   0.183   1.078  0.00  0.00    -0.076 S 
BRANCH   9  19
ATOM     10  C   UNL     1       2.310  -4.195   1.911  0.00  0.00    +0.000 A 
ATOM     11  C   UNL     1       2.429  -3.000   2.596  0.00  0.00    +0.000 A 
ATOM     12  C   UNL     1       2.895  -1.879   1.941  0.00  0.00    +0.005 A 
ATOM     13  C   UNL     1       3.247  -1.941   0.599  0.00  0.00    -0.031 A 
ATOM     14  C   UNL     1       3.133  -3.132  -0.082  0.00  0.00    -0.043 A 
ATOM     15  C   UNL     1       2.660  -4.259   0.578  0.00  0.00    +0.004 A 
ATOM     16  C   UNL     1       3.511  -3.276  -1.533  0.00  0.00    +0.035 C 
ATOM     17  C   UNL     1       3.589  -1.907  -2.206  0.00  0.00    +0.006 C 
ATOM     18  C   UNL     1       4.481  -0.998  -1.353  0.00  0.00    +0.019 C 
ATOM     19  C   UNL     1       3.741  -0.677  -0.056  0.00  0.00    +0.084 C 
ENDBRANCH   9  19
ENDBRANCH   1   9
BRANCH   4  20
ATOM     20  C   UNL     1       6.708   4.998  -0.212  0.00  0.00    +0.306 C 
BRANCH  20  21
ATOM     21  O   UNL     1       5.976   5.978   0.526  0.00  0.00    -0.484 OA
BRANCH  21  22
ATOM     22  C   UNL     1       6.532   7.214   0.632  0.00  0.00    +0.121 A 
ATOM     23  C   UNL     1       7.754   7.479   0.032  0.00  0.00    +0.048 A 
ATOM     24  C   UNL     1       8.318   8.736   0.140  0.00  0.00    +0.042 A 
ATOM     25  C   UNL     1       7.664   9.730   0.848  0.00  0.00    +0.124 A 
ATOM     26  C   UNL     1       6.444   9.467   1.447  0.00  0.00    +0.042 A 
ATOM     27  C   UNL     1       5.875   8.213   1.335  0.00  0.00    +0.048 A 
ATOM     28  F   UNL     1       8.217  10.958   0.953  0.00  0.00    -0.205 F 
ENDBRANCH  21  22
ENDBRANCH  20  21
ENDBRANCH   4  20
TORSDOF 6
