REMARK  Name = ZINC53707272
REMARK  6 active torsions:
REMARK  status: ('A' for Active; 'I' for Inactive)
REMARK    1  A    between atoms: C_3  and  N_20
REMARK    2  A    between atoms: C_6  and  C_7
REMARK    3  A    between atoms: C_7  and  O_9
REMARK    4  A    between atoms: O_9  and  C_10
REMARK    5  A    between atoms: C_10  and  C_11
REMARK    6  A    between atoms: C_24  and  C_26
REMARK                            x       y       z     vdW  Elec       q    Type
REMARK                         _______ _______ _______ _____ _____    ______ ____
ROOT
ATOM      1  C   UNL     1      -0.017   1.394   0.027  0.00  0.00    +0.017 A 
ATOM      2  C   UNL     1       1.162   2.094   0.020  0.00  0.00    +0.024 A 
ATOM      3  C   UNL     1       2.377   1.415  -0.013  0.00  0.00    +0.030 A 
ATOM      4  C   UNL     1       2.399   0.023  -0.038  0.00  0.00    +0.024 A 
ATOM      5  C   UNL     1       1.224  -0.683  -0.031  0.00  0.00    +0.017 A 
ATOM      6  C   UNL     1       0.002  -0.004   0.002  0.00  0.00    +0.059 A 
ENDROOT
BRANCH   3   7
ATOM      7  N   UNL     1       3.571   2.128  -0.021  0.00  0.00    -0.329 N 
ATOM      8  C   UNL     1       4.860   1.429   0.067  0.00  0.00    +0.105 C 
ATOM      9  C   UNL     1       5.742   1.874  -1.103  0.00  0.00    +0.020 C 
ATOM     10  C   UNL     1       5.853   3.400  -1.103  0.00  0.00    +0.016 C 
ATOM     11  C   UNL     1       4.463   4.014  -1.286  0.00  0.00    +0.092 C 
ATOM     12  C   UNL     1       3.566   3.593  -0.123  0.00  0.00    +0.117 C 
BRANCH  11  13
ATOM     13  C   UNL     1       4.577   5.516  -1.317  0.00  0.00    +0.215 C 
ATOM     14  O   UNL     1       3.996   6.186  -0.490  0.00  0.00    -0.276 OA
ATOM     15  N   UNL     1       5.324   6.116  -2.266  0.00  0.00    -0.329 N 
ATOM     16  H   UNL     1       5.788   5.580  -2.928  0.00  0.00    +0.145 HD
ATOM     17  H   UNL     1       5.397   7.083  -2.286  0.00  0.00    +0.145 HD
ENDBRANCH  11  13
ENDBRANCH   3   7
BRANCH   6  18
ATOM     18  C   UNL     1      -1.263  -0.760   0.011  0.00  0.00    +0.340 C 
ATOM     19  O   UNL     1      -2.324  -0.168   0.039  0.00  0.00    -0.245 OA
BRANCH  18  20
ATOM     20  O   UNL     1      -1.243  -2.107  -0.014  0.00  0.00    -0.452 OA
BRANCH  20  21
ATOM     21  C   UNL     1      -2.507  -2.775  -0.004  0.00  0.00    +0.328 C 
BRANCH  21  22
ATOM     22  C   UNL     1      -2.287  -4.266  -0.034  0.00  0.00    +0.253 C 
ATOM     23  O   UNL     1      -1.160  -4.712  -0.061  0.00  0.00    -0.272 OA
ATOM     24  N   UNL     1      -3.344  -5.102  -0.030  0.00  0.00    -0.299 N 
ATOM     25  C   UNL     1      -4.675  -4.538  -0.003  0.00  0.00    +0.108 C 
ATOM     26  C   UNL     1      -5.125  -4.339   1.465  0.00  0.00    +0.019 C 
ATOM     27  C   UNL     1      -5.396  -5.639   2.097  0.00  0.00    +0.002 C 
ATOM     28  C   UNL     1      -4.180  -6.556   2.196  0.00  0.00    +0.002 C 
ATOM     29  C   UNL     1      -4.025  -7.321   0.905  0.00  0.00    +0.019 C 
ATOM     30  C   UNL     1      -3.095  -6.557  -0.060  0.00  0.00    +0.108 C 
ENDBRANCH  21  22
ENDBRANCH  20  21
ENDBRANCH  18  20
ENDBRANCH   6  18
TORSDOF 6
