REMARK  Name = ZINC36205708
REMARK  15 active torsions:
REMARK  status: ('A' for Active; 'I' for Inactive)
REMARK    1  A    between atoms: C_1  and  C_2
REMARK    2  A    between atoms: C_7  and  C_8
REMARK    3  A    between atoms: C_17  and  C_19
REMARK    4  A    between atoms: C_19  and  N_20
REMARK    5  A    between atoms: N_20  and  C_21
REMARK    6  A    between atoms: N_20  and  C_27
REMARK    7  A    between atoms: C_21  and  C_22
REMARK    8  A    between atoms: C_27  and  C_28
REMARK    9  A    between atoms: C_28  and  C_30
REMARK   10  A    between atoms: C_28  and  O_36
REMARK   11  A    between atoms: C_30  and  O_31
REMARK   12  A    between atoms: O_31  and  C_32
REMARK   13  A    between atoms: C_32  and  C_33
REMARK   14  A    between atoms: C_32  and  C_34
REMARK   15  A    between atoms: C_32  and  C_35
REMARK                            x       y       z     vdW  Elec       q    Type
REMARK                         _______ _______ _______ _____ _____    ______ ____
ROOT
ATOM      1  C   UNL     1      -4.005   3.341   4.523  0.00  0.00    -0.003 C 
ENDROOT
BRANCH   1  11
ATOM      2  C   UNL     1      -4.206   7.875   1.074  0.00  0.00    +0.004 A 
ATOM      3  C   UNL     1      -3.730   8.998   1.664  0.00  0.00    +0.056 A 
ATOM      4  S   UNL     1      -3.260   8.440   3.291  0.00  0.00    -0.076 S 
ATOM      5  C   UNL     1      -3.710   6.731   3.142  0.00  0.00    +0.116 A 
ATOM      6  C   UNL     1      -4.219   6.633   1.837  0.00  0.00    +0.080 A 
ATOM      7  C   UNL     1      -4.670   5.332   1.443  0.00  0.00    +0.260 A 
ATOM      8  O   UNL     1      -5.124   5.146   0.327  0.00  0.00    -0.267 OA
ATOM      9  N   UNL     1      -4.585   4.318   2.324  0.00  0.00    -0.312 N 
ATOM     10  H   UNL     1      -4.889   3.435   2.063  0.00  0.00    +0.170 HD
ATOM     11  C   UNL     1      -4.081   4.507   3.571  0.00  0.00    +0.094 A 
ATOM     12  N   UNL     1      -3.653   5.679   3.956  0.00  0.00    -0.229 NA
BRANCH   2  19
ATOM     13  C   UNL     1      -7.006   7.366   0.551  0.00  0.00    +0.044 C 
ATOM     14  C   UNL     1      -6.058   7.667  -0.582  0.00  0.00    -0.043 A 
ATOM     15  C   UNL     1      -6.524   7.707  -1.881  0.00  0.00    +0.004 A 
ATOM     16  C   UNL     1      -5.655   7.983  -2.921  0.00  0.00    +0.000 A 
ATOM     17  C   UNL     1      -4.316   8.220  -2.667  0.00  0.00    +0.001 A 
ATOM     18  C   UNL     1      -3.839   8.182  -1.373  0.00  0.00    +0.009 A 
ATOM     19  C   UNL     1      -4.711   7.911  -0.319  0.00  0.00    -0.014 A 
ENDBRANCH   2  19
ENDBRANCH   1  11
BRANCH   1  20
ATOM     20  N   UNL     1      -3.559   3.814   5.840  0.00  0.00    +0.391 N 
ATOM     21  H   UNL     1      -2.705   4.341   5.737  0.00  0.00    -0.080 HD
BRANCH  20  22
ATOM     22  C   UNL     1      -3.320   2.661   6.719  0.00  0.00    -0.002 C 
BRANCH  22  23
ATOM     23  C   UNL     1      -2.171   1.848   6.179  0.00  0.00    +0.089 A 
ATOM     24  C   UNL     1      -0.866   2.082   6.406  0.00  0.00    +0.042 A 
ATOM     25  C   UNL     1      -0.144   1.084   5.713  0.00  0.00    +0.041 A 
ATOM     26  C   UNL     1      -1.051   0.299   5.104  0.00  0.00    +0.195 A 
ATOM     27  O   UNL     1      -2.277   0.763   5.394  0.00  0.00    -0.470 OA
ENDBRANCH  22  23
ENDBRANCH  20  22
BRANCH  20  28
ATOM     28  C   UNL     1      -4.596   4.672   6.430  0.00  0.00    -0.044 C 
BRANCH  28  29
ATOM     29  C   UNL     1      -4.082   5.264   7.744  0.00  0.00    +0.124 C 
BRANCH  29  30
ATOM     30  O   UNL     1      -2.979   6.133   7.475  0.00  0.00    -0.391 OA
ATOM     31  H   UNL     1      -3.195   6.874   6.894  0.00  0.00    +0.210 HD
ENDBRANCH  29  30
BRANCH  29  32
ATOM     32  C   UNL     1      -5.203   6.056   8.419  0.00  0.00    +0.189 C 
BRANCH  32  33
ATOM     33  O   UNL     1      -4.760   6.511   9.699  0.00  0.00    -0.372 OA
BRANCH  33  34
ATOM     34  C   UNL     1      -5.737   7.265  10.418  0.00  0.00    +0.061 C 
ATOM     35  C   UNL     1      -6.979   6.402  10.651  0.00  0.00    +0.041 C 
ATOM     36  C   UNL     1      -5.157   7.698  11.766  0.00  0.00    +0.041 C 
ATOM     37  C   UNL     1      -6.122   8.504   9.607  0.00  0.00    +0.041 C 
ENDBRANCH  33  34
ENDBRANCH  32  33
ENDBRANCH  29  32
ENDBRANCH  28  29
ENDBRANCH  20  28
ENDBRANCH   1  20
TORSDOF 11
