REMARK  Name = ZINC40144252
REMARK  9 active torsions:
REMARK  status: ('A' for Active; 'I' for Inactive)
REMARK    1  A    between atoms: C_1  and  N_2
REMARK    2  A    between atoms: N_2  and  C_3
REMARK    3  A    between atoms: N_2  and  C_4
REMARK    4  A    between atoms: C_7  and  C_10
REMARK    5  A    between atoms: C_10  and  C_12
REMARK    6  A    between atoms: C_10  and  N_25
REMARK    7  A    between atoms: C_12  and  C_14
REMARK    8  A    between atoms: C_12  and  C_16
REMARK    9  A    between atoms: C_26  and  N_27
REMARK                            x       y       z     vdW  Elec       q    Type
REMARK                         _______ _______ _______ _____ _____    ______ ____
ROOT
ATOM      1  C   UNL     1      -4.870  -2.906   0.033  0.00  0.00    +0.160 C 
ENDROOT
BRANCH   1   2
ATOM      2  N   UNL     1      -5.874  -2.183  -0.751  0.00  0.00    -0.261 N 
ATOM      3  C   UNL     1      -6.594  -2.689  -1.802  0.00  0.00    +0.117 A 
ATOM      4  C   UNL     1      -7.420  -1.703  -2.261  0.00  0.00    +0.114 A 
ATOM      5  C   UNL     1      -7.208  -0.559  -1.478  0.00  0.00    +0.266 A 
ATOM      6  O   UNL     1      -7.776   0.512  -1.607  0.00  0.00    -0.266 OA
ATOM      7  N   UNL     1      -6.271  -0.853  -0.555  0.00  0.00    -0.261 N 
ATOM      8  H   UNL     1      -5.930  -0.250   0.123  0.00  0.00    +0.190 HD
BRANCH   3   9
ATOM      9  N   UNL     1      -6.502  -3.962  -2.304  0.00  0.00    -0.343 N 
ATOM     10  H   UNL     1      -5.883  -4.595  -1.908  0.00  0.00    +0.144 HD
ATOM     11  H   UNL     1      -7.056  -4.229  -3.054  0.00  0.00    +0.144 HD
ENDBRANCH   3   9
ENDBRANCH   1   2
BRANCH   1  15
ATOM     12  C   UNL     1      -1.034  -1.122  -0.573  0.00  0.00    +0.029 A 
ATOM     13  C   UNL     1      -1.173  -2.504  -0.611  0.00  0.00    +0.023 A 
ATOM     14  C   UNL     1      -2.414  -3.077  -0.414  0.00  0.00    +0.007 A 
ATOM     15  C   UNL     1      -3.517  -2.277  -0.180  0.00  0.00    -0.021 A 
ATOM     16  C   UNL     1      -3.382  -0.901  -0.142  0.00  0.00    +0.007 A 
ATOM     17  C   UNL     1      -2.143  -0.322  -0.332  0.00  0.00    +0.023 A 
BRANCH  12  19
ATOM     18  C   UNL     1       0.366   0.918  -0.725  0.00  0.00    +0.129 C 
ATOM     19  N   UNL     1       0.220  -0.539  -0.771  0.00  0.00    -0.336 N 
ATOM     20  C   UNL     1       1.389  -1.385  -1.026  0.00  0.00    +0.129 C 
ENDBRANCH  12  19
ENDBRANCH   1  15
BRANCH   1  21
ATOM     21  C   UNL     1      -5.236  -2.838   1.517  0.00  0.00    +0.176 C 
BRANCH  21  22
ATOM     22  C   UNL     1      -6.530  -3.574   1.750  0.00  0.00    +0.099 A 
ATOM     23  N   UNL     1      -7.693  -3.329   1.221  0.00  0.00    -0.243 NA
ATOM     24  C   UNL     1      -8.784  -4.067   1.512  0.00  0.00    +0.079 A 
ATOM     25  C   UNL     1     -10.109  -3.948   1.041  0.00  0.00    +0.029 A 
ATOM     26  C   UNL     1     -11.075  -4.808   1.467  0.00  0.00    +0.002 A 
ATOM     27  C   UNL     1     -10.796  -5.824   2.371  0.00  0.00    +0.001 A 
ATOM     28  C   UNL     1      -9.510  -5.972   2.854  0.00  0.00    +0.017 A 
ATOM     29  C   UNL     1      -8.528  -5.109   2.431  0.00  0.00    +0.039 A 
ATOM     30  S   UNL     1      -6.795  -4.904   2.746  0.00  0.00    -0.071 S 
ENDBRANCH  21  22
BRANCH  21  31
ATOM     31  C   UNL     1      -5.393  -1.431   1.919  0.00  0.00    +0.075 C 
ATOM     32  N   UNL     1      -5.514  -0.345   2.230  0.00  0.00    -0.196 NA
ENDBRANCH  21  31
ENDBRANCH   1  21
TORSDOF 7
