REMARK  Name = ZINC36813979
REMARK  3 active torsions:
REMARK  status: ('A' for Active; 'I' for Inactive)
REMARK    1  A    between atoms: C_2  and  O_9
REMARK    2  A    between atoms: O_9  and  C_10
REMARK    3  A    between atoms: C_15  and  N_16
REMARK                            x       y       z     vdW  Elec       q    Type
REMARK                         _______ _______ _______ _____ _____    ______ ____
ROOT
ATOM      1  C   UNL     1       2.349   4.098   0.106  0.00  0.00    +0.151 A 
ATOM      2  C   UNL     1       3.535   3.383   0.084  0.00  0.00    +0.071 A 
ATOM      3  C   UNL     1       4.748   4.051   0.182  0.00  0.00    +0.040 A 
ATOM      4  C   UNL     1       4.773   5.434   0.302  0.00  0.00    -0.024 A 
ATOM      5  C   UNL     1       3.591   6.149   0.325  0.00  0.00    +0.032 A 
ATOM      6  C   UNL     1       2.377   5.486   0.222  0.00  0.00    +0.068 A 
ATOM      7  C   UNL     1       6.093   6.154   0.407  0.00  0.00    +0.046 C 
ATOM      8  C   UNL     1       7.090   5.284   1.174  0.00  0.00    +0.101 C 
ATOM      9  C   UNL     1       7.087   3.887   0.615  0.00  0.00    +0.218 C 
ATOM     10  O   UNL     1       8.121   3.255   0.576  0.00  0.00    -0.275 OA
ATOM     11  N   UNL     1       5.950   3.330   0.159  0.00  0.00    -0.285 N 
ATOM     12  H   UNL     1       5.962   2.425  -0.187  0.00  0.00    +0.155 HD
ENDROOT
BRANCH   6  13
ATOM     13  N   UNL     1       1.178   6.212   0.239  0.00  0.00    -0.355 N 
ATOM     14  H   UNL     1       0.329   5.748   0.170  0.00  0.00    +0.142 HD
ATOM     15  H   UNL     1       1.197   7.178   0.320  0.00  0.00    +0.142 HD
ENDBRANCH   6  13
BRANCH   1  16
ATOM     16  O   UNL     1       1.160   3.446   0.009  0.00  0.00    -0.454 OA
BRANCH  16  18
ATOM     17  C   UNL     1       1.541   1.407   1.174  0.00  0.00    +0.066 A 
ATOM     18  C   UNL     1       1.174   2.087   0.022  0.00  0.00    +0.131 A 
ATOM     19  C   UNL     1       0.821   1.378  -1.117  0.00  0.00    +0.066 A 
ATOM     20  C   UNL     1       0.835  -0.004  -1.102  0.00  0.00    +0.046 A 
ATOM     21  C   UNL     1       1.202  -0.680   0.048  0.00  0.00    +0.040 A 
ATOM     22  C   UNL     1       1.554   0.025   1.185  0.00  0.00    +0.046 A 
ATOM     23 CL   UNL     1       2.014  -0.827   2.626  0.00  0.00    -0.083 Cl
ATOM     24 CL   UNL     1       0.393  -0.892  -2.527  0.00  0.00    -0.083 Cl
ENDBRANCH  16  18
ENDBRANCH   1  16
TORSDOF 3
