REMARK  Name = ZINC34836582
REMARK  15 active torsions:
REMARK  status: ('A' for Active; 'I' for Inactive)
REMARK    1  A    between atoms: C_1  and  C_2
REMARK    2  A    between atoms: C_2  and  C_3
REMARK    3  A    between atoms: C_3  and  C_4
REMARK    4  A    between atoms: C_5  and  C_24
REMARK    5  A    between atoms: C_6  and  N_16
REMARK    6  A    between atoms: N_7  and  C_9
REMARK    7  A    between atoms: N_19  and  C_22
REMARK    8  A    between atoms: C_22  and  C_23
REMARK    9  A    between atoms: C_24  and  N_25
REMARK   10  A    between atoms: N_25  and  C_26
REMARK   11  A    between atoms: N_25  and  C_29
REMARK   12  A    between atoms: C_26  and  C_27
REMARK   13  A    between atoms: C_27  and  C_28
REMARK   14  A    between atoms: C_29  and  C_30
REMARK   15  A    between atoms: N_34  and  C_35
REMARK                            x       y       z     vdW  Elec       q    Type
REMARK                         _______ _______ _______ _____ _____    ______ ____
ROOT
ATOM      1  C   UNL     1      -1.249  -1.724   0.413  0.00  0.00    +0.067 A 
ATOM      2  C   UNL     1      -1.088  -2.869  -0.373  0.00  0.00    -0.001 A 
ATOM      3  C   UNL     1      -1.270  -3.955   0.429  0.00  0.00    +0.126 A 
ATOM      4  N   UNL     1      -1.538  -3.497   1.682  0.00  0.00    -0.218 N 
ATOM      5  N   UNL     1      -1.512  -2.097   1.640  0.00  0.00    -0.169 NA
ENDROOT
BRANCH   4   6
ATOM      6  C   UNL     1      -1.789  -4.285   2.813  0.00  0.00    +0.070 A 
ATOM      7  C   UNL     1      -2.610  -5.400   2.715  0.00  0.00    +0.028 A 
ATOM      8  C   UNL     1      -2.857  -6.176   3.831  0.00  0.00    +0.005 A 
ATOM      9  C   UNL     1      -2.288  -5.843   5.047  0.00  0.00    +0.038 A 
ATOM     10  C   UNL     1      -1.469  -4.731   5.149  0.00  0.00    +0.125 A 
ATOM     11  C   UNL     1      -1.214  -3.954   4.032  0.00  0.00    +0.066 A 
ATOM     12  F   UNL     1      -0.914  -4.407   6.337  0.00  0.00    -0.205 F 
ENDBRANCH   4   6
BRANCH   3  13
ATOM     13  N   UNL     1      -1.197  -5.289   0.038  0.00  0.00    -0.318 N 
ATOM     14  C   UNL     1      -2.368  -5.977  -0.527  0.00  0.00    +0.088 C 
ATOM     15  C   UNL     1      -1.947  -6.660  -1.832  0.00  0.00    -0.060 C 
ATOM     16  N   UNL     1      -0.795  -7.534  -1.577  0.00  0.00    +0.382 N 
ATOM     17  C   UNL     1       0.361  -6.730  -1.161  0.00  0.00    -0.060 C 
ATOM     18  C   UNL     1       0.056  -6.048   0.172  0.00  0.00    +0.088 C 
ATOM     19  H   UNL     1      -1.027  -8.190  -0.845  0.00  0.00    -0.082 HD
BRANCH  16  20
ATOM     20  C   UNL     1      -0.461  -8.272  -2.802  0.00  0.00    -0.082 C 
ATOM     21  C   UNL     1       0.658  -9.273  -2.506  0.00  0.00    -0.017 C 
ENDBRANCH  16  20
ENDBRANCH   3  13
BRANCH   1  22
ATOM     22  C   UNL     1      -1.133  -0.301  -0.070  0.00  0.00    +0.057 C 
BRANCH  22  24
ATOM     23  C   UNL     1       0.435   1.616  -0.394  0.00  0.00    +0.004 C 
ATOM     24  C   UNL     1       0.332   0.136  -0.020  0.00  0.00    +0.003 C 
ENDBRANCH  22  24
ENDBRANCH   1  22
BRANCH   2  25
ATOM     25  C   UNL     1      -0.770  -2.897  -1.845  0.00  0.00    -0.037 C 
BRANCH  25  26
ATOM     26  N   UNL     1      -2.015  -3.033  -2.613  0.00  0.00    +0.386 N 
ATOM     27  H   UNL     1      -2.488  -3.881  -2.340  0.00  0.00    -0.081 HD
BRANCH  26  28
ATOM     28  C   UNL     1      -1.702  -3.086  -4.048  0.00  0.00    -0.078 C 
BRANCH  28  29
ATOM     29  C   UNL     1      -0.889  -4.348  -4.346  0.00  0.00    -0.022 C 
ATOM     30  C   UNL     1      -0.435  -4.328  -5.806  0.00  0.00    +0.002 C 
ENDBRANCH  28  29
ENDBRANCH  26  28
BRANCH  26  31
ATOM     31  C   UNL     1      -2.884  -1.879  -2.344  0.00  0.00    -0.024 C 
BRANCH  31  32
ATOM     32  C   UNL     1      -4.209  -2.078  -3.034  0.00  0.00    +0.002 A 
ATOM     33  C   UNL     1      -5.323  -2.591  -2.473  0.00  0.00    +0.021 A 
ATOM     34  C   UNL     1      -6.327  -2.599  -3.462  0.00  0.00    +0.019 A 
ATOM     35  C   UNL     1      -5.789  -2.091  -4.588  0.00  0.00    +0.085 A 
ATOM     36  N   UNL     1      -4.491  -1.764  -4.330  0.00  0.00    -0.355 N 
ATOM     37  C   UNL     1      -3.552  -1.175  -5.289  0.00  0.00    +0.148 C 
ENDBRANCH  31  32
ENDBRANCH  26  31
ENDBRANCH  25  26
ENDBRANCH   2  25
TORSDOF 11
