REMARK  Name = ZINC39841205
REMARK  11 active torsions:
REMARK  status: ('A' for Active; 'I' for Inactive)
REMARK    1  A    between atoms: C_1  and  C_2
REMARK    2  A    between atoms: C_2  and  C_3
REMARK    3  A    between atoms: C_3  and  C_4
REMARK    4  A    between atoms: C_4  and  C_5
REMARK    5  A    between atoms: C_5  and  N_6
REMARK    6  A    between atoms: C_7  and  N_8
REMARK    7  A    between atoms: C_9  and  C_22
REMARK    8  A    between atoms: C_27  and  C_30
REMARK    9  A    between atoms: C_30  and  O_32
REMARK   10  A    between atoms: O_32  and  C_33
REMARK   11  A    between atoms: C_33  and  C_34
REMARK                            x       y       z     vdW  Elec       q    Type
REMARK                         _______ _______ _______ _____ _____    ______ ____
ROOT
ATOM      1  N   UNL     1      -2.841  -4.083   0.033  0.00  0.00    -0.313 N 
ATOM      2  C   UNL     1      -2.830  -4.708  -1.129  0.00  0.00    +0.110 A 
ATOM      3  C   UNL     1      -2.815  -6.119  -1.204  0.00  0.00    +0.075 A 
ATOM      4  C   UNL     1      -2.811  -6.864  -0.022  0.00  0.00    +0.033 A 
ATOM      5  C   UNL     1      -2.823  -6.173   1.186  0.00  0.00    +0.083 A 
ATOM      6  C   UNL     1      -2.833  -4.752   1.188  0.00  0.00    +0.150 A 
ATOM      7  N   UNL     1      -2.839  -4.107   2.359  0.00  0.00    -0.211 NA
ATOM      8  C   UNL     1      -2.832  -4.751   3.521  0.00  0.00    +0.143 A 
ATOM      9  C   UNL     1      -2.840  -3.991   4.711  0.00  0.00    +0.047 A 
ATOM     10  C   UNL     1      -2.832  -4.626   5.914  0.00  0.00    +0.005 A 
ATOM     11  C   UNL     1      -2.817  -6.029   5.959  0.00  0.00    +0.018 A 
ATOM     12  C   UNL     1      -2.810  -6.743   4.813  0.00  0.00    +0.096 A 
ATOM     13  N   UNL     1      -2.818  -6.117   3.600  0.00  0.00    -0.268 N 
ATOM     14  C   UNL     1      -2.821  -6.870   2.474  0.00  0.00    +0.268 A 
ATOM     15  O   UNL     1      -2.808  -8.085   2.530  0.00  0.00    -0.267 OA
ENDROOT
BRANCH   3  16
ATOM     16  C   UNL     1      -2.803  -6.795  -2.510  0.00  0.00    +0.250 C 
ATOM     17  O   UNL     1      -3.666  -6.548  -3.331  0.00  0.00    -0.270 OA
ATOM     18  N   UNL     1      -1.836  -7.689  -2.798  0.00  0.00    -0.297 N 
ATOM     19  C   UNL     1      -0.846  -8.073  -1.783  0.00  0.00    +0.109 C 
ATOM     20  C   UNL     1       0.558  -7.865  -2.361  0.00  0.00    +0.033 C 
ATOM     21  C   UNL     1       0.681  -8.630  -3.681  0.00  0.00    +0.101 C 
ATOM     22  C   UNL     1      -0.340  -8.088  -4.684  0.00  0.00    +0.033 C 
ATOM     23  C   UNL     1      -1.757  -8.303  -4.131  0.00  0.00    +0.109 C 
BRANCH  21  24
ATOM     24  C   UNL     1       2.071  -8.456  -4.235  0.00  0.00    +0.310 C 
ATOM     25  O   UNL     1       2.881  -7.787  -3.637  0.00  0.00    -0.251 OA
BRANCH  24  26
ATOM     26  O   UNL     1       2.410  -9.042  -5.394  0.00  0.00    -0.465 OA
BRANCH  26  27
ATOM     27  C   UNL     1       3.745  -8.834  -5.860  0.00  0.00    +0.229 C 
ATOM     28  C   UNL     1       3.944  -9.575  -7.184  0.00  0.00    +0.048 C 
ENDBRANCH  26  27
ENDBRANCH  24  26
ENDBRANCH  21  24
ENDBRANCH   3  16
BRANCH   2  29
ATOM     29  N   UNL     1      -2.833  -3.970  -2.294  0.00  0.00    -0.344 N 
ATOM     30  H   UNL     1      -2.917  -3.005  -2.256  0.00  0.00    +0.144 HD
ATOM     31  H   UNL     1      -2.752  -4.417  -3.151  0.00  0.00    +0.144 HD
ENDBRANCH   2  29
BRANCH   1  32
ATOM     32  C   UNL     1      -2.857  -2.618   0.056  0.00  0.00    +0.125 C 
BRANCH  32  33
ATOM     33  C   UNL     1      -1.420  -2.093   0.062  0.00  0.00    +0.022 C 
BRANCH  33  34
ATOM     34  C   UNL     1      -1.437  -0.563   0.086  0.00  0.00    +0.001 C 
BRANCH  34  36
ATOM     35  C   UNL     1      -0.016   1.492   0.117  0.00  0.00    +0.004 C 
ATOM     36  C   UNL     1       0.001  -0.038   0.093  0.00  0.00    -0.003 C 
ENDBRANCH  34  36
ENDBRANCH  33  34
ENDBRANCH  32  33
ENDBRANCH   1  32
TORSDOF 9
