REMARK  Name = ZINC01945458
REMARK  11 active torsions:
REMARK  status: ('A' for Active; 'I' for Inactive)
REMARK    1  A    between atoms: C_1  and  C_2
REMARK    2  A    between atoms: C_9  and  N_14
REMARK    3  A    between atoms: C_10  and  C_11
REMARK    4  A    between atoms: C_15  and  C_17
REMARK    5  A    between atoms: C_18  and  C_19
REMARK    6  A    between atoms: C_22  and  O_27
REMARK    7  A    between atoms: C_23  and  O_25
REMARK    8  A    between atoms: O_25  and  C_26
REMARK    9  A    between atoms: O_27  and  C_28
REMARK   10  A    between atoms: C_28  and  C_29
REMARK   11  A    between atoms: C_28  and  C_30
REMARK                            x       y       z     vdW  Elec       q    Type
REMARK                         _______ _______ _______ _____ _____    ______ ____
ROOT
ATOM      1  N   UNL     1       0.448  -5.758   2.785  0.00  0.00    -0.276 N 
ATOM      2  C   UNL     1       1.551  -6.049   3.503  0.00  0.00    +0.241 C 
ATOM      3  O   UNL     1       2.368  -5.179   3.743  0.00  0.00    -0.270 OA
ATOM      4  H   UNL     1      -0.203  -6.452   2.593  0.00  0.00    +0.156 HD
ENDROOT
BRANCH   1  12
ATOM      5  C   UNL     1      -0.239   1.592   0.291  0.00  0.00    +0.008 C 
ATOM      6  C   UNL     1      -0.309   0.064   0.326  0.00  0.00    -0.009 C 
ATOM      7  C   UNL     1      -1.749  -0.377   0.602  0.00  0.00    +0.008 C 
ATOM      8  C   UNL     1      -1.880  -1.888   0.396  0.00  0.00    +0.037 C 
ATOM      9  C   UNL     1      -0.799  -2.585   1.209  0.00  0.00    -0.023 A 
ATOM     10  C   UNL     1       0.284  -1.916   1.657  0.00  0.00    -0.004 A 
ATOM     11  S   UNL     1       1.231  -3.127   2.532  0.00  0.00    -0.077 S 
ATOM     12  C   UNL     1       0.244  -4.470   2.320  0.00  0.00    +0.085 A 
ATOM     13  C   UNL     1      -0.822  -3.991   1.574  0.00  0.00    +0.068 A 
ATOM     14  C   UNL     1       0.599  -0.467   1.445  0.00  0.00    +0.046 C 
BRANCH  13  15
ATOM     15  C   UNL     1      -1.925  -4.868   1.169  0.00  0.00    +0.244 C 
ATOM     16  O   UNL     1      -1.868  -5.470   0.113  0.00  0.00    -0.270 OA
ATOM     17  N   UNL     1      -3.003  -5.006   1.967  0.00  0.00    -0.325 N 
ATOM     18  H   UNL     1      -3.048  -4.527   2.809  0.00  0.00    +0.145 HD
ATOM     19  H   UNL     1      -3.733  -5.586   1.699  0.00  0.00    +0.145 HD
ENDBRANCH  13  15
ENDBRANCH   1  12
BRANCH   2  20
ATOM     20  C   UNL     1       1.766  -7.409   3.993  0.00  0.00    +0.068 C 
ATOM     21  C   UNL     1       2.872  -7.700   4.712  0.00  0.00    +0.013 C 
BRANCH  21  22
ATOM     22  C   UNL     1       3.088  -9.068   5.205  0.00  0.00    -0.021 A 
ATOM     23  C   UNL     1       2.153 -10.072   4.925  0.00  0.00    +0.012 A 
ATOM     24  C   UNL     1       2.359 -11.352   5.388  0.00  0.00    +0.050 A 
ATOM     25  C   UNL     1       3.492 -11.652   6.133  0.00  0.00    +0.162 A 
ATOM     26  C   UNL     1       4.428 -10.658   6.416  0.00  0.00    +0.162 A 
ATOM     27  C   UNL     1       4.233  -9.372   5.951  0.00  0.00    +0.057 A 
BRANCH  26  28
ATOM     28  O   UNL     1       5.536 -10.956   7.146  0.00  0.00    -0.491 OA
ATOM     29  C   UNL     1       6.452  -9.889   7.399  0.00  0.00    +0.277 C 
ENDBRANCH  26  28
BRANCH  25  30
ATOM     30  O   UNL     1       3.689 -12.917   6.586  0.00  0.00    -0.486 OA
BRANCH  30  31
ATOM     31  C   UNL     1       2.756 -13.912   6.160  0.00  0.00    +0.167 C 
ATOM     32  C   UNL     1       3.420 -15.289   6.213  0.00  0.00    +0.051 C 
ATOM     33  C   UNL     1       1.537 -13.897   7.085  0.00  0.00    +0.051 C 
ENDBRANCH  30  31
ENDBRANCH  25  30
ENDBRANCH  21  22
ENDBRANCH   2  20
TORSDOF 7
