REMARK  Name = ZINC14535600
REMARK  9 active torsions:
REMARK  status: ('A' for Active; 'I' for Inactive)
REMARK    1  A    between atoms: C_1  and  O_2
REMARK    2  A    between atoms: O_2  and  C_3
REMARK    3  A    between atoms: C_6  and  C_9
REMARK    4  A    between atoms: C_9  and  N_10
REMARK    5  A    between atoms: C_12  and  O_26
REMARK    6  A    between atoms: N_15  and  C_19
REMARK    7  A    between atoms: C_19  and  C_20
REMARK    8  A    between atoms: O_26  and  C_27
REMARK    9  A    between atoms: C_27  and  C_28
REMARK                            x       y       z     vdW  Elec       q    Type
REMARK                         _______ _______ _______ _____ _____    ______ ____
ROOT
ATOM      1  N   UNL     1       3.923  -2.713  -4.080  0.00  0.00    -0.294 N 
ATOM      2  C   UNL     1       4.911  -1.675  -4.417  0.00  0.00    +0.141 C 
ATOM      3  C   UNL     1       5.420  -1.051  -3.114  0.00  0.00    +0.150 C 
ATOM      4  C   UNL     1       6.566  -1.863  -2.542  0.00  0.00    +0.118 C 
ATOM      5  N   UNL     1       6.181  -3.192  -2.086  0.00  0.00    -0.284 NA
ATOM      6  C   UNL     1       5.789  -4.073  -3.194  0.00  0.00    +0.181 C 
ATOM      7  C   UNL     1       4.322  -3.846  -3.493  0.00  0.00    +0.230 C 
ATOM      8  O   UNL     1       3.507  -4.696  -3.203  0.00  0.00    -0.274 OA
ENDROOT
BRANCH   1   9
ATOM      9  C   UNL     1       2.505  -2.503  -4.381  0.00  0.00    +0.143 C 
BRANCH   9  13
ATOM     10  C   UNL     1       0.606  -0.607  -1.056  0.00  0.00    +0.120 A 
ATOM     11  C   UNL     1       1.173   0.161  -2.062  0.00  0.00    +0.046 A 
ATOM     12  C   UNL     1       1.786  -0.455  -3.136  0.00  0.00    +0.009 A 
ATOM     13  C   UNL     1       1.835  -1.835  -3.209  0.00  0.00    -0.030 A 
ATOM     14  C   UNL     1       1.270  -2.602  -2.207  0.00  0.00    +0.009 A 
ATOM     15  C   UNL     1       0.661  -1.992  -1.128  0.00  0.00    +0.046 A 
BRANCH  10  17
ATOM     16  C   UNL     1      -0.017   1.425   0.010  0.00  0.00    +0.277 C 
ATOM     17  O   UNL     1       0.002  -0.004   0.002  0.00  0.00    -0.495 OA
ENDBRANCH  10  17
ENDBRANCH   9  13
ENDBRANCH   1   9
BRANCH   5  18
ATOM     18  C   UNL     1       7.247  -3.803  -1.280  0.00  0.00    +0.157 C 
BRANCH  18  19
ATOM     19  C   UNL     1       6.726  -5.057  -0.627  0.00  0.00    +0.099 A 
ATOM     20  N   UNL     1       5.451  -5.356  -0.439  0.00  0.00    -0.349 N 
ATOM     21  H   UNL     1       4.695  -4.806  -0.698  0.00  0.00    +0.166 HD
ATOM     22  C   UNL     1       5.384  -6.556   0.173  0.00  0.00    +0.101 A 
ATOM     23  C   UNL     1       6.649  -6.985   0.357  0.00  0.00    +0.101 A 
ATOM     24  N   UNL     1       7.470  -6.043  -0.151  0.00  0.00    -0.349 N 
ATOM     25  H   UNL     1       8.440  -6.080  -0.163  0.00  0.00    +0.166 HD
ENDBRANCH  18  19
ENDBRANCH   5  18
BRANCH   3  26
ATOM     26  O   UNL     1       5.870   0.280  -3.374  0.00  0.00    -0.369 OA
BRANCH  26  27
ATOM     27  C   UNL     1       4.856   1.275  -3.229  0.00  0.00    +0.198 C 
BRANCH  27  28
ATOM     28  C   UNL     1       5.438   2.633  -3.526  0.00  0.00    +0.013 A 
ATOM     29  C   UNL     1       6.769   2.752  -3.879  0.00  0.00    +0.009 A 
ATOM     30  C   UNL     1       7.304   3.998  -4.151  0.00  0.00    +0.001 A 
ATOM     31  C   UNL     1       6.508   5.125  -4.070  0.00  0.00    +0.003 A 
ATOM     32  C   UNL     1       5.177   5.009  -3.717  0.00  0.00    +0.039 A 
ATOM     33  C   UNL     1       4.639   3.761  -3.450  0.00  0.00    +0.129 A 
ATOM     34  F   UNL     1       3.337   3.646  -3.109  0.00  0.00    -0.205 F 
ENDBRANCH  27  28
ENDBRANCH  26  27
ENDBRANCH   3  26
TORSDOF 8
