REMARK  Name = ZINC12213629
REMARK  7 active torsions:
REMARK  status: ('A' for Active; 'I' for Inactive)
REMARK    1  A    between atoms: C_1  and  C_2
REMARK    2  A    between atoms: C_2  and  C_4
REMARK    3  A    between atoms: C_2  and  C_28
REMARK    4  A    between atoms: C_4  and  N_65
REMARK    5  A    between atoms: C_7  and  C_10
REMARK    6  A    between atoms: C_7  and  O_27
REMARK    7  A    between atoms: C_17  and  C_19
REMARK                            x       y       z     vdW  Elec       q    Type
REMARK                         _______ _______ _______ _____ _____    ______ ____
ROOT
ATOM      1  C   UNL     1       1.735  -2.158  -1.069  0.00  0.00    -0.076 C 
ATOM      2  C   UNL     1       1.651  -0.668  -1.408  0.00  0.00    +0.021 C 
ATOM      3  C   UNL     1       0.427  -0.060  -0.718  0.00  0.00    +0.088 C 
ATOM      4  C   UNL     1       0.534  -0.291   0.792  0.00  0.00    +0.021 C 
ATOM      5  C   UNL     1       0.652  -1.792   1.068  0.00  0.00    -0.076 C 
ATOM      6  N   UNL     1       1.863  -2.311   0.396  0.00  0.00    +0.380 N 
ATOM      7  H   UNL     1       2.677  -1.774   0.717  0.00  0.00    -0.082 HD
ENDROOT
BRANCH   3   8
ATOM      8  C   UNL     1       0.373   1.419  -0.999  0.00  0.00    -0.015 A 
ATOM      9  C   UNL     1       1.551   2.125  -1.206  0.00  0.00    +0.010 A 
ATOM     10  C   UNL     1       1.524   3.478  -1.465  0.00  0.00    +0.047 A 
ATOM     11  C   UNL     1       0.308   4.149  -1.520  0.00  0.00    +0.136 A 
ATOM     12  C   UNL     1      -0.882   3.428  -1.310  0.00  0.00    +0.021 A 
ATOM     13  C   UNL     1      -0.834   2.055  -1.054  0.00  0.00    +0.018 A 
ATOM     14  C   UNL     1      -1.964   4.405  -1.432  0.00  0.00    +0.063 A 
ATOM     15  C   UNL     1      -1.367   5.596  -1.697  0.00  0.00    +0.191 A 
ATOM     16  O   UNL     1      -0.028   5.434  -1.747  0.00  0.00    -0.450 OA
BRANCH  15  17
ATOM     17  C   UNL     1      -2.073   6.869  -1.898  0.00  0.00    +0.282 C 
ATOM     18  O   UNL     1      -3.286   6.885  -1.984  0.00  0.00    -0.267 OA
ATOM     19  N   UNL     1      -1.376   8.019  -1.987  0.00  0.00    -0.293 N 
ATOM     20  C   UNL     1       0.086   7.985  -1.927  0.00  0.00    +0.119 C 
ATOM     21  C   UNL     1       0.658   8.433  -3.283  0.00  0.00    +0.088 C 
ATOM     22  S   UNL     1       0.023  10.094  -3.660  0.00  0.00    -0.158 S 
ATOM     23  C   UNL     1      -1.778   9.892  -3.509  0.00  0.00    +0.088 C 
ATOM     24  C   UNL     1      -2.090   9.288  -2.135  0.00  0.00    +0.119 C 
ENDBRANCH  15  17
ENDBRANCH   3   8
BRANCH   3  25
ATOM     25  O   UNL     1      -0.759  -0.684  -1.213  0.00  0.00    -0.384 OA
ATOM     26  H   UNL     1      -1.575  -0.349  -0.817  0.00  0.00    +0.211 HD
ENDBRANCH   3  25
BRANCH   6  27
ATOM     27  C   UNL     1       2.059  -3.734   0.740  0.00  0.00    -0.071 C 
BRANCH  27  29
ATOM     28  C   UNL     1       2.257  -5.354   2.632  0.00  0.00    +0.010 C 
ATOM     29  C   UNL     1       2.087  -3.879   2.263  0.00  0.00    -0.001 C 
BRANCH  29  30
ATOM     30  C   UNL     1       3.239  -3.085   2.822  0.00  0.00    -0.046 A 
ATOM     31  C   UNL     1       4.534  -3.383   2.440  0.00  0.00    +0.004 A 
ATOM     32  C   UNL     1       5.591  -2.652   2.950  0.00  0.00    +0.000 A 
ATOM     33  C   UNL     1       5.354  -1.630   3.849  0.00  0.00    +0.000 A 
ATOM     34  C   UNL     1       4.060  -1.335   4.236  0.00  0.00    +0.000 A 
ATOM     35  C   UNL     1       3.002  -2.063   3.723  0.00  0.00    +0.004 A 
ENDBRANCH  29  30
ENDBRANCH  27  29
ENDBRANCH   6  27
TORSDOF 6
