REMARK  Name = ZINC46587509
REMARK  14 active torsions:
REMARK  status: ('A' for Active; 'I' for Inactive)
REMARK    1  A    between atoms: C_1  and  C_2
REMARK    2  A    between atoms: C_2  and  N_3
REMARK    3  A    between atoms: N_3  and  C_4
REMARK    4  A    between atoms: N_3  and  C_6
REMARK    5  A    between atoms: C_4  and  C_5
REMARK    6  A    between atoms: C_6  and  C_8
REMARK    7  A    between atoms: C_6  and  C_30
REMARK    8  A    between atoms: C_8  and  N_9
REMARK    9  A    between atoms: C_10  and  C_12
REMARK   10  A    between atoms: C_12  and  S_13
REMARK   11  A    between atoms: S_13  and  C_14
REMARK   12  A    between atoms: N_19  and  C_20
REMARK   13  A    between atoms: C_24  and  N_26
REMARK   14  A    between atoms: C_27  and  C_29
REMARK                            x       y       z     vdW  Elec       q    Type
REMARK                         _______ _______ _______ _____ _____    ______ ____
ROOT
ATOM      1  S   UNL     1       4.216  -0.555   2.215  0.00  0.00    -0.088 S 
ENDROOT
BRANCH   1   2
ATOM      2  C   UNL     1       5.659   0.433   2.000  0.00  0.00    +0.160 A 
ATOM      3  N   UNL     1       5.842   1.490   1.231  0.00  0.00    -0.133 NA
ATOM      4  N   UNL     1       7.064   2.120   1.215  0.00  0.00    -0.125 NA
ATOM      5  C   UNL     1       8.048   1.666   1.967  0.00  0.00    +0.187 A 
ATOM      6  S   UNL     1       7.263   0.277   2.771  0.00  0.00    -0.024 S 
ATOM      7  N   UNL     1       9.347   2.143   2.102  0.00  0.00    -0.292 N 
ATOM      8  H   UNL     1       9.991   1.653   2.637  0.00  0.00    +0.154 HD
BRANCH   7   9
ATOM      9  C   UNL     1       9.724   3.330   1.469  0.00  0.00    +0.035 A 
ATOM     10  C   UNL     1      11.037   3.506   1.047  0.00  0.00    +0.023 A 
ATOM     11  C   UNL     1      11.411   4.679   0.420  0.00  0.00    +0.004 A 
ATOM     12  C   UNL     1      10.482   5.681   0.211  0.00  0.00    +0.023 A 
ATOM     13  C   UNL     1       9.168   5.511   0.630  0.00  0.00    +0.035 A 
ATOM     14  C   UNL     1       8.788   4.332   1.255  0.00  0.00    +0.046 A 
BRANCH  13  15
ATOM     15  N   UNL     1       8.228   6.525   0.417  0.00  0.00    -0.286 N 
ATOM     16  C   UNL     1       8.288   7.275  -0.701  0.00  0.00    +0.214 C 
ATOM     17  O   UNL     1       9.198   7.120  -1.488  0.00  0.00    -0.276 OA
ATOM     18  C   UNL     1       7.223   8.307  -0.974  0.00  0.00    +0.109 C 
ATOM     19  H   UNL     1       7.534   6.689   1.075  0.00  0.00    +0.155 HD
ENDBRANCH  13  15
ENDBRANCH   7   9
ENDBRANCH   1   2
BRANCH   1  20
ATOM     20  C   UNL     1       2.995   0.206   1.111  0.00  0.00    +0.172 C 
BRANCH  20  22
ATOM     21  N   UNL     1       0.637  -0.166   0.461  0.00  0.00    -0.316 N 
ATOM     22  C   UNL     1       1.696  -0.553   1.199  0.00  0.00    +0.223 C 
ATOM     23  O   UNL     1       1.603  -1.513   1.935  0.00  0.00    -0.275 OA
ATOM     24  H   UNL     1       0.711   0.602  -0.127  0.00  0.00    +0.149 HD
BRANCH  21  25
ATOM     25  C   UNL     1      -0.626  -0.904   0.547  0.00  0.00    +0.096 C 
BRANCH  25  26
ATOM     26  C   UNL     1      -1.620  -0.332  -0.466  0.00  0.00    +0.016 C 
BRANCH  26  27
ATOM     27  C   UNL     1      -2.954  -1.014  -0.300  0.00  0.00    +0.093 A 
ATOM     28  C   UNL     1      -3.427  -2.013  -1.067  0.00  0.00    +0.043 A 
ATOM     29  C   UNL     1      -4.704  -2.348  -0.561  0.00  0.00    +0.041 A 
ATOM     30  C   UNL     1      -4.934  -1.534   0.485  0.00  0.00    +0.195 A 
ATOM     31  O   UNL     1      -3.868  -0.733   0.642  0.00  0.00    -0.469 OA
ENDBRANCH  26  27
BRANCH  26  32
ATOM     32  N   UNL     1      -1.777   1.111  -0.238  0.00  0.00    +0.387 N 
ATOM     33  H   UNL     1      -0.902   1.578  -0.426  0.00  0.00    -0.081 HD
BRANCH  32  35
ATOM     34  C   UNL     1      -2.339   1.538  -2.582  0.00  0.00    -0.017 C 
ATOM     35  C   UNL     1      -2.816   1.638  -1.132  0.00  0.00    -0.081 C 
ENDBRANCH  32  35
BRANCH  32  36
ATOM     36  C   UNL     1      -2.167   1.346   1.159  0.00  0.00    -0.081 C 
ATOM     37  C   UNL     1      -2.190   2.851   1.435  0.00  0.00    -0.017 C 
ENDBRANCH  32  36
ENDBRANCH  26  32
ENDBRANCH  25  26
ENDBRANCH  21  25
ENDBRANCH  20  22
ENDBRANCH   1  20
TORSDOF 11
