REMARK  Name = ZINC09232386
REMARK  3 active torsions:
REMARK  status: ('A' for Active; 'I' for Inactive)
REMARK    1  A    between atoms: C_1  and  C_2
REMARK    2  A    between atoms: C_4  and  C_33
REMARK    3  A    between atoms: N_20  and  C_23
REMARK                            x       y       z     vdW  Elec       q    Type
REMARK                         _______ _______ _______ _____ _____    ______ ____
ROOT
ATOM      1  C   UNL     1      -4.179   2.973   2.371  0.00  0.00    +0.044 C 
ATOM      2  C   UNL     1      -2.697   2.696   2.388  0.00  0.00    -0.050 A 
ATOM      3  C   UNL     1      -2.045   2.343   1.220  0.00  0.00    +0.008 A 
ATOM      4  C   UNL     1      -0.690   2.083   1.231  0.00  0.00    -0.029 A 
ATOM      5  C   UNL     1       0.034   2.187   2.416  0.00  0.00    +0.039 A 
ATOM      6  C   UNL     1      -0.632   2.550   3.582  0.00  0.00    -0.027 A 
ATOM      7  C   UNL     1      -1.985   2.803   3.569  0.00  0.00    +0.008 A 
ATOM      8  C   UNL     1       0.413   2.573   4.663  0.00  0.00    +0.053 C 
ATOM      9  C   UNL     1       0.071   1.594   5.791  0.00  0.00    +0.089 C 
ATOM     10  C   UNL     1       0.551   2.303   7.087  0.00  0.00    +0.074 C 
ATOM     11  C   UNL     1       1.139   3.647   6.618  0.00  0.00    -0.054 C 
ATOM     12  C   UNL     1      -0.844   4.412   5.601  0.00  0.00    -0.076 C 
ATOM     13  C   UNL     1      -0.667   5.289   6.857  0.00  0.00    -0.020 C 
ATOM     14  C   UNL     1       0.621   4.774   7.529  0.00  0.00    -0.016 C 
ATOM     15  C   UNL     1      -0.725   2.555   7.858  0.00  0.00    +0.228 C 
ATOM     16  O   UNL     1      -0.794   3.093   8.942  0.00  0.00    -0.275 OA
ATOM     17  N   UNL     1      -1.766   2.084   7.135  0.00  0.00    -0.209 N 
ATOM     18  C   UNL     1      -1.429   1.524   5.968  0.00  0.00    +0.229 C 
ATOM     19  O   UNL     1      -2.206   1.035   5.175  0.00  0.00    -0.275 OA
ATOM     20  C   UNL     1       1.695   2.191   3.974  0.00  0.00    +0.212 C 
ATOM     21  O   UNL     1       2.789   2.089   4.486  0.00  0.00    -0.277 OA
ATOM     22  N   UNL     1       1.391   1.984   2.678  0.00  0.00    -0.286 N 
ATOM     23  C   UNL     1       0.009   1.692  -0.045  0.00  0.00    +0.045 C 
ATOM     24  H   UNL     1       2.039   1.724   2.005  0.00  0.00    +0.155 HD
ATOM     25  N   UNL     1       0.505   3.871   5.339  0.00  0.00    +0.395 N 
ATOM     26  H   UNL     1       1.049   4.531   4.770  0.00  0.00    -0.079 HD
ENDROOT
BRANCH  17  27
ATOM     27  C   UNL     1      -3.094   2.172   7.579  0.00  0.00    +0.062 A 
ATOM     28  C   UNL     1      -3.868   3.275   7.245  0.00  0.00    +0.025 A 
ATOM     29  C   UNL     1      -5.176   3.356   7.680  0.00  0.00    +0.002 A 
ATOM     30  C   UNL     1      -5.713   2.345   8.456  0.00  0.00    +0.002 A 
ATOM     31  C   UNL     1      -4.944   1.247   8.795  0.00  0.00    +0.022 A 
ATOM     32  C   UNL     1      -3.635   1.157   8.359  0.00  0.00    +0.063 A 
ATOM     33 CL   UNL     1      -2.669  -0.221   8.785  0.00  0.00    -0.082 Cl
ENDBRANCH  17  27
TORSDOF 1
