REMARK  Name = ZINC63139002
REMARK  5 active torsions:
REMARK  status: ('A' for Active; 'I' for Inactive)
REMARK    1  A    between atoms: C_1  and  O_2
REMARK    2  A    between atoms: O_2  and  C_3
REMARK    3  A    between atoms: C_6  and  C_9
REMARK    4  A    between atoms: N_28  and  C_31
REMARK    5  A    between atoms: C_31  and  C_32
REMARK                            x       y       z     vdW  Elec       q    Type
REMARK                         _______ _______ _______ _____ _____    ______ ____
ROOT
ATOM      1  C   UNL     1       2.505  -2.503  -4.381  0.00  0.00    +0.133 C 
ATOM      2  C   UNL     1       1.445  -3.093  -5.317  0.00  0.00    +0.131 C 
ATOM      3  C   UNL     1       0.822  -4.274  -4.585  0.00  0.00    -0.034 C 
ATOM      4  C   UNL     1      -0.486  -4.047  -4.551  0.00  0.00    -0.001 A 
ATOM      5  C   UNL     1      -1.608  -4.855  -4.048  0.00  0.00    +0.010 A 
ATOM      6  C   UNL     1      -2.845  -4.302  -4.164  0.00  0.00    +0.001 A 
ATOM      7  C   UNL     1      -3.074  -3.042  -4.723  0.00  0.00    +0.002 A 
ATOM      8  C   UNL     1      -2.102  -2.233  -5.216  0.00  0.00    +0.026 A 
ATOM      9  C   UNL     1      -0.760  -2.707  -5.155  0.00  0.00    +0.043 A 
ATOM     10  N   UNL     1       0.358  -2.147  -5.577  0.00  0.00    -0.375 N 
ATOM     11  C   UNL     1       1.652  -5.383  -3.986  0.00  0.00    +0.065 C 
ATOM     12  C   UNL     1       2.749  -4.705  -3.144  0.00  0.00    +0.167 C 
ATOM     13  N   UNL     1       3.356  -3.617  -3.906  0.00  0.00    -0.279 N 
ATOM     14  C   UNL     1       4.661  -3.578  -4.200  0.00  0.00    +0.234 C 
ATOM     15  O   UNL     1       5.063  -2.639  -4.854  0.00  0.00    -0.274 OA
ATOM     16  C   UNL     1       5.657  -4.607  -3.778  0.00  0.00    +0.204 C 
ATOM     17  N   UNL     1       5.050  -5.670  -2.994  0.00  0.00    -0.287 N 
ATOM     18  C   UNL     1       3.748  -5.725  -2.706  0.00  0.00    +0.237 C 
ATOM     19  O   UNL     1       3.350  -6.661  -2.044  0.00  0.00    -0.274 OA
ATOM     20  H   UNL     1       0.454  -1.271  -5.982  0.00  0.00    +0.160 HD
ENDROOT
BRANCH   1  24
ATOM     21  C   UNL     1       0.606  -0.607  -1.056  0.00  0.00    +0.120 A 
ATOM     22  C   UNL     1       1.438   0.125  -1.891  0.00  0.00    +0.046 A 
ATOM     23  C   UNL     1       2.051  -0.491  -2.965  0.00  0.00    +0.009 A 
ATOM     24  C   UNL     1       1.835  -1.835  -3.209  0.00  0.00    -0.025 A 
ATOM     25  C   UNL     1       1.006  -2.566  -2.378  0.00  0.00    +0.009 A 
ATOM     26  C   UNL     1       0.396  -1.956  -1.299  0.00  0.00    +0.046 A 
BRANCH  21  28
ATOM     27  C   UNL     1       0.264   1.388   0.192  0.00  0.00    +0.277 C 
ATOM     28  O   UNL     1       0.002  -0.004   0.002  0.00  0.00    -0.495 OA
ENDBRANCH  21  28
ENDBRANCH   1  24
BRANCH  17  29
ATOM     29  C   UNL     1       5.915  -6.742  -2.495  0.00  0.00    +0.143 C 
BRANCH  29  30
ATOM     30  C   UNL     1       6.446  -6.367  -1.136  0.00  0.00    -0.030 A 
ATOM     31  C   UNL     1       7.633  -5.666  -1.026  0.00  0.00    +0.005 A 
ATOM     32  C   UNL     1       8.120  -5.322   0.221  0.00  0.00    +0.000 A 
ATOM     33  C   UNL     1       7.420  -5.678   1.358  0.00  0.00    +0.000 A 
ATOM     34  C   UNL     1       6.234  -6.378   1.249  0.00  0.00    +0.000 A 
ATOM     35  C   UNL     1       5.744  -6.719   0.002  0.00  0.00    +0.005 A 
ENDBRANCH  29  30
ENDBRANCH  17  29
TORSDOF 4
