REMARK  Name = ZINC05643812
REMARK  10 active torsions:
REMARK  status: ('A' for Active; 'I' for Inactive)
REMARK    1  A    between atoms: C_1  and  C_2
REMARK    2  A    between atoms: C_5  and  C_31
REMARK    3  A    between atoms: N_6  and  C_7
REMARK    4  A    between atoms: C_10  and  C_13
REMARK    5  A    between atoms: C_13  and  O_15
REMARK    6  A    between atoms: O_15  and  C_16
REMARK    7  A    between atoms: C_16  and  C_18
REMARK    8  A    between atoms: C_16  and  C_19
REMARK    9  A    between atoms: N_21  and  C_22
REMARK   10  A    between atoms: C_27  and  N_28
REMARK                            x       y       z     vdW  Elec       q    Type
REMARK                         _______ _______ _______ _____ _____    ______ ____
ROOT
ATOM      1  O   UNL     1      -5.361  -3.369   1.097  0.00  0.00    -0.449 OA
ENDROOT
BRANCH   1   2
ATOM      2  C   UNL     1      -4.533  -3.370   0.034  0.00  0.00    +0.340 C 
ATOM      3  O   UNL     1      -4.761  -4.096  -0.913  0.00  0.00    -0.245 OA
BRANCH   2   7
ATOM      4  C   UNL     1      -1.125  -0.838  -0.005  0.00  0.00    +0.047 A 
ATOM      5  C   UNL     1      -1.975  -0.840   1.096  0.00  0.00    +0.027 A 
ATOM      6  C   UNL     1      -3.085  -1.655   1.109  0.00  0.00    +0.017 A 
ATOM      7  C   UNL     1      -3.349  -2.490   0.020  0.00  0.00    +0.059 A 
ATOM      8  C   UNL     1      -2.489  -2.490  -1.081  0.00  0.00    +0.017 A 
ATOM      9  C   UNL     1      -1.385  -1.667  -1.090  0.00  0.00    +0.027 A 
BRANCH   4  15
ATOM     10  C   UNL     1      -1.260   2.226  -0.030  0.00  0.00    +0.064 C 
ATOM     11  C   UNL     1      -0.025   1.362  -0.026  0.00  0.00    +0.021 A 
ATOM     12  C   UNL     1       1.248   1.804  -0.036  0.00  0.00    +0.023 A 
ATOM     13  C   UNL     1       2.089   0.672  -0.034  0.00  0.00    +0.023 A 
ATOM     14  C   UNL     1       1.299  -0.420  -0.022  0.00  0.00    +0.021 A 
ATOM     15  N   UNL     1      -0.003  -0.004  -0.017  0.00  0.00    -0.318 N 
ATOM     16  C   UNL     1       1.769  -1.852  -0.017  0.00  0.00    +0.064 C 
ENDBRANCH   4  15
ENDBRANCH   2   7
ENDBRANCH   1   2
BRANCH   1  17
ATOM     17  C   UNL     1      -6.506  -4.261   1.041  0.00  0.00    +0.259 C 
ATOM     18  C   UNL     1      -6.124  -5.619   1.633  0.00  0.00    +0.062 C 
BRANCH  17  19
ATOM     19  C   UNL     1      -7.642  -3.669   1.834  0.00  0.00    +0.258 C 
ATOM     20  O   UNL     1      -7.501  -2.601   2.391  0.00  0.00    -0.271 OA
ATOM     21  N   UNL     1      -8.816  -4.326   1.924  0.00  0.00    -0.281 N 
ATOM     22  H   UNL     1      -8.956  -5.139   1.415  0.00  0.00    +0.155 HD
BRANCH  21  23
ATOM     23  C   UNL     1      -9.831  -3.835   2.753  0.00  0.00    +0.064 A 
ATOM     24  C   UNL     1      -9.513  -3.036   3.844  0.00  0.00    +0.025 A 
ATOM     25  C   UNL     1     -10.517  -2.549   4.657  0.00  0.00    +0.002 A 
ATOM     26  C   UNL     1     -11.837  -2.865   4.393  0.00  0.00    +0.002 A 
ATOM     27  C   UNL     1     -12.156  -3.666   3.311  0.00  0.00    +0.034 A 
ATOM     28  C   UNL     1     -11.157  -4.151   2.491  0.00  0.00    +0.147 A 
BRANCH  28  29
ATOM     29  N   UNL     1     -11.499  -5.008   1.334  0.00  0.00    +0.058 N 
ATOM     30  O   UNL     1     -12.666  -5.211   1.050  0.00  0.00    -0.126 OA
ATOM     31  O   UNL     1     -10.614  -5.511   0.665  0.00  0.00    -0.126 OA
ENDBRANCH  28  29
ENDBRANCH  21  23
ENDBRANCH  17  19
ENDBRANCH   1  17
TORSDOF 7
