REMARK  Name = ZINC02555661
REMARK  2 active torsions:
REMARK  status: ('A' for Active; 'I' for Inactive)
REMARK    1  A    between atoms: C_2  and  C_20
REMARK    2  A    between atoms: C_15  and  C_18
REMARK                            x       y       z     vdW  Elec       q    Type
REMARK                         _______ _______ _______ _____ _____    ______ ____
ROOT
ATOM      1  C   UNL     1       1.812   1.372   1.012  0.00  0.00    +0.037 A 
ATOM      2  C   UNL     1       1.176   2.040  -0.027  0.00  0.00    +0.072 A 
ATOM      3  C   UNL     1       0.547   1.310  -1.015  0.00  0.00    +0.096 A 
ATOM      4  C   UNL     1       1.138  -0.683  -0.013  0.00  0.00    +0.118 A 
ATOM      5  C   UNL     1       1.792  -0.011   1.017  0.00  0.00    +0.079 A 
ATOM      6 CL   UNL     1       2.571  -0.898   2.291  0.00  0.00    -0.080 Cl
ATOM      7  N   UNL     1       1.111  -2.073  -0.020  0.00  0.00    -0.313 N 
ATOM      8  C   UNL     1       1.749  -2.606  -1.232  0.00  0.00    +0.125 C 
ATOM      9  C   UNL     1       1.769  -4.135  -1.164  0.00  0.00    +0.126 C 
ATOM     10  N   UNL     1       0.394  -4.635  -1.034  0.00  0.00    -0.307 N 
ATOM     11  C   UNL     1      -0.245  -4.102   0.177  0.00  0.00    +0.126 C 
ATOM     12  C   UNL     1      -0.265  -2.573   0.110  0.00  0.00    +0.125 C 
ATOM     13  C   UNL     1       0.366  -6.021  -1.042  0.00  0.00    +0.161 A 
ATOM     14  N   UNL     1       0.830  -6.854  -1.953  0.00  0.00    -0.229 NA
ATOM     15  C   UNL     1       0.724  -8.161  -1.801  0.00  0.00    +0.065 A 
ATOM     16  C   UNL     1       0.114  -8.634  -0.688  0.00  0.00    +0.073 A 
ATOM     17  S   UNL     1      -0.296  -7.105   0.141  0.00  0.00    -0.060 S 
ATOM     18  N   UNL     1       0.507  -0.049  -1.042  0.00  0.00    -0.348 N 
ATOM     19  H   UNL     1       0.031  -0.566  -1.791  0.00  0.00    +0.167 HD
ENDROOT
BRANCH   2  20
ATOM     20  C   UNL     1       1.172   3.546  -0.074  0.00  0.00    +0.419 C 
ATOM     21  F   UNL     1       0.473   3.975  -1.207  0.00  0.00    -0.166 F 
ATOM     22  F   UNL     1       0.551   4.047   1.075  0.00  0.00    -0.166 F 
ATOM     23  F   UNL     1       2.489   4.014  -0.134  0.00  0.00    -0.166 F 
ENDBRANCH   2  20
BRANCH  15  24
ATOM     24  C   UNL     1       1.264  -9.105  -2.844  0.00  0.00    +0.164 C 
ATOM     25 CL   UNL     1      -0.018  -9.447  -4.066  0.00  0.00    -0.119 Cl
ENDBRANCH  15  24
TORSDOF 2
