REMARK  Name = ZINC45921519
REMARK  6 active torsions:
REMARK  status: ('A' for Active; 'I' for Inactive)
REMARK    1  A    between atoms: C_1  and  C_2
REMARK    2  A    between atoms: C_5  and  C_7
REMARK    3  A    between atoms: C_7  and  N_8
REMARK    4  A    between atoms: C_9  and  C_11
REMARK    5  A    between atoms: C_20  and  S_23
REMARK    6  A    between atoms: S_23  and  C_24
REMARK                            x       y       z     vdW  Elec       q    Type
REMARK                         _______ _______ _______ _____ _____    ______ ____
ROOT
ATOM      1  C   UNL     1       3.047  -5.358  -2.682  0.00  0.00    +0.078 C 
ATOM      2  C   UNL     1       1.714  -5.847  -3.251  0.00  0.00    +0.031 C 
ATOM      3  C   UNL     1       1.855  -6.061  -4.761  0.00  0.00    +0.107 C 
ATOM      4  N   UNL     1       2.984  -6.968  -5.007  0.00  0.00    -0.314 N 
ATOM      5  C   UNL     1       4.293  -6.639  -4.428  0.00  0.00    +0.107 C 
ATOM      6  C   UNL     1       4.125  -6.418  -2.921  0.00  0.00    +0.031 C 
ATOM      7  C   UNL     1       2.816  -8.120  -5.774  0.00  0.00    +0.144 A 
ATOM      8  C   UNL     1       1.636  -8.314  -6.495  0.00  0.00    +0.048 A 
ATOM      9  C   UNL     1       1.516  -9.472  -7.242  0.00  0.00    +0.040 A 
ATOM     10  C   UNL     1       2.582 -10.374  -7.228  0.00  0.00    +0.124 A 
ATOM     11  N   UNL     1       3.663 -10.105  -6.514  0.00  0.00    -0.141 NA
ATOM     12  N   UNL     1       3.776  -9.028  -5.825  0.00  0.00    -0.133 NA
ENDROOT
BRANCH   1  14
ATOM     13  N   UNL     1       2.006  -4.214  -0.752  0.00  0.00    -0.308 N 
ATOM     14  C   UNL     1       2.903  -5.114  -1.202  0.00  0.00    +0.217 C 
ATOM     15  O   UNL     1       3.593  -5.727  -0.416  0.00  0.00    -0.276 OA
ATOM     16  H   UNL     1       1.454  -3.723  -1.381  0.00  0.00    +0.149 HD
BRANCH  13  17
ATOM     17  C   UNL     1       1.866  -3.976   0.686  0.00  0.00    +0.178 C 
BRANCH  17  22
ATOM     18  C   UNL     1      -0.354   0.504   1.351  0.00  0.00    +0.086 C 
ATOM     19  C   UNL     1      -0.160  -0.984   1.211  0.00  0.00    +0.102 A 
ATOM     20  C   UNL     1      -1.129  -1.914   1.286  0.00  0.00    +0.045 A 
ATOM     21  C   UNL     1      -0.507  -3.170   1.100  0.00  0.00    +0.046 A 
ATOM     22  C   UNL     1       0.805  -2.932   0.922  0.00  0.00    +0.122 A 
ATOM     23  O   UNL     1       1.008  -1.606   0.984  0.00  0.00    -0.463 OA
ENDBRANCH  17  22
ENDBRANCH  13  17
ENDBRANCH   1  14
BRANCH  10  24
ATOM     24  S   UNL     1       2.487 -11.867  -8.159  0.00  0.00    -0.068 S 
BRANCH  24  25
ATOM     25  C   UNL     1       3.942 -12.748  -7.700  0.00  0.00    +0.014 A 
ATOM     26  C   UNL     1       3.906 -13.646  -6.640  0.00  0.00    +0.016 A 
ATOM     27  C   UNL     1       5.048 -14.336  -6.283  0.00  0.00    +0.016 A 
ATOM     28  C   UNL     1       6.227 -14.134  -6.979  0.00  0.00    +0.018 A 
ATOM     29  C   UNL     1       6.266 -13.240  -8.035  0.00  0.00    +0.016 A 
ATOM     30  C   UNL     1       5.126 -12.551  -8.401  0.00  0.00    +0.016 A 
ATOM     31 BR   UNL     1       7.788 -15.080  -6.487  0.00  0.00    -0.050 Br
ENDBRANCH  24  25
ENDBRANCH  10  24
TORSDOF 5
