REMARK  Name = ZINC15946696
REMARK  11 active torsions:
REMARK  status: ('A' for Active; 'I' for Inactive)
REMARK    1  A    between atoms: C_1  and  C_2
REMARK    2  A    between atoms: C_7  and  C_8
REMARK    3  A    between atoms: C_7  and  N_72
REMARK    4  A    between atoms: N_10  and  C_11
REMARK    5  A    between atoms: C_12  and  C_25
REMARK    6  A    between atoms: C_17  and  C_21
REMARK    7  A    between atoms: C_21  and  C_22
REMARK    8  A    between atoms: C_21  and  C_23
REMARK    9  A    between atoms: C_21  and  C_24
REMARK   10  A    between atoms: N_27  and  C_28
REMARK   11  A    between atoms: C_32  and  N_34
REMARK                            x       y       z     vdW  Elec       q    Type
REMARK                         _______ _______ _______ _____ _____    ______ ____
ROOT
ATOM      1  C   UNL     1      -1.669   1.026  -6.029  0.00  0.00    +0.084 A 
ATOM      2  C   UNL     1      -1.408   0.843  -7.380  0.00  0.00    +0.069 A 
ATOM      3  C   UNL     1      -2.343   1.421  -8.330  0.00  0.00    -0.023 A 
ATOM      4  C   UNL     1      -3.377   2.096  -7.781  0.00  0.00    -0.004 A 
ATOM      5  S   UNL     1      -3.127   1.964  -6.033  0.00  0.00    -0.077 S 
ATOM      6  C   UNL     1      -4.484   2.797  -8.505  0.00  0.00    +0.046 C 
ATOM      7  C   UNL     1      -4.074   2.959  -9.976  0.00  0.00    -0.000 C 
ATOM      8  C   UNL     1      -3.547   1.616 -10.492  0.00  0.00    +0.009 C 
ATOM      9  C   UNL     1      -2.198   1.302  -9.842  0.00  0.00    +0.037 C 
ENDROOT
BRANCH   1  12
ATOM     10  C   UNL     1      -1.349   0.858  -3.689  0.00  0.00    +0.201 C 
ATOM     11  O   UNL     1      -2.357   1.509  -3.514  0.00  0.00    -0.278 OA
ATOM     12  N   UNL     1      -0.939   0.574  -4.941  0.00  0.00    -0.281 N 
ATOM     13  H   UNL     1      -0.132   0.053  -5.081  0.00  0.00    +0.155 HD
BRANCH  10  14
ATOM     14  C   UNL     1      -0.554   0.367  -2.506  0.00  0.00    +0.019 C 
BRANCH  14  21
ATOM     15  C   UNL     1      -2.224   2.415   2.562  0.00  0.00    +0.007 C 
ATOM     16  C   UNL     1      -1.382   2.039   1.341  0.00  0.00    -0.018 C 
ATOM     17  C   UNL     1      -1.393   0.518   1.161  0.00  0.00    -0.016 C 
ATOM     18  C   UNL     1      -0.600   0.152  -0.096  0.00  0.00    -0.078 C 
ATOM     19  C   UNL     1      -1.163   2.267  -1.136  0.00  0.00    -0.078 C 
ATOM     20  C   UNL     1      -1.972   2.696   0.090  0.00  0.00    -0.016 C 
ATOM     21  N   UNL     1      -1.233   0.796  -1.266  0.00  0.00    +0.385 N 
ATOM     22  H   UNL     1      -2.219   0.512  -1.310  0.00  0.00    -0.081 HD
ENDBRANCH  14  21
ENDBRANCH  10  14
ENDBRANCH   1  12
BRANCH   7  23
ATOM     23  C   UNL     1      -5.288   3.385 -10.803  0.00  0.00    -0.035 C 
ATOM     24  C   UNL     1      -5.822   4.718 -10.275  0.00  0.00    +0.011 C 
ATOM     25  C   UNL     1      -4.876   3.545 -12.268  0.00  0.00    +0.011 C 
ATOM     26  C   UNL     1      -6.380   2.319 -10.694  0.00  0.00    +0.011 C 
ENDBRANCH   7  23
BRANCH   2  27
ATOM     27  C   UNL     1      -0.234   0.090  -7.832  0.00  0.00    +0.251 C 
ATOM     28  O   UNL     1      -0.313  -1.112  -8.008  0.00  0.00    -0.270 OA
ATOM     29  N   UNL     1       0.933   0.728  -8.051  0.00  0.00    -0.281 N 
ATOM     30  H   UNL     1       0.976   1.695  -7.985  0.00  0.00    +0.155 HD
BRANCH  29  31
ATOM     31  C   UNL     1       2.080  -0.003  -8.375  0.00  0.00    +0.036 A 
ATOM     32  C   UNL     1       3.031   0.537  -9.230  0.00  0.00    +0.023 A 
ATOM     33  C   UNL     1       4.163  -0.187  -9.548  0.00  0.00    +0.004 A 
ATOM     34  C   UNL     1       4.350  -1.450  -9.014  0.00  0.00    +0.033 A 
ATOM     35  C   UNL     1       3.405  -1.990  -8.162  0.00  0.00    +0.128 A 
ATOM     36  C   UNL     1       2.273  -1.269  -7.837  0.00  0.00    +0.056 A 
BRANCH  35  37
ATOM     37  N   UNL     1       3.609  -3.342  -7.594  0.00  0.00    +0.056 N 
ATOM     38  O   UNL     1       4.609  -3.977  -7.877  0.00  0.00    -0.126 OA
ATOM     39  O   UNL     1       2.777  -3.819  -6.843  0.00  0.00    -0.126 OA
ENDBRANCH  35  37
ENDBRANCH  29  31
ENDBRANCH   2  27
TORSDOF 7
