REMARK  Name = ZINC40738663
REMARK  6 active torsions:
REMARK  status: ('A' for Active; 'I' for Inactive)
REMARK    1  A    between atoms: C_3  and  C_17
REMARK    2  A    between atoms: C_5  and  O_7
REMARK    3  A    between atoms: O_7  and  C_8
REMARK    4  A    between atoms: C_8  and  C_9
REMARK    5  A    between atoms: C_17  and  N_18
REMARK    6  A    between atoms: N_18  and  C_19
REMARK                            x       y       z     vdW  Elec       q    Type
REMARK                         _______ _______ _______ _____ _____    ______ ____
ROOT
ATOM      1  C   UNL     1      -0.017   1.377   0.010  0.00  0.00    +0.004 A 
ATOM      2  C   UNL     1       1.171   2.086   0.002  0.00  0.00    +0.002 A 
ATOM      3  C   UNL     1       2.379   1.415  -0.013  0.00  0.00    -0.061 A 
ATOM      4  C   UNL     1       2.403   0.033  -0.021  0.00  0.00    +0.047 A 
ATOM      5  C   UNL     1       1.214  -0.680  -0.013  0.00  0.00    +0.121 A 
ATOM      6  C   UNL     1       0.002  -0.004   0.002  0.00  0.00    +0.045 A 
ENDROOT
BRANCH   5   7
ATOM      7  O   UNL     1       1.235  -2.039  -0.021  0.00  0.00    -0.487 OA
BRANCH   7   8
ATOM      8  C   UNL     1      -0.028  -2.708  -0.013  0.00  0.00    +0.268 C 
BRANCH   8   9
ATOM      9  C   UNL     1       0.192  -4.198  -0.024  0.00  0.00    +0.043 A 
ATOM     10  C   UNL     1       0.288  -4.876  -1.227  0.00  0.00    +0.131 A 
ATOM     11  C   UNL     1       0.490  -6.245  -1.236  0.00  0.00    +0.039 A 
ATOM     12  C   UNL     1       0.597  -6.936  -0.043  0.00  0.00    +0.004 A 
ATOM     13  C   UNL     1       0.502  -6.259   1.159  0.00  0.00    +0.020 A 
ATOM     14  C   UNL     1       0.305  -4.889   1.169  0.00  0.00    +0.050 A 
ATOM     15 CL   UNL     1       0.193  -4.040   2.679  0.00  0.00    -0.083 Cl
ATOM     16  F   UNL     1       0.183  -4.201  -2.393  0.00  0.00    -0.205 F 
ENDBRANCH   8   9
ENDBRANCH   7   8
ENDBRANCH   5   7
BRANCH   3  17
ATOM     17  C   UNL     1       3.671   2.190  -0.021  0.00  0.00    -0.046 C 
BRANCH  17  18
ATOM     18  N   UNL     1       4.104   2.435   1.361  0.00  0.00    +0.385 N 
ATOM     19  H   UNL     1       3.396   2.965   1.846  0.00  0.00    -0.085 HD
ATOM     20  H   UNL     1       4.244   1.553   1.831  0.00  0.00    -0.085 HD
BRANCH  18  21
ATOM     21  C   UNL     1       5.364   3.191   1.353  0.00  0.00    -0.067 C 
ATOM     22  C   UNL     1       5.151   4.528   0.641  0.00  0.00    -0.009 C 
ATOM     23  C   UNL     1       6.463   5.316   0.633  0.00  0.00    -0.012 C 
ATOM     24  C   UNL     1       6.914   5.570   2.072  0.00  0.00    +0.007 C 
ATOM     25  C   UNL     1       7.127   4.233   2.784  0.00  0.00    -0.012 C 
ATOM     26  C   UNL     1       5.815   3.446   2.793  0.00  0.00    -0.009 C 
ATOM     27  C   UNL     1       8.200   3.428   2.049  0.00  0.00    +0.007 C 
ATOM     28  C   UNL     1       7.749   3.174   0.609  0.00  0.00    -0.012 C 
ATOM     29  C   UNL     1       7.536   4.511  -0.103  0.00  0.00    +0.007 C 
ATOM     30  C   UNL     1       6.437   2.386   0.617  0.00  0.00    -0.009 C 
ENDBRANCH  18  21
ENDBRANCH  17  18
ENDBRANCH   3  17
TORSDOF 6
