REMARK  Name = ZINC45128620
REMARK  8 active torsions:
REMARK  status: ('A' for Active; 'I' for Inactive)
REMARK    1  A    between atoms: C_1  and  C_2
REMARK    2  A    between atoms: C_2  and  C_3
REMARK    3  A    between atoms: C_2  and  C_4
REMARK    4  A    between atoms: C_4  and  C_5
REMARK    5  A    between atoms: C_5  and  C_7
REMARK    6  A    between atoms: C_5  and  N_17
REMARK    7  A    between atoms: N_20  and  N_21
REMARK    8  A    between atoms: C_22  and  C_24
REMARK                            x       y       z     vdW  Elec       q    Type
REMARK                         _______ _______ _______ _____ _____    ______ ____
ROOT
ATOM      1  N   UNL     1      -0.876  -2.426  -1.433  0.00  0.00    -0.288 N 
ATOM      2  C   UNL     1       0.456  -2.525  -1.610  0.00  0.00    +0.317 C 
ATOM      3  O   UNL     1       1.210  -2.307  -0.682  0.00  0.00    -0.251 OA
ATOM      4  N   UNL     1       0.952  -2.864  -2.816  0.00  0.00    -0.218 N 
ATOM      5  H   UNL     1      -1.478  -2.600  -2.173  0.00  0.00    +0.151 HD
ATOM      6  H   UNL     1       1.911  -2.934  -2.944  0.00  0.00    +0.174 HD
ENDROOT
BRANCH   4   7
ATOM      7  N   UNL     1       0.083  -3.114  -3.886  0.00  0.00    -0.229 N 
ATOM      8  C   UNL     1       0.579  -3.453  -5.092  0.00  0.00    +0.260 C 
ATOM      9  O   UNL     1       1.780  -3.542  -5.252  0.00  0.00    -0.269 OA
ATOM     10  H   UNL     1      -0.876  -3.043  -3.758  0.00  0.00    +0.173 HD
BRANCH   8  11
ATOM     11  C   UNL     1      -0.339  -3.717  -6.221  0.00  0.00    +0.038 A 
ATOM     12  C   UNL     1      -1.719  -3.611  -6.042  0.00  0.00    +0.013 A 
ATOM     13  C   UNL     1      -2.570  -3.859  -7.100  0.00  0.00    +0.001 A 
ATOM     14  C   UNL     1      -2.057  -4.212  -8.336  0.00  0.00    +0.000 A 
ATOM     15  C   UNL     1      -0.690  -4.319  -8.520  0.00  0.00    +0.001 A 
ATOM     16  C   UNL     1       0.172  -4.069  -7.472  0.00  0.00    +0.013 A 
ENDBRANCH   8  11
ENDBRANCH   4   7
BRANCH   1  17
ATOM     17  C   UNL     1      -1.416  -2.058  -0.121  0.00  0.00    +0.141 C 
BRANCH  17  18
ATOM     18  C   UNL     1      -2.819  -2.590   0.013  0.00  0.00    +0.129 A 
ATOM     19  N   UNL     1      -3.440  -3.387  -0.898  0.00  0.00    -0.340 N 
ATOM     20  H   UNL     1      -3.064  -3.708  -1.733  0.00  0.00    +0.167 HD
ATOM     21  C   UNL     1      -4.705  -3.656  -0.413  0.00  0.00    +0.066 A 
ATOM     22  C   UNL     1      -5.782  -4.396  -0.881  0.00  0.00    +0.028 A 
ATOM     23  C   UNL     1      -6.939  -4.465  -0.134  0.00  0.00    +0.002 A 
ATOM     24  C   UNL     1      -7.032  -3.801   1.081  0.00  0.00    +0.002 A 
ATOM     25  C   UNL     1      -5.982  -3.069   1.557  0.00  0.00    +0.030 A 
ATOM     26  C   UNL     1      -4.800  -2.984   0.817  0.00  0.00    +0.089 A 
ATOM     27  N   UNL     1      -3.611  -2.358   1.018  0.00  0.00    -0.231 NA
ENDBRANCH  17  18
BRANCH  17  28
ATOM     28  C   UNL     1      -1.433  -0.534   0.013  0.00  0.00    +0.033 C 
BRANCH  28  30
ATOM     29  C   UNL     1      -0.019   1.526   0.010  0.00  0.00    +0.007 C 
ATOM     30  C   UNL     1       0.002  -0.004   0.002  0.00  0.00    -0.015 C 
ATOM     31  C   UNL     1       0.742  -0.511   1.242  0.00  0.00    +0.007 C 
ENDBRANCH  28  30
ENDBRANCH  17  28
ENDBRANCH   1  17
TORSDOF 6
