REMARK  Name = ZINC63625518
REMARK  10 active torsions:
REMARK  status: ('A' for Active; 'I' for Inactive)
REMARK    1  A    between atoms: C_1  and  C_2
REMARK    2  A    between atoms: C_2  and  O_3
REMARK    3  A    between atoms: O_3  and  C_4
REMARK    4  A    between atoms: C_4  and  C_6
REMARK    5  A    between atoms: C_7  and  C_38
REMARK    6  A    between atoms: C_9  and  C_13
REMARK    7  A    between atoms: C_10  and  C_12
REMARK    8  A    between atoms: C_18  and  C_21
REMARK    9  A    between atoms: C_21  and  C_23
REMARK   10  A    between atoms: C_21  and  C_24
REMARK                            x       y       z     vdW  Elec       q    Type
REMARK                         _______ _______ _______ _____ _____    ______ ____
ROOT
ATOM      1  C   UNL     1       3.405  -2.131  -6.992  0.00  0.00    +0.261 C 
ATOM      2  O   UNL     1       2.873  -2.046  -5.903  0.00  0.00    -0.269 OA
ATOM      3  N   UNL     1       3.728  -3.341  -7.492  0.00  0.00    -0.297 N 
ATOM      4  C   UNL     1       3.302  -4.570  -6.809  0.00  0.00    +0.108 C 
ATOM      5  C   UNL     1       4.533  -5.449  -6.564  0.00  0.00    +0.023 C 
ATOM      6  C   UNL     1       5.259  -5.685  -7.890  0.00  0.00    +0.004 C 
ATOM      7  C   UNL     1       5.728  -4.346  -8.462  0.00  0.00    +0.023 C 
ATOM      8  C   UNL     1       4.506  -3.455  -8.732  0.00  0.00    +0.108 C 
ENDROOT
BRANCH   1  12
ATOM      9  C   UNL     1       3.978   1.325  -8.514  0.00  0.00    +0.066 C 
ATOM     10  C   UNL     1       4.327   0.396  -9.436  0.00  0.00    +0.049 C 
ATOM     11  N   UNL     1       4.158  -0.849  -8.985  0.00  0.00    -0.250 NA
ATOM     12  C   UNL     1       3.698  -0.908  -7.769  0.00  0.00    +0.111 C 
ATOM     13  C   UNL     1       3.528   0.525  -7.305  0.00  0.00    +0.078 C 
ATOM     14  C   UNL     1       4.424   0.817  -6.099  0.00  0.00    +0.019 C 
ATOM     15  C   UNL     1       4.846   0.729 -10.811  0.00  0.00    +0.066 C 
BRANCH   9  16
ATOM     16  C   UNL     1       4.029   2.783  -8.653  0.00  0.00    +0.338 C 
ATOM     17  O   UNL     1       4.415   3.282  -9.692  0.00  0.00    -0.245 OA
BRANCH  16  18
ATOM     18  O   UNL     1       3.647   3.572  -7.627  0.00  0.00    -0.462 OA
BRANCH  18  20
ATOM     19  C   UNL     1       3.252   5.708  -6.568  0.00  0.00    +0.048 C 
ATOM     20  C   UNL     1       3.722   4.984  -7.831  0.00  0.00    +0.229 C 
ENDBRANCH  18  20
ENDBRANCH  16  18
ENDBRANCH   9  16
ENDBRANCH   1  12
BRANCH   6  21
ATOM     21  C   UNL     1       6.469  -6.591  -7.654  0.00  0.00    +0.075 C 
ATOM     22  C   UNL     1       6.000  -7.931  -7.083  0.00  0.00    +0.017 C 
BRANCH  21  23
ATOM     23  C   UNL     1       7.184  -6.824  -8.960  0.00  0.00    +0.219 C 
ATOM     24  O   UNL     1       6.561  -6.823 -10.001  0.00  0.00    -0.275 OA
ATOM     25  N   UNL     1       8.515  -7.033  -8.972  0.00  0.00    -0.298 N 
ATOM     26  C   UNL     1       9.267  -7.140  -7.713  0.00  0.00    +0.126 C 
ATOM     27  C   UNL     1      10.032  -8.469  -7.710  0.00  0.00    +0.125 C 
ATOM     28  N   UNL     1      10.759  -8.595  -8.981  0.00  0.00    -0.314 N 
ATOM     29  C   UNL     1      10.008  -8.488 -10.240  0.00  0.00    +0.125 C 
ATOM     30  C   UNL     1       9.241  -7.165 -10.243  0.00  0.00    +0.126 C 
ATOM     31  C   UNL     1      12.132  -8.811  -8.993  0.00  0.00    +0.099 A 
ATOM     32  C   UNL     1      12.790  -9.130  -7.809  0.00  0.00    +0.042 A 
ATOM     33  C   UNL     1      14.156  -9.342  -7.835  0.00  0.00    +0.005 A 
ATOM     34  C   UNL     1      14.822  -9.227  -9.049  0.00  0.00    +0.018 A 
ATOM     35  C   UNL     1      14.106  -8.908 -10.185  0.00  0.00    +0.084 A 
ATOM     36  N   UNL     1      12.801  -8.716 -10.131  0.00  0.00    -0.350 N 
ATOM     37  H   UNL     1      12.322  -8.496 -10.945  0.00  0.00    +0.166 HD
ENDBRANCH  21  23
ENDBRANCH   6  21
TORSDOF 6
