REMARK  Name = ZINC35175090
REMARK  8 active torsions:
REMARK  status: ('A' for Active; 'I' for Inactive)
REMARK    1  A    between atoms: C_1  and  C_2
REMARK    2  A    between atoms: C_9  and  C_18
REMARK    3  A    between atoms: C_10  and  N_11
REMARK    4  A    between atoms: N_11  and  C_12
REMARK    5  A    between atoms: C_23  and  O_24
REMARK    6  A    between atoms: O_24  and  C_25
REMARK    7  A    between atoms: C_25  and  C_27
REMARK    8  A    between atoms: C_27  and  C_28
REMARK                            x       y       z     vdW  Elec       q    Type
REMARK                         _______ _______ _______ _____ _____    ______ ____
ROOT
ATOM      1  C   UNL     1       0.474   1.859   0.423  0.00  0.00    +0.044 C 
ATOM      2  C   UNL     1       0.376   0.356   0.362  0.00  0.00    -0.046 A 
ATOM      3  C   UNL     1       0.058  -0.280  -0.851  0.00  0.00    +0.021 A 
ATOM      4  C   UNL     1      -0.032  -1.624  -0.912  0.00  0.00    +0.094 A 
ATOM      5  N   UNL     1       0.185  -2.388   0.203  0.00  0.00    -0.289 N 
ATOM      6  C   UNL     1       0.499  -1.793   1.404  0.00  0.00    +0.117 A 
ATOM      7  C   UNL     1       0.600  -0.388   1.477  0.00  0.00    +0.048 A 
ATOM      8  N   UNL     1       0.657  -2.740   2.315  0.00  0.00    -0.338 N 
ATOM      9  C   UNL     1       0.456  -3.942   1.745  0.00  0.00    +0.090 A 
ATOM     10  C   UNL     1       0.158  -3.739   0.414  0.00  0.00    +0.129 A 
ATOM     11  H   UNL     1       0.883  -2.590   3.246  0.00  0.00    +0.167 HD
ENDROOT
BRANCH   9  12
ATOM     12  C   UNL     1       0.541  -5.254   2.428  0.00  0.00    +0.044 A 
ATOM     13  C   UNL     1      -0.369  -5.582   3.431  0.00  0.00    +0.014 A 
ATOM     14  C   UNL     1      -0.286  -6.806   4.063  0.00  0.00    +0.001 A 
ATOM     15  C   UNL     1       0.699  -7.709   3.705  0.00  0.00    +0.004 A 
ATOM     16  C   UNL     1       1.608  -7.394   2.712  0.00  0.00    +0.047 A 
ATOM     17  C   UNL     1       1.532  -6.172   2.064  0.00  0.00    +0.141 A 
BRANCH  17  18
ATOM     18  O   UNL     1       2.421  -5.864   1.084  0.00  0.00    -0.425 OA
BRANCH  18  19
ATOM     19  C   UNL     1       3.480  -5.105   1.408  0.00  0.00    +0.317 C 
ATOM     20  O   UNL     1       3.573  -4.641   2.520  0.00  0.00    -0.250 OA
BRANCH  19  21
ATOM     21  C   UNL     1       4.553  -4.831   0.386  0.00  0.00    +0.163 C 
BRANCH  21  22
ATOM     22  C   UNL     1       5.620  -3.961   0.998  0.00  0.00    +0.000 A 
ATOM     23  C   UNL     1       6.747  -4.329   1.655  0.00  0.00    +0.012 A 
ATOM     24  C   UNL     1       7.592  -3.346   2.137  0.00  0.00    +0.008 A 
ATOM     25  C   UNL     1       7.269  -2.045   1.938  0.00  0.00    +0.045 A 
ATOM     26  S   UNL     1       5.732  -2.180   1.039  0.00  0.00    -0.101 S 
ENDBRANCH  21  22
ENDBRANCH  19  21
ENDBRANCH  18  19
ENDBRANCH  17  18
ENDBRANCH   9  12
BRANCH  10  27
ATOM     27  N   UNL     1      -0.120  -4.723  -0.536  0.00  0.00    -0.326 N 
ATOM     28  H   UNL     1      -0.133  -5.658  -0.276  0.00  0.00    +0.148 HD
BRANCH  27  29
ATOM     29  C   UNL     1      -0.393  -4.345  -1.925  0.00  0.00    +0.072 C 
ATOM     30  C   UNL     1      -1.835  -3.851  -2.045  0.00  0.00    +0.022 C 
ATOM     31  C   UNL     1      -2.120  -3.456  -3.496  0.00  0.00    +0.002 C 
ATOM     32  C   UNL     1      -1.919  -4.671  -4.404  0.00  0.00    +0.000 C 
ATOM     33  C   UNL     1      -0.476  -5.165  -4.284  0.00  0.00    +0.002 C 
ATOM     34  C   UNL     1      -0.192  -5.560  -2.833  0.00  0.00    +0.022 C 
ENDBRANCH  27  29
ENDBRANCH  10  27
TORSDOF 7
