REMARK  Name = ZINC11968800
REMARK  8 active torsions:
REMARK  status: ('A' for Active; 'I' for Inactive)
REMARK    1  A    between atoms: C_1  and  C_2
REMARK    2  A    between atoms: C_2  and  C_3
REMARK    3  A    between atoms: C_2  and  C_4
REMARK    4  A    between atoms: C_2  and  N_51
REMARK    5  A    between atoms: C_4  and  O_5
REMARK    6  A    between atoms: C_6  and  N_51
REMARK    7  A    between atoms: N_17  and  C_20
REMARK    8  A    between atoms: C_20  and  C_21
REMARK                            x       y       z     vdW  Elec       q    Type
REMARK                         _______ _______ _______ _____ _____    ______ ____
ROOT
ATOM      1  C   UNL     1      -0.625   1.600   3.545  0.00  0.00    -0.066 C 
ATOM      2  C   UNL     1       0.422   1.786   4.646  0.00  0.00    -0.011 C 
ATOM      3  C   UNL     1      -0.196   2.530   5.830  0.00  0.00    +0.035 C 
ATOM      4  C   UNL     1      -1.472   1.809   6.256  0.00  0.00    -0.023 A 
ATOM      5  C   UNL     1      -2.089   0.948   5.413  0.00  0.00    -0.006 A 
ATOM      6  S   UNL     1      -3.502   0.354   6.308  0.00  0.00    -0.073 S 
ATOM      7  C   UNL     1      -3.265   1.260   7.804  0.00  0.00    +0.116 A 
ATOM      8  C   UNL     1      -2.086   1.998   7.558  0.00  0.00    +0.076 A 
ATOM      9  C   UNL     1      -1.621   2.854   8.612  0.00  0.00    +0.263 A 
ATOM     10  O   UNL     1      -0.615   3.534   8.499  0.00  0.00    -0.267 OA
ATOM     11  N   UNL     1      -2.372   2.859   9.739  0.00  0.00    -0.294 N 
ATOM     12  C   UNL     1      -3.493   2.112   9.884  0.00  0.00    +0.203 A 
ATOM     13  N   UNL     1      -3.950   1.316   8.942  0.00  0.00    -0.230 NA
ATOM     14  C   UNL     1      -1.666   0.578   4.025  0.00  0.00    +0.027 C 
ENDROOT
BRANCH   1  15
ATOM     15  N   UNL     1       0.032   1.096   2.324  0.00  0.00    +0.386 N 
ATOM     16  H   UNL     1       1.050   1.142   2.444  0.00  0.00    -0.085 HD
ATOM     17  H   UNL     1      -0.250   0.121   2.165  0.00  0.00    -0.085 HD
BRANCH  15  19
ATOM     18  C   UNL     1      -1.883   1.927   1.028  0.00  0.00    -0.008 C 
ATOM     19  C   UNL     1      -0.358   1.912   1.159  0.00  0.00    -0.050 C 
ATOM     20  C   UNL     1       0.256   1.307  -0.105  0.00  0.00    -0.008 C 
BRANCH  19  21
ATOM     21  C   UNL     1       0.152   3.343   1.339  0.00  0.00    +0.143 C 
BRANCH  21  22
ATOM     22  O   UNL     1      -0.223   4.129   0.206  0.00  0.00    -0.396 OA
ATOM     23  H   UNL     1       0.069   5.050   0.253  0.00  0.00    +0.209 HD
ENDBRANCH  21  22
ENDBRANCH  19  21
ENDBRANCH  15  19
ENDBRANCH   1  15
BRANCH  11  24
ATOM     24  C   UNL     1      -1.952   3.712  10.854  0.00  0.00    +0.161 C 
BRANCH  24  25
ATOM     25  C   UNL     1      -2.587   5.072  10.712  0.00  0.00    -0.026 A 
ATOM     26  C   UNL     1      -1.935   6.070  10.013  0.00  0.00    +0.005 A 
ATOM     27  C   UNL     1      -2.519   7.316   9.879  0.00  0.00    +0.002 A 
ATOM     28  C   UNL     1      -3.751   7.567  10.453  0.00  0.00    +0.020 A 
ATOM     29  C   UNL     1      -4.402   6.570  11.158  0.00  0.00    +0.041 A 
ATOM     30  C   UNL     1      -3.819   5.322  11.287  0.00  0.00    +0.025 A 
ATOM     31 CL   UNL     1      -5.949   6.886  11.880  0.00  0.00    -0.084 Cl
ENDBRANCH  24  25
ENDBRANCH  11  24
TORSDOF 6
