REMARK  Name = ZINC20690184
REMARK  7 active torsions:
REMARK  status: ('A' for Active; 'I' for Inactive)
REMARK    1  A    between atoms: C_1  and  O_2
REMARK    2  A    between atoms: O_2  and  C_3
REMARK    3  A    between atoms: C_6  and  C_10
REMARK    4  A    between atoms: C_8  and  O_9
REMARK    5  A    between atoms: C_20  and  N_28
REMARK    6  A    between atoms: C_23  and  O_26
REMARK    7  A    between atoms: O_26  and  C_27
REMARK                            x       y       z     vdW  Elec       q    Type
REMARK                         _______ _______ _______ _____ _____    ______ ____
ROOT
ATOM      1  C   UNL     1       1.695   3.994   0.513  0.00  0.00    +0.105 C 
ATOM      2  C   UNL     1       1.476   4.367  -0.939  0.00  0.00    +0.029 C 
ATOM      3  C   UNL     1       2.653   4.208  -1.908  0.00  0.00    +0.033 C 
ATOM      4  C   UNL     1       2.352   5.303  -2.934  0.00  0.00    -0.030 C 
ATOM      5  C   UNL     1       1.631   6.267  -2.370  0.00  0.00    -0.023 C 
ATOM      6  C   UNL     1       1.425   5.926  -0.941  0.00  0.00    +0.051 C 
ATOM      7  C   UNL     1       0.206   6.313  -0.197  0.00  0.00    +0.014 A 
ATOM      8  C   UNL     1      -0.508   7.450  -0.517  0.00  0.00    +0.132 A 
ATOM      9  C   UNL     1      -1.622   7.810   0.217  0.00  0.00    +0.037 A 
ATOM     10  C   UNL     1      -2.025   7.023   1.281  0.00  0.00    +0.050 A 
ATOM     11  C   UNL     1      -1.322   5.879   1.603  0.00  0.00    +0.141 A 
ATOM     12  C   UNL     1      -0.195   5.499   0.863  0.00  0.00    +0.076 A 
ATOM     13  N   UNL     1       0.456   4.321   1.235  0.00  0.00    -0.334 N 
ATOM     14  H   UNL     1       0.085   3.651   2.025  0.00  0.00    +0.147 HD
ENDROOT
BRANCH   1  18
ATOM     15  C   UNL     1       2.502  -0.194   0.834  0.00  0.00    +0.161 A 
ATOM     16  C   UNL     1       1.204   0.252   0.646  0.00  0.00    +0.050 A 
ATOM     17  C   UNL     1       0.946   1.606   0.542  0.00  0.00    +0.009 A 
ATOM     18  C   UNL     1       1.982   2.518   0.627  0.00  0.00    -0.023 A 
ATOM     19  C   UNL     1       3.279   2.080   0.815  0.00  0.00    +0.054 A 
ATOM     20  C   UNL     1       3.544   0.724   0.919  0.00  0.00    +0.159 A 
BRANCH  15  22
ATOM     21  C   UNL     1       1.639  -2.410   0.841  0.00  0.00    +0.277 C 
ATOM     22  O   UNL     1       2.757  -1.526   0.937  0.00  0.00    -0.491 OA
ENDBRANCH  15  22
BRANCH  20  23
ATOM     23  O   UNL     1       4.820   0.292   1.104  0.00  0.00    -0.503 OA
ATOM     24  H   UNL     1       5.643   1.019   1.171  0.00  0.00    +0.292 HD
ENDBRANCH  20  23
ENDBRANCH   1  18
BRANCH   8  25
ATOM     25  N   UNL     1      -0.077   8.291  -1.656  0.00  0.00    +0.057 N 
ATOM     26  O   UNL     1       1.077   8.674  -1.728  0.00  0.00    -0.126 OA
ATOM     27  O   UNL     1      -0.877   8.601  -2.521  0.00  0.00    -0.126 OA
ENDBRANCH   8  25
BRANCH  11  28
ATOM     28  O   UNL     1      -1.729   5.111   2.650  0.00  0.00    -0.493 OA
ATOM     29  C   UNL     1      -2.885   5.551   3.365  0.00  0.00    +0.277 C 
ENDBRANCH  11  28
TORSDOF 5
