REMARK  Name = ZINC19333449
REMARK  6 active torsions:
REMARK  status: ('A' for Active; 'I' for Inactive)
REMARK    1  A    between atoms: C_1  and  C_2
REMARK    2  A    between atoms: C_2  and  C_28
REMARK    3  A    between atoms: C_6  and  C_16
REMARK    4  A    between atoms: C_13  and  O_15
REMARK    5  A    between atoms: C_23  and  S_25
REMARK    6  A    between atoms: S_25  and  C_26
REMARK                            x       y       z     vdW  Elec       q    Type
REMARK                         _______ _______ _______ _____ _____    ______ ____
ROOT
ATOM      1  C   UNL     1      -5.072   1.214  -3.650  0.00  0.00    +0.027 C 
ATOM      2  C   UNL     1      -3.825   0.507  -3.087  0.00  0.00    +0.013 C 
ATOM      3  C   UNL     1      -2.966   1.545  -2.369  0.00  0.00    +0.014 C 
ATOM      4  C   UNL     1      -2.150   0.924  -1.241  0.00  0.00    -0.029 C 
ATOM      5  C   UNL     1      -0.762   1.599  -1.228  0.00  0.00    +0.042 C 
ATOM      6  C   UNL     1      -0.013   1.086   0.008  0.00  0.00    +0.203 C 
ATOM      7  O   UNL     1      -0.691   1.551   1.173  0.00  0.00    -0.484 OA
ATOM      8  C   UNL     1      -2.046   1.502   1.208  0.00  0.00    +0.127 A 
ATOM      9  C   UNL     1      -2.807   1.206   0.088  0.00  0.00    -0.016 A 
ATOM     10  C   UNL     1      -4.187   1.178   0.183  0.00  0.00    +0.009 A 
ATOM     11  C   UNL     1      -4.813   1.439   1.387  0.00  0.00    +0.046 A 
ATOM     12  C   UNL     1      -4.056   1.732   2.511  0.00  0.00    +0.120 A 
ATOM     13  C   UNL     1      -2.675   1.765   2.421  0.00  0.00    +0.091 A 
ATOM     14  N   UNL     1      -1.956  -0.506  -1.433  0.00  0.00    +0.410 N 
ATOM     15  C   UNL     1      -3.177  -1.296  -1.543  0.00  0.00    +0.086 C 
ATOM     16  N   UNL     1      -4.259  -0.537  -2.165  0.00  0.00    -0.304 NA
ATOM     17  I   UNL     1      -3.799  -1.931   0.433  0.00  0.00    -0.071 I 
ATOM     18  C   UNL     1      -3.049  -0.086  -4.265  0.00  0.00    +0.027 C 
ATOM     19  H   UNL     1      -1.391  -0.678  -2.360  0.00  0.00    -0.079 HD
ATOM     20  H   UNL     1      -4.840  -0.086  -1.347  0.00  0.00    +0.123 HD
ATOM     21  H   UNL     1      -1.397  -0.917  -0.580  0.00  0.00    -0.079 HD
ENDROOT
BRANCH   6  22
ATOM     22  C   UNL     1       1.400   1.610  -0.003  0.00  0.00    -0.007 A 
ATOM     23  C   UNL     1       1.675   2.867   0.502  0.00  0.00    +0.007 A 
ATOM     24  C   UNL     1       2.972   3.346   0.497  0.00  0.00    +0.000 A 
ATOM     25  C   UNL     1       3.993   2.571  -0.023  0.00  0.00    +0.000 A 
ATOM     26  C   UNL     1       3.717   1.316  -0.533  0.00  0.00    +0.000 A 
ATOM     27  C   UNL     1       2.421   0.836  -0.522  0.00  0.00    +0.007 A 
ENDBRANCH   6  22
BRANCH  12  28
ATOM     28  O   UNL     1      -4.668   1.986   3.698  0.00  0.00    -0.507 OA
ATOM     29  H   UNL     1      -4.065   2.218   4.588  0.00  0.00    +0.292 HD
ENDBRANCH  12  28
BRANCH  15  30
ATOM     30  S   UNL     1      -2.837  -2.778  -2.545  0.00  0.00    -0.151 S 
ATOM     31  C   UNL     1      -4.408  -3.685  -2.534  0.00  0.00    +0.085 C 
ENDBRANCH  15  30
TORSDOF 3
