REMARK  Name = ZINC00418005
REMARK  9 active torsions:
REMARK  status: ('A' for Active; 'I' for Inactive)
REMARK    1  A    between atoms: C_1  and  C_2
REMARK    2  A    between atoms: C_4  and  C_22
REMARK    3  A    between atoms: C_5  and  C_21
REMARK    4  A    between atoms: C_6  and  C_9
REMARK    5  A    between atoms: C_7  and  C_8
REMARK    6  A    between atoms: C_9  and  C_11
REMARK    7  A    between atoms: C_11  and  S_12
REMARK    8  A    between atoms: S_12  and  C_13
REMARK    9  A    between atoms: C_17  and  N_19
REMARK                            x       y       z     vdW  Elec       q    Type
REMARK                         _______ _______ _______ _____ _____    ______ ____
ROOT
ATOM      1  C   UNL     1       0.734   1.136  -1.346  0.00  0.00    +0.157 C 
ENDROOT
BRANCH   1   2
ATOM      2  C   UNL     1       0.092   1.436  -0.016  0.00  0.00    +0.174 C 
ATOM      3  O   UNL     1       0.678   1.175   1.012  0.00  0.00    -0.291 OA
BRANCH   2   9
ATOM      4  C   UNL     1      -2.821   5.483  -0.088  0.00  0.00    +0.044 C 
ATOM      5  C   UNL     1      -2.658   3.987  -0.000  0.00  0.00    -0.047 A 
ATOM      6  C   UNL     1      -3.773   3.178   0.130  0.00  0.00    +0.007 A 
ATOM      7  C   UNL     1      -3.634   1.803   0.212  0.00  0.00    -0.047 A 
ATOM      8  C   UNL     1      -2.381   1.230   0.165  0.00  0.00    -0.037 A 
ATOM      9  C   UNL     1      -1.249   2.040   0.034  0.00  0.00    +0.025 A 
ATOM     10  C   UNL     1      -1.398   3.429  -0.043  0.00  0.00    -0.037 A 
ATOM     11  C   UNL     1      -0.184   4.312  -0.178  0.00  0.00    +0.045 C 
ATOM     12  C   UNL     1      -2.232  -0.267   0.255  0.00  0.00    +0.045 C 
ATOM     13  C   UNL     1      -4.855   0.931   0.353  0.00  0.00    +0.044 C 
ENDBRANCH   2   9
ENDBRANCH   1   2
BRANCH   1  14
ATOM     14  S   UNL     1       2.420   0.536  -1.081  0.00  0.00    -0.078 S 
BRANCH  14  15
ATOM     15  C   UNL     1       2.917   0.272  -2.750  0.00  0.00    +0.192 A 
ATOM     16  N   UNL     1       2.060   0.529  -3.727  0.00  0.00    -0.207 NA
ATOM     17  C   UNL     1       2.403   0.347  -5.000  0.00  0.00    +0.122 A 
ATOM     18  C   UNL     1       3.676  -0.131  -5.298  0.00  0.00    +0.086 A 
ATOM     19  C   UNL     1       4.547  -0.395  -4.245  0.00  0.00    +0.122 A 
ATOM     20  N   UNL     1       4.137  -0.184  -2.996  0.00  0.00    -0.207 NA
ATOM     21  N   UNL     1       1.502   0.624  -6.017  0.00  0.00    -0.343 N 
ATOM     22  H   UNL     1       1.757   0.485  -6.942  0.00  0.00    +0.144 HD
ATOM     23  H   UNL     1       0.616   0.957  -5.803  0.00  0.00    +0.144 HD
BRANCH  19  24
ATOM     24  N   UNL     1       5.825  -0.872  -4.493  0.00  0.00    -0.343 N 
ATOM     25  H   UNL     1       6.427  -1.054  -3.754  0.00  0.00    +0.144 HD
ATOM     26  H   UNL     1       6.117  -1.024  -5.405  0.00  0.00    +0.144 HD
ENDBRANCH  19  24
ENDBRANCH  14  15
ENDBRANCH   1  14
TORSDOF 5
