REMARK  Name = ZINC48548094
REMARK  18 active torsions:
REMARK  status: ('A' for Active; 'I' for Inactive)
REMARK    1  A    between atoms: C_1  and  C_2
REMARK    2  A    between atoms: C_2  and  C_3
REMARK    3  A    between atoms: C_2  and  C_4
REMARK    4  A    between atoms: C_4  and  N_5
REMARK    5  A    between atoms: N_5  and  C_6
REMARK    6  A    between atoms: N_5  and  C_38
REMARK    7  A    between atoms: C_6  and  C_7
REMARK    8  A    between atoms: C_7  and  C_9
REMARK    9  A    between atoms: C_7  and  C_29
REMARK   10  A    between atoms: C_9  and  C_11
REMARK   11  A    between atoms: C_9  and  C_17
REMARK   12  A    between atoms: C_29  and  C_37
REMARK   13  A    between atoms: N_30  and  N_31
REMARK   14  A    between atoms: C_32  and  C_34
REMARK   15  A    between atoms: C_34  and  C_35
REMARK   16  A    between atoms: C_38  and  C_39
REMARK   17  A    between atoms: C_39  and  C_40
REMARK   18  A    between atoms: C_39  and  C_41
REMARK                            x       y       z     vdW  Elec       q    Type
REMARK                         _______ _______ _______ _____ _____    ______ ____
ROOT
ATOM      1  C   UNL     1      -0.294  -3.502   0.255  0.00  0.00    +0.030 C 
ENDROOT
BRANCH   1   2
ATOM      2  C   UNL     1       0.001  -4.516   1.330  0.00  0.00    +0.036 C 
ATOM      3  N   UNL     1       0.252  -4.129   2.524  0.00  0.00    -0.189 NA
ATOM      4  C   UNL     1       0.000  -5.987   0.999  0.00  0.00    +0.062 C 
BRANCH   3   5
ATOM      5  N   UNL     1       0.526  -5.072   3.523  0.00  0.00    -0.206 N 
ATOM      6  C   UNL     1       0.790  -4.664   4.780  0.00  0.00    +0.246 C 
ATOM      7  O   UNL     1       0.791  -3.480   5.046  0.00  0.00    -0.273 OA
ATOM      8  H   UNL     1       0.525  -6.018   3.310  0.00  0.00    +0.177 HD
BRANCH   6   9
ATOM      9  C   UNL     1       1.085  -5.678   5.855  0.00  0.00    +0.215 C 
BRANCH   9  10
ATOM     10  C   UNL     1       1.338  -4.984   7.128  0.00  0.00    +0.072 C 
ATOM     11  N   UNL     1       1.534  -4.448   8.111  0.00  0.00    -0.196 NA
ENDBRANCH   9  10
ENDBRANCH   6   9
ENDBRANCH   3   5
ENDBRANCH   1   2
BRANCH   1  12
ATOM     12  C   UNL     1      -0.353  -2.105   0.875  0.00  0.00    -0.069 C 
BRANCH  12  13
ATOM     13  N   UNL     1      -1.161  -1.224   0.020  0.00  0.00    +0.380 N 
ATOM     14  H   UNL     1      -0.963  -1.422  -0.949  0.00  0.00    -0.082 HD
BRANCH  13  15
ATOM     15  C   UNL     1      -0.830   0.178   0.311  0.00  0.00    -0.076 C 
BRANCH  15  17
ATOM     16  C   UNL     1       0.912   1.953   0.075  0.00  0.00    +0.005 C 
ATOM     17  C   UNL     1       0.545   0.509  -0.273  0.00  0.00    -0.034 C 
ATOM     18  C   UNL     1       1.591  -0.439   0.316  0.00  0.00    +0.005 C 
ENDBRANCH  15  17
ENDBRANCH  13  15
BRANCH  13  19
ATOM     19  C   UNL     1      -2.587  -1.456   0.286  0.00  0.00    -0.076 C 
BRANCH  19  20
ATOM     20  C   UNL     1      -2.880  -2.957   0.223  0.00  0.00    -0.034 C 
ATOM     21  C   UNL     1      -4.356  -3.202   0.542  0.00  0.00    +0.005 C 
ATOM     22  C   UNL     1      -2.567  -3.479  -1.181  0.00  0.00    +0.005 C 
ENDBRANCH  19  20
ENDBRANCH  13  19
ENDBRANCH  12  13
ENDBRANCH   1  12
BRANCH   1  23
ATOM     23  C   UNL     1       0.810  -3.545  -0.803  0.00  0.00    +0.067 C 
BRANCH  23  24
ATOM     24  C   UNL     1       0.692  -2.341  -1.702  0.00  0.00    +0.092 A 
ATOM     25  C   UNL     1       1.649  -1.365  -1.673  0.00  0.00    +0.200 A 
ATOM     26  C   UNL     1       1.486  -0.210  -2.570  0.00  0.00    +0.065 A 
ATOM     27  C   UNL     1       2.426   0.822  -2.593  0.00  0.00    +0.015 A 
ATOM     28  C   UNL     1       2.245   1.889  -3.445  0.00  0.00    +0.001 A 
ATOM     29  C   UNL     1       1.135   1.940  -4.276  0.00  0.00    +0.004 A 
ATOM     30  C   UNL     1       0.200   0.927  -4.263  0.00  0.00    +0.047 A 
ATOM     31  C   UNL     1       0.364  -0.158  -3.412  0.00  0.00    +0.143 A 
ATOM     32  O   UNL     1      -0.542  -1.159  -3.388  0.00  0.00    -0.422 OA
ATOM     33  C   UNL     1      -0.399  -2.219  -2.576  0.00  0.00    +0.345 A 
ATOM     34  O   UNL     1      -1.243  -3.098  -2.596  0.00  0.00    -0.245 OA
ATOM     35  O   UNL     1       2.714  -1.458  -0.844  0.00  0.00    -0.287 OA
ENDBRANCH  23  24
BRANCH  23  36
ATOM     36  C   UNL     1       0.671  -4.801  -1.624  0.00  0.00    -0.039 A 
ATOM     37  C   UNL     1      -0.510  -5.062  -2.292  0.00  0.00    +0.004 A 
ATOM     38  C   UNL     1      -0.638  -6.214  -3.046  0.00  0.00    +0.000 A 
ATOM     39  C   UNL     1       0.417  -7.104  -3.132  0.00  0.00    +0.000 A 
ATOM     40  C   UNL     1       1.599  -6.842  -2.464  0.00  0.00    +0.000 A 
ATOM     41  C   UNL     1       1.728  -5.688  -1.714  0.00  0.00    +0.004 A 
ENDBRANCH  23  36
ENDBRANCH   1  23
TORSDOF 13
