REMARK  Name = ZINC63831378
REMARK  4 active torsions:
REMARK  status: ('A' for Active; 'I' for Inactive)
REMARK    1  A    between atoms: C_1  and  C_2
REMARK    2  A    between atoms: C_10  and  C_13
REMARK    3  A    between atoms: C_22  and  C_32
REMARK    4  A    between atoms: N_24  and  C_25
REMARK                            x       y       z     vdW  Elec       q    Type
REMARK                         _______ _______ _______ _____ _____    ______ ____
ROOT
ATOM      1  C   UNL     1       0.088  -5.156   3.538  0.00  0.00    +0.065 C 
ATOM      2  C   UNL     1      -1.140  -4.859   4.410  0.00  0.00    +0.108 C 
ATOM      3  C   UNL     1      -0.914  -5.238   5.838  0.00  0.00    +0.216 C 
ATOM      4  O   UNL     1      -1.909  -5.388   6.516  0.00  0.00    -0.276 OA
ATOM      5  N   UNL     1       0.253  -5.432   6.453  0.00  0.00    -0.292 N 
ATOM      6  C   UNL     1       1.516  -5.503   5.730  0.00  0.00    +0.210 C 
ATOM      7  C   UNL     1       1.296  -4.832   4.383  0.00  0.00    -0.004 C 
ATOM      8  C   UNL     1       2.277  -3.998   4.191  0.00  0.00    +0.022 C 
ATOM      9  N   UNL     1       3.118  -3.942   5.293  0.00  0.00    -0.265 N 
ATOM     10  N   UNL     1       2.595  -4.736   6.353  0.00  0.00    -0.210 N 
ATOM     11  C   UNL     1       2.473  -3.194   2.932  0.00  0.00    +0.062 C 
ATOM     12  H   UNL     1       0.262  -5.528   7.418  0.00  0.00    +0.151 HD
ATOM     13  H   UNL     1       3.946  -3.438   5.336  0.00  0.00    +0.170 HD
ENDROOT
BRANCH   1  23
ATOM     14  C   UNL     1      -0.018   1.503   0.010  0.00  0.00    +0.044 C 
ATOM     15  C   UNL     1       0.002  -0.004   0.002  0.00  0.00    -0.050 A 
ATOM     16  C   UNL     1       0.006  -0.688  -1.205  0.00  0.00    +0.007 A 
ATOM     17  C   UNL     1       0.024  -2.066  -1.234  0.00  0.00    +0.047 A 
ATOM     18  C   UNL     1       0.039  -2.784  -0.043  0.00  0.00    +0.138 A 
ATOM     19  C   UNL     1       0.036  -2.090   1.178  0.00  0.00    +0.064 A 
ATOM     20  C   UNL     1       0.023  -0.696   1.193  0.00  0.00    +0.018 A 
ATOM     21  C   UNL     1       0.052  -2.874   2.428  0.00  0.00    +0.196 A 
ATOM     22  O   UNL     1       0.050  -2.331   3.519  0.00  0.00    -0.287 OA
ATOM     23  C   UNL     1       0.070  -4.289   2.305  0.00  0.00    +0.042 A 
ATOM     24  C   UNL     1       0.072  -4.850   1.083  0.00  0.00    +0.203 A 
ATOM     25  O   UNL     1       0.057  -4.132  -0.045  0.00  0.00    -0.462 OA
ENDBRANCH   1  23
BRANCH  10  26
ATOM     26  C   UNL     1       3.007  -4.782   7.683  0.00  0.00    +0.162 A 
ATOM     27  C   UNL     1       4.062  -3.978   8.116  0.00  0.00    +0.052 A 
ATOM     28  C   UNL     1       4.435  -4.058   9.447  0.00  0.00    +0.077 A 
ATOM     29  C   UNL     1       3.734  -4.937  10.271  0.00  0.00    +0.289 A 
ATOM     30  O   UNL     1       4.065  -5.049  11.583  0.00  0.00    -0.264 OA
ATOM     31  N   UNL     1       2.747  -5.661   9.773  0.00  0.00    -0.105 NA
ATOM     32  N   UNL     1       2.396  -5.583   8.540  0.00  0.00    -0.129 NA
ENDBRANCH  10  26
TORSDOF 2
