REMARK  Name = ZINC32983103
REMARK  11 active torsions:
REMARK  status: ('A' for Active; 'I' for Inactive)
REMARK    1  A    between atoms: C_1  and  C_2
REMARK    2  A    between atoms: N_5  and  C_8
REMARK    3  A    between atoms: C_8  and  C_10
REMARK    4  A    between atoms: C_8  and  C_29
REMARK    5  A    between atoms: C_10  and  N_11
REMARK    6  A    between atoms: C_12  and  C_14
REMARK    7  A    between atoms: C_14  and  C_16
REMARK    8  A    between atoms: C_14  and  N_19
REMARK    9  A    between atoms: C_16  and  C_17
REMARK   10  A    between atoms: C_16  and  C_18
REMARK   11  A    between atoms: N_22  and  C_23
REMARK                            x       y       z     vdW  Elec       q    Type
REMARK                         _______ _______ _______ _____ _____    ______ ____
ROOT
ATOM      1  N   UNL     1      -0.002   1.657   2.356  0.00  0.00    -0.315 N 
ATOM      2  C   UNL     1      -1.287   1.313   2.135  0.00  0.00    +0.234 C 
ATOM      3  O   UNL     1      -1.861   0.581   2.913  0.00  0.00    -0.274 OA
ATOM      4  H   UNL     1       0.497   2.375   1.690  0.00  0.00    +0.149 HD
ENDROOT
BRANCH   1   5
ATOM      5  C   UNL     1       0.729   1.073   3.483  0.00  0.00    +0.094 C 
BRANCH   5   6
ATOM      6  C   UNL     1       2.112   1.719   3.584  0.00  0.00    -0.013 C 
BRANCH   6  11
ATOM      7  C   UNL     1       5.681  -1.037   7.096  0.00  0.00    +0.007 C 
ATOM      8  C   UNL     1       5.027  -0.437   5.850  0.00  0.00    -0.018 C 
ATOM      9  C   UNL     1       4.923   1.082   6.007  0.00  0.00    -0.015 C 
ATOM     10  C   UNL     1       4.213   1.669   4.785  0.00  0.00    -0.078 C 
ATOM     11  N   UNL     1       2.874   1.079   4.664  0.00  0.00    +0.386 N 
ATOM     12  C   UNL     1       2.951  -0.374   4.465  0.00  0.00    -0.078 C 
ATOM     13  C   UNL     1       3.623  -1.022   5.678  0.00  0.00    -0.015 C 
ATOM     14  H   UNL     1       2.342   1.260   5.609  0.00  0.00    -0.081 HD
ENDBRANCH   6  11
BRANCH   6  15
ATOM     15  C   UNL     1       1.960   3.189   3.879  0.00  0.00    -0.022 A 
ATOM     16  C   UNL     1       2.035   4.242   3.029  0.00  0.00    +0.009 A 
ATOM     17  C   UNL     1       1.860   5.519   3.528  0.00  0.00    +0.008 A 
ATOM     18  C   UNL     1       1.619   5.681   4.852  0.00  0.00    +0.045 A 
ATOM     19  S   UNL     1       1.627   3.994   5.437  0.00  0.00    -0.103 S 
ENDBRANCH   6  15
ENDBRANCH   5   6
ENDBRANCH   1   5
BRANCH   2  20
ATOM     20  C   UNL     1      -2.009   1.838   0.921  0.00  0.00    +0.163 C 
BRANCH  20  21
ATOM     21  N   UNL     1      -3.454   1.695   1.114  0.00  0.00    -0.288 N 
ATOM     22  C   UNL     1      -4.306   2.506   0.454  0.00  0.00    +0.304 C 
ATOM     23  O   UNL     1      -3.874   3.355  -0.301  0.00  0.00    -0.252 OA
ATOM     24  N   UNL     1      -5.635   2.374   0.631  0.00  0.00    -0.269 N 
ATOM     25  H   UNL     1      -3.845   0.927   1.797  0.00  0.00    +0.151 HD
ATOM     26  H   UNL     1      -6.029   1.563   1.260  0.00  0.00    +0.156 HD
BRANCH  24  27
ATOM     27  C   UNL     1      -6.515   3.270   0.013  0.00  0.00    +0.035 A 
ATOM     28  C   UNL     1      -6.118   4.578  -0.233  0.00  0.00    +0.023 A 
ATOM     29  C   UNL     1      -6.987   5.458  -0.847  0.00  0.00    +0.002 A 
ATOM     30  C   UNL     1      -8.255   5.042  -1.207  0.00  0.00    +0.000 A 
ATOM     31  C   UNL     1      -8.656   3.741  -0.959  0.00  0.00    +0.002 A 
ATOM     32  C   UNL     1      -7.790   2.855  -0.350  0.00  0.00    +0.023 A 
ENDBRANCH  24  27
ENDBRANCH  20  21
BRANCH  20  33
ATOM     33  C   UNL     1      -1.578   1.043  -0.312  0.00  0.00    +0.012 C 
ATOM     34  C   UNL     1      -0.056   1.107  -0.454  0.00  0.00    +0.009 C 
ATOM     35  C   UNL     1      -2.231   1.642  -1.559  0.00  0.00    +0.009 C 
ENDBRANCH  20  33
ENDBRANCH   2  20
TORSDOF 8
