REMARK  Name = ZINC12596230
REMARK  8 active torsions:
REMARK  status: ('A' for Active; 'I' for Inactive)
REMARK    1  A    between atoms: C_1  and  C_2
REMARK    2  A    between atoms: C_2  and  O_3
REMARK    3  A    between atoms: O_3  and  C_4
REMARK    4  A    between atoms: C_7  and  C_10
REMARK    5  A    between atoms: N_15  and  C_16
REMARK    6  A    between atoms: C_16  and  N_17
REMARK    7  A    between atoms: C_20  and  C_24
REMARK    8  A    between atoms: C_20  and  C_25
REMARK                            x       y       z     vdW  Elec       q    Type
REMARK                         _______ _______ _______ _____ _____    ______ ____
ROOT
ATOM      1  N   UNL     1      -0.797  -7.143  -4.776  0.00  0.00    -0.210 N 
ATOM      2  C   UNL     1      -1.749  -6.254  -5.122  0.00  0.00    +0.252 C 
ATOM      3  O   UNL     1      -2.296  -5.449  -4.400  0.00  0.00    -0.272 OA
ATOM      4  C   UNL     1      -1.991  -6.469  -6.603  0.00  0.00    +0.135 C 
ATOM      5  N   UNL     1      -1.061  -7.557  -6.951  0.00  0.00    -0.281 N 
ATOM      6  C   UNL     1      -0.406  -7.880  -5.822  0.00  0.00    +0.311 C 
ATOM      7  O   UNL     1       0.445  -8.745  -5.758  0.00  0.00    -0.252 OA
ATOM      8  C   UNL     1      -1.658  -5.202  -7.393  0.00  0.00    +0.047 C 
ATOM      9  H   UNL     1      -0.942  -7.960  -7.825  0.00  0.00    +0.152 HD
ENDROOT
BRANCH   4  10
ATOM     10  C   UNL     1      -3.417  -6.891  -6.851  0.00  0.00    -0.015 A 
ATOM     11  C   UNL     1      -4.423  -6.447  -5.994  0.00  0.00    +0.007 A 
ATOM     12  C   UNL     1      -5.720  -6.810  -6.190  0.00  0.00    +0.009 A 
ATOM     13  C   UNL     1      -6.053  -7.643  -7.271  0.00  0.00    -0.018 A 
ATOM     14  C   UNL     1      -7.382  -8.038  -7.506  0.00  0.00    +0.008 A 
ATOM     15  C   UNL     1      -7.667  -8.845  -8.564  0.00  0.00    +0.001 A 
ATOM     16  C   UNL     1      -6.662  -9.288  -9.421  0.00  0.00    +0.001 A 
ATOM     17  C   UNL     1      -5.364  -8.926  -9.225  0.00  0.00    +0.008 A 
ATOM     18  C   UNL     1      -5.031  -8.093  -8.143  0.00  0.00    -0.018 A 
ATOM     19  C   UNL     1      -3.703  -7.694  -7.912  0.00  0.00    +0.014 A 
ENDBRANCH   4  10
BRANCH   1  20
ATOM     20  C   UNL     1      -0.255  -7.282  -3.422  0.00  0.00    +0.205 C 
BRANCH  20  25
ATOM     21  C   UNL     1       1.109  -6.040  -1.847  0.00  0.00    +0.088 C 
ATOM     22  C   UNL     1       2.528  -6.505  -1.459  0.00  0.00    +0.025 C 
ATOM     23  C   UNL     1       2.837  -7.601  -2.514  0.00  0.00    +0.017 C 
ATOM     24  C   UNL     1       2.140  -7.028  -3.773  0.00  0.00    +0.086 C 
ATOM     25  N   UNL     1       0.902  -6.392  -3.264  0.00  0.00    -0.279 NA
BRANCH  21  29
ATOM     26  C   UNL     1       0.777  -1.810  -1.336  0.00  0.00    +0.121 A 
ATOM     27  C   UNL     1       0.243  -2.669  -0.386  0.00  0.00    +0.046 A 
ATOM     28  C   UNL     1       0.351  -4.036  -0.554  0.00  0.00    +0.009 A 
ATOM     29  C   UNL     1       0.992  -4.548  -1.667  0.00  0.00    -0.030 A 
ATOM     30  C   UNL     1       1.525  -3.694  -2.615  0.00  0.00    +0.009 A 
ATOM     31  C   UNL     1       1.414  -2.327  -2.455  0.00  0.00    +0.046 A 
BRANCH  26  32
ATOM     32  O   UNL     1       0.671  -0.465  -1.174  0.00  0.00    -0.492 OA
BRANCH  32  34
ATOM     33  C   UNL     1      -0.019   1.526   0.010  0.00  0.00    +0.048 C 
ATOM     34  C   UNL     1       0.002  -0.004   0.002  0.00  0.00    +0.225 C 
ENDBRANCH  32  34
ENDBRANCH  26  32
ENDBRANCH  21  29
ENDBRANCH  20  25
ENDBRANCH   1  20
TORSDOF 6
