REMARK  Name = ZINC32513447
REMARK  8 active torsions:
REMARK  status: ('A' for Active; 'I' for Inactive)
REMARK    1  A    between atoms: C_1  and  C_2
REMARK    2  A    between atoms: C_9  and  C_13
REMARK    3  A    between atoms: C_13  and  N_14
REMARK    4  A    between atoms: N_14  and  C_15
REMARK    5  A    between atoms: N_14  and  C_16
REMARK    6  A    between atoms: C_16  and  C_17
REMARK    7  A    between atoms: N_19  and  C_29
REMARK    8  A    between atoms: C_21  and  C_22
REMARK                            x       y       z     vdW  Elec       q    Type
REMARK                         _______ _______ _______ _____ _____    ______ ____
ROOT
ATOM      1  C   UNL     1       2.413   2.747   5.963  0.00  0.00    +0.012 A 
ATOM      2  C   UNL     1       3.551   2.649   6.684  0.00  0.00    +0.120 A 
ATOM      3  N   UNL     1       4.361   3.680   6.326  0.00  0.00    -0.239 N 
ATOM      4  N   UNL     1       3.696   4.435   5.351  0.00  0.00    -0.166 NA
ATOM      5  C   UNL     1       2.526   3.875   5.126  0.00  0.00    +0.098 A 
ENDROOT
BRANCH   5   6
ATOM      6  C   UNL     1       1.504   4.350   4.161  0.00  0.00    +0.003 A 
ATOM      7  C   UNL     1       0.709   3.433   3.477  0.00  0.00    +0.011 A 
ATOM      8  C   UNL     1      -0.241   3.880   2.581  0.00  0.00    +0.020 A 
ATOM      9  C   UNL     1      -0.404   5.237   2.361  0.00  0.00    +0.041 A 
ATOM     10  C   UNL     1       0.384   6.152   3.038  0.00  0.00    +0.020 A 
ATOM     11  C   UNL     1       1.332   5.715   3.941  0.00  0.00    +0.011 A 
ATOM     12 CL   UNL     1      -1.600   5.794   1.233  0.00  0.00    -0.084 Cl
ENDBRANCH   5   6
BRANCH   3  13
ATOM     13  C   UNL     1       5.637   3.941   6.841  0.00  0.00    +0.065 A 
ATOM     14  C   UNL     1       6.183   3.105   7.806  0.00  0.00    +0.028 A 
ATOM     15  C   UNL     1       7.441   3.365   8.312  0.00  0.00    +0.002 A 
ATOM     16  C   UNL     1       8.158   4.457   7.859  0.00  0.00    +0.000 A 
ATOM     17  C   UNL     1       7.617   5.292   6.898  0.00  0.00    +0.002 A 
ATOM     18  C   UNL     1       6.362   5.035   6.385  0.00  0.00    +0.028 A 
ENDBRANCH   3  13
BRANCH   1  19
ATOM     19  C   UNL     1       1.234   1.812   6.036  0.00  0.00    +0.123 C 
BRANCH  19  20
ATOM     20  N   UNL     1       1.294   0.860   4.919  0.00  0.00    -0.295 NA
ATOM     21  C   UNL     1       2.455  -0.031   5.048  0.00  0.00    +0.105 C 
BRANCH  20  22
ATOM     22  C   UNL     1       0.048   0.089   4.816  0.00  0.00    +0.137 C 
BRANCH  22  31
ATOM     23  C   UNL     1      -0.018   1.503   0.010  0.00  0.00    +0.047 C 
ATOM     24  C   UNL     1       0.002  -0.004   0.002  0.00  0.00    -0.009 A 
ATOM     25  C   UNL     1       0.006  -0.685  -1.179  0.00  0.00    +0.008 A 
ATOM     26  C   UNL     1       0.025  -2.086  -1.169  0.00  0.00    +0.019 A 
ATOM     27  C   UNL     1       0.039  -2.757   0.005  0.00  0.00    +0.096 A 
ATOM     28  N   UNL     1       0.035  -2.087   1.190  0.00  0.00    -0.269 N 
ATOM     29  C   UNL     1       0.023  -0.720   1.213  0.00  0.00    +0.121 A 
ATOM     30  N   UNL     1       0.025  -0.056   2.368  0.00  0.00    -0.343 N 
ATOM     31  C   UNL     1       0.045  -0.693   3.528  0.00  0.00    +0.037 A 
ATOM     32  C   UNL     1       0.064  -2.074   3.559  0.00  0.00    +0.093 A 
ATOM     33  C   UNL     1       0.050  -2.779   2.349  0.00  0.00    +0.258 A 
ATOM     34  O   UNL     1       0.066  -3.999   2.343  0.00  0.00    -0.267 OA
ATOM     35  H   UNL     1       0.012   0.913   2.358  0.00  0.00    +0.167 HD
ENDBRANCH  22  31
ENDBRANCH  20  22
ENDBRANCH  19  20
ENDBRANCH   1  19
TORSDOF 6
