REMARK  Name = ZINC14744000
REMARK  10 active torsions:
REMARK  status: ('A' for Active; 'I' for Inactive)
REMARK    1  A    between atoms: C_1  and  C_2
REMARK    2  A    between atoms: C_4  and  C_7
REMARK    3  A    between atoms: C_7  and  O_8
REMARK    4  A    between atoms: O_8  and  C_9
REMARK    5  A    between atoms: N_15  and  C_17
REMARK    6  A    between atoms: C_17  and  C_18
REMARK    7  A    between atoms: C_17  and  C_19
REMARK    8  A    between atoms: C_20  and  C_21
REMARK    9  A    between atoms: C_20  and  N_53
REMARK   10  A    between atoms: C_24  and  O_27
REMARK                            x       y       z     vdW  Elec       q    Type
REMARK                         _______ _______ _______ _____ _____    ______ ____
ROOT
ATOM      1  C   UNL     1      -0.013   1.086   0.008  0.00  0.00    +0.120 C 
ATOM      2  C   UNL     1      -0.774   1.582  -1.206  0.00  0.00    -0.044 C 
ATOM      3  C   UNL     1       1.054   1.532  -2.809  0.00  0.00    +0.019 C 
ATOM      4  C   UNL     1       2.079   0.643  -2.136  0.00  0.00    +0.199 C 
ATOM      5  O   UNL     1       2.749  -0.118  -2.802  0.00  0.00    -0.278 OA
ATOM      6  N   UNL     1       2.248   0.694  -0.812  0.00  0.00    -0.298 N 
ATOM      7  C   UNL     1       1.426   1.609  -0.003  0.00  0.00    +0.137 C 
ATOM      8  N   UNL     1      -0.291   1.003  -2.475  0.00  0.00    +0.390 N 
ATOM      9  H   UNL     1      -0.228  -0.017  -2.371  0.00  0.00    -0.081 HD
ENDROOT
BRANCH   6  10
ATOM     10  C   UNL     1       3.248  -0.159  -0.166  0.00  0.00    +0.070 C 
ATOM     11  C   UNL     1       2.919  -1.628  -0.439  0.00  0.00    +0.028 C 
ATOM     12  C   UNL     1       4.634   0.166  -0.727  0.00  0.00    +0.028 C 
ENDBRANCH   6  10
BRANCH   1  13
ATOM     13  O   UNL     1      -0.670   1.541   1.192  0.00  0.00    -0.369 OA
BRANCH  13  14
ATOM     14  C   UNL     1      -1.674   0.648   1.679  0.00  0.00    +0.239 C 
BRANCH  14  18
ATOM     15  C   UNL     1      -4.645   3.153   4.838  0.00  0.00    +0.112 C 
ATOM     16  C   UNL     1      -3.561   2.288   4.248  0.00  0.00    +0.224 A 
ATOM     17  N   UNL     1      -3.370   2.034   2.975  0.00  0.00    -0.194 NA
ATOM     18  C   UNL     1      -2.298   1.225   2.924  0.00  0.00    +0.197 A 
ATOM     19  N   UNL     1      -1.901   1.026   4.146  0.00  0.00    -0.059 NA
ATOM     20  O   UNL     1      -2.611   1.632   4.921  0.00  0.00    -0.338 OA
ENDBRANCH  14  18
ENDBRANCH  13  14
ENDBRANCH   1  13
BRANCH   8  21
ATOM     21  C   UNL     1      -1.238   1.312  -3.558  0.00  0.00    -0.042 C 
BRANCH  21  22
ATOM     22  C   UNL     1      -1.425   2.801  -3.702  0.00  0.00    -0.064 A 
ATOM     23  C   UNL     1      -2.421   3.443  -2.991  0.00  0.00    +0.005 A 
ATOM     24  C   UNL     1      -2.592   4.808  -3.117  0.00  0.00    +0.045 A 
ATOM     25  C   UNL     1      -1.769   5.533  -3.968  0.00  0.00    +0.117 A 
ATOM     26  C   UNL     1      -0.774   4.885  -4.685  0.00  0.00    +0.045 A 
ATOM     27  C   UNL     1      -0.604   3.521  -4.550  0.00  0.00    +0.005 A 
BRANCH  25  28
ATOM     28  O   UNL     1      -1.939   6.875  -4.099  0.00  0.00    -0.507 OA
ATOM     29  H   UNL     1      -2.555   7.127  -4.801  0.00  0.00    +0.292 HD
ENDBRANCH  25  28
ENDBRANCH  21  22
ENDBRANCH   8  21
TORSDOF 7
