REMARK  Name = ZINC58041124
REMARK  10 active torsions:
REMARK  status: ('A' for Active; 'I' for Inactive)
REMARK    1  A    between atoms: C_1  and  C_2
REMARK    2  A    between atoms: C_2  and  C_3
REMARK    3  A    between atoms: C_2  and  C_4
REMARK    4  A    between atoms: C_2  and  O_5
REMARK    5  A    between atoms: O_5  and  C_6
REMARK    6  A    between atoms: C_11  and  C_14
REMARK    7  A    between atoms: C_11  and  N_16
REMARK    8  A    between atoms: C_14  and  N_15
REMARK    9  A    between atoms: N_16  and  C_17
REMARK   10  A    between atoms: N_16  and  C_18
REMARK                            x       y       z     vdW  Elec       q    Type
REMARK                         _______ _______ _______ _____ _____    ______ ____
ROOT
ATOM      1  C   UNL     1       1.872   0.626  -1.361  0.00  0.00    +0.403 C 
ATOM      2  O   UNL     1       2.492   1.375  -0.632  0.00  0.00    -0.226 OA
ATOM      3  N   UNL     1       2.505  -0.020  -2.360  0.00  0.00    -0.268 N 
ATOM      4  C   UNL     1       1.768  -0.924  -3.253  0.00  0.00    +0.110 C 
ATOM      5  C   UNL     1       2.022  -0.501  -4.703  0.00  0.00    +0.005 C 
ATOM      6  C   UNL     1       3.530  -0.456  -4.960  0.00  0.00    -0.079 C 
ATOM      7  C   UNL     1       4.177   0.578  -4.034  0.00  0.00    +0.005 C 
ATOM      8  C   UNL     1       3.945   0.171  -2.580  0.00  0.00    +0.110 C 
ENDROOT
BRANCH   6   9
ATOM      9  N   UNL     1       3.778  -0.082  -6.359  0.00  0.00    +0.379 N 
ATOM     10  C   UNL     1       3.205   1.246  -6.620  0.00  0.00    -0.096 C 
ATOM     11  C   UNL     1       5.225  -0.049  -6.609  0.00  0.00    -0.096 C 
ATOM     12  H   UNL     1       3.346  -0.760  -6.969  0.00  0.00    -0.082 HD
ENDBRANCH   6   9
BRANCH   1  13
ATOM     13  O   UNL     1       0.552   0.441  -1.170  0.00  0.00    -0.445 OA
BRANCH  13  15
ATOM     14  C   UNL     1       0.123   2.661  -0.316  0.00  0.00    +0.055 C 
ATOM     15  C   UNL     1      -0.054   1.157  -0.092  0.00  0.00    +0.107 C 
ATOM     16  C   UNL     1       0.612   0.756   1.226  0.00  0.00    +0.055 C 
ATOM     17  C   UNL     1      -1.546   0.823  -0.032  0.00  0.00    +0.055 C 
ENDBRANCH  13  15
ENDBRANCH   1  13
BRANCH   6  18
ATOM     18  C   UNL     1       4.135  -1.834  -4.686  0.00  0.00    -0.099 C 
BRANCH  18  19
ATOM     19  N   UNL     1       3.614  -2.800  -5.662  0.00  0.00    +0.377 N 
ATOM     20  H   UNL     1       3.958  -3.722  -5.439  0.00  0.00    -0.090 HD
ATOM     21  H   UNL     1       2.606  -2.801  -5.628  0.00  0.00    -0.090 HD
ATOM     22  H   UNL     1       3.920  -2.541  -6.588  0.00  0.00    -0.090 HD
ENDBRANCH  18  19
ENDBRANCH   6  18
TORSDOF 5
