REMARK  Name = ZINC04361313
REMARK  6 active torsions:
REMARK  status: ('A' for Active; 'I' for Inactive)
REMARK    1  A    between atoms: C_1  and  C_2
REMARK    2  A    between atoms: C_2  and  C_3
REMARK    3  A    between atoms: C_3  and  C_4
REMARK    4  A    between atoms: C_4  and  C_5
REMARK    5  A    between atoms: C_5  and  C_6
REMARK    6  A    between atoms: C_15  and  O_16
REMARK                            x       y       z     vdW  Elec       q    Type
REMARK                         _______ _______ _______ _____ _____    ______ ____
ROOT
ATOM      1  C   UNL     1       1.476  -4.028  -2.532  0.00  0.00    +0.022 A 
ATOM      2  C   UNL     1       2.557  -4.708  -1.924  0.00  0.00    +0.097 A 
ATOM      3  C   UNL     1       2.585  -6.177  -1.927  0.00  0.00    +0.098 A 
ATOM      4  C   UNL     1       1.478  -6.902  -2.569  0.00  0.00    +0.013 A 
ATOM      5  C   UNL     1       1.450  -8.296  -2.603  0.00  0.00    +0.011 A 
ATOM      6  C   UNL     1       0.398  -8.944  -3.213  0.00  0.00    +0.001 A 
ATOM      7  C   UNL     1      -0.634  -8.219  -3.793  0.00  0.00    +0.001 A 
ATOM      8  C   UNL     1      -0.626  -6.843  -3.771  0.00  0.00    +0.012 A 
ATOM      9  C   UNL     1       0.431  -6.163  -3.157  0.00  0.00    +0.026 A 
ATOM     10  C   UNL     1       0.457  -4.699  -3.116  0.00  0.00    +0.130 A 
ATOM     11  N   UNL     1       3.584  -6.828  -1.366  0.00  0.00    -0.243 NA
ATOM     12  C   UNL     1       4.583  -6.149  -0.787  0.00  0.00    +0.091 A 
ATOM     13  C   UNL     1       5.645  -6.835  -0.192  0.00  0.00    +0.038 A 
ATOM     14  C   UNL     1       6.679  -6.122   0.407  0.00  0.00    -0.016 A 
ATOM     15  C   UNL     1       7.766  -6.787   1.017  0.00  0.00    +0.008 A 
ATOM     16  C   UNL     1       8.758  -6.061   1.591  0.00  0.00    +0.001 A 
ATOM     17  C   UNL     1       8.736  -4.665   1.598  0.00  0.00    +0.001 A 
ATOM     18  C   UNL     1       7.722  -3.964   1.031  0.00  0.00    +0.008 A 
ATOM     19  C   UNL     1       6.656  -4.655   0.414  0.00  0.00    -0.016 A 
ATOM     20  C   UNL     1       5.601  -3.968  -0.178  0.00  0.00    +0.038 A 
ATOM     21  C   UNL     1       4.560  -4.681  -0.781  0.00  0.00    +0.090 A 
ATOM     22  N   UNL     1       3.541  -4.027  -1.353  0.00  0.00    -0.243 NA
ENDROOT
BRANCH  10  23
ATOM     23  O   UNL     1      -0.560  -4.001  -3.681  0.00  0.00    -0.506 OA
ATOM     24  H   UNL     1      -0.420  -3.789  -4.614  0.00  0.00    +0.292 HD
ENDBRANCH  10  23
BRANCH   1  25
ATOM     25  C   UNL     1       1.455  -2.521  -2.524  0.00  0.00    +0.041 C 
BRANCH  25  26
ATOM     26  C   UNL     1       0.739  -2.027  -1.265  0.00  0.00    +0.005 C 
BRANCH  26  27
ATOM     27  C   UNL     1       0.718  -0.497  -1.257  0.00  0.00    +0.000 C 
BRANCH  27  29
ATOM     28  C   UNL     1      -0.019   1.526   0.010  0.00  0.00    +0.004 C 
ATOM     29  C   UNL     1       0.002  -0.004   0.002  0.00  0.00    -0.003 C 
ENDBRANCH  27  29
ENDBRANCH  26  27
ENDBRANCH  25  26
ENDBRANCH   1  25
TORSDOF 5
