REMARK  Name = ZINC09184240
REMARK  5 active torsions:
REMARK  status: ('A' for Active; 'I' for Inactive)
REMARK    1  A    between atoms: C_4  and  S_7
REMARK    2  A    between atoms: S_7  and  C_8
REMARK    3  A    between atoms: C_13  and  N_14
REMARK    4  A    between atoms: C_15  and  C_17
REMARK    5  A    between atoms: C_17  and  C_18
REMARK                            x       y       z     vdW  Elec       q    Type
REMARK                         _______ _______ _______ _____ _____    ______ ____
ROOT
ATOM      1  N   UNL     1       1.262  -2.094  -0.003  0.00  0.00    -0.285 N 
ATOM      2  C   UNL     1       0.107  -2.783   0.091  0.00  0.00    +0.216 C 
ATOM      3  O   UNL     1      -0.935  -2.196   0.291  0.00  0.00    -0.276 OA
ATOM      4  H   UNL     1       2.105  -2.568  -0.080  0.00  0.00    +0.155 HD
ENDROOT
BRANCH   1  10
ATOM      5  C   UNL     1       2.291   0.014   0.603  0.00  0.00    +0.034 A 
ATOM      6  C   UNL     1       2.267   1.401   0.613  0.00  0.00    +0.017 A 
ATOM      7  C   UNL     1       1.209   2.078   0.036  0.00  0.00    +0.001 A 
ATOM      8  C   UNL     1       0.172   1.377  -0.552  0.00  0.00    +0.002 A 
ATOM      9  C   UNL     1       0.188  -0.006  -0.567  0.00  0.00    +0.024 A 
ATOM     10  C   UNL     1       1.245  -0.693   0.010  0.00  0.00    +0.047 A 
BRANCH   5  11
ATOM     11  S   UNL     1       3.638  -0.852   1.337  0.00  0.00    -0.088 S 
BRANCH  11  15
ATOM     12  C   UNL     1       6.144   2.415   3.224  0.00  0.00    +0.000 A 
ATOM     13  C   UNL     1       5.207   1.740   3.983  0.00  0.00    +0.001 A 
ATOM     14  C   UNL     1       4.441   0.743   3.412  0.00  0.00    +0.015 A 
ATOM     15  C   UNL     1       4.613   0.419   2.071  0.00  0.00    +0.013 A 
ATOM     16  C   UNL     1       5.559   1.097   1.312  0.00  0.00    +0.015 A 
ATOM     17  C   UNL     1       6.318   2.096   1.889  0.00  0.00    +0.001 A 
ENDBRANCH  11  15
ENDBRANCH   5  11
ENDBRANCH   1  10
BRANCH   2  18
ATOM     18  C   UNL     1       0.112  -4.284  -0.050  0.00  0.00    +0.089 C 
BRANCH  18  19
ATOM     19  C   UNL     1      -1.316  -4.814   0.097  0.00  0.00    +0.025 C 
ATOM     20  C   UNL     1      -1.327  -6.290  -0.179  0.00  0.00    +0.200 C 
ATOM     21  O   UNL     1      -1.236  -6.662  -1.330  0.00  0.00    -0.278 OA
ATOM     22  N   UNL     1      -1.432  -7.216   0.784  0.00  0.00    -0.315 N 
ATOM     23  C   UNL     1      -1.612  -6.855   2.183  0.00  0.00    +0.059 C 
ATOM     24  C   UNL     1      -0.851  -7.801   3.110  0.00  0.00    +0.020 C 
ATOM     25  C   UNL     1      -1.145  -7.401   4.566  0.00  0.00    +0.002 C 
ATOM     26  C   UNL     1      -0.702  -5.958   4.809  0.00  0.00    -0.001 C 
ATOM     27  C   UNL     1      -1.440  -5.015   3.853  0.00  0.00    -0.014 C 
ATOM     28  C   UNL     1      -1.124  -5.424   2.416  0.00  0.00    -0.050 C 
ATOM     29  H   UNL     1      -1.387  -8.154   0.541  0.00  0.00    +0.149 HD
ATOM     30  N   UNL     1      -1.799  -4.537   1.460  0.00  0.00    +0.390 N 
ATOM     31  H   UNL     1      -2.812  -4.697   1.502  0.00  0.00    -0.084 HD
ATOM     32  H   UNL     1      -1.597  -3.559   1.701  0.00  0.00    -0.084 HD
ENDBRANCH  18  19
ENDBRANCH   2  18
TORSDOF 5
