REMARK  Name = ZINC36207504
REMARK  17 active torsions:
REMARK  status: ('A' for Active; 'I' for Inactive)
REMARK    1  A    between atoms: C_1  and  C_2
REMARK    2  A    between atoms: C_7  and  O_8
REMARK    3  A    between atoms: O_8  and  C_9
REMARK    4  A    between atoms: C_9  and  C_10
REMARK    5  A    between atoms: C_10  and  C_12
REMARK    6  A    between atoms: C_10  and  O_35
REMARK    7  A    between atoms: C_12  and  N_13
REMARK    8  A    between atoms: N_13  and  C_14
REMARK    9  A    between atoms: N_13  and  C_18
REMARK   10  A    between atoms: C_14  and  C_15
REMARK   11  A    between atoms: C_15  and  O_16
REMARK   12  A    between atoms: O_16  and  C_17
REMARK   13  A    between atoms: C_18  and  C_19
REMARK   14  A    between atoms: C_25  and  C_34
REMARK   15  A    between atoms: C_26  and  C_30
REMARK   16  A    between atoms: C_30  and  O_32
REMARK   17  A    between atoms: O_32  and  C_33
REMARK                            x       y       z     vdW  Elec       q    Type
REMARK                         _______ _______ _______ _____ _____    ______ ____
ROOT
ATOM      1  N   UNL     1       0.291   0.194   7.025  0.00  0.00    +0.388 N 
ATOM      2  H   UNL     1       0.943   0.827   6.585  0.00  0.00    -0.081 HD
ENDROOT
BRANCH   1   3
ATOM      3  C   UNL     1      -0.076  -0.867   6.078  0.00  0.00    -0.043 C 
BRANCH   3   4
ATOM      4  C   UNL     1      -0.552  -0.239   4.767  0.00  0.00    +0.135 C 
BRANCH   4   5
ATOM      5  O   UNL     1      -1.798   0.428   4.983  0.00  0.00    -0.390 OA
ATOM      6  H   UNL     1      -2.506  -0.152   5.295  0.00  0.00    +0.210 HD
ENDBRANCH   4   5
BRANCH   4   7
ATOM      7  C   UNL     1      -0.736  -1.333   3.714  0.00  0.00    +0.258 C 
BRANCH   7   8
ATOM      8  O   UNL     1      -1.068  -0.736   2.459  0.00  0.00    -0.489 OA
BRANCH   8  15
ATOM      9  C   UNL     1      -1.725   0.425  -0.032  0.00  0.00    +0.047 C 
ATOM     10  C   UNL     1      -1.591  -1.064   0.161  0.00  0.00    -0.009 A 
ATOM     11  C   UNL     1      -1.786  -1.920  -0.906  0.00  0.00    +0.007 A 
ATOM     12  C   UNL     1      -1.664  -3.285  -0.730  0.00  0.00    +0.000 A 
ATOM     13  C   UNL     1      -1.346  -3.799   0.514  0.00  0.00    +0.004 A 
ATOM     14  C   UNL     1      -1.149  -2.947   1.584  0.00  0.00    +0.046 A 
ATOM     15  C   UNL     1      -1.266  -1.576   1.409  0.00  0.00    +0.124 A 
ENDBRANCH   8  15
ENDBRANCH   7   8
ENDBRANCH   4   7
ENDBRANCH   3   4
ENDBRANCH   1   3
BRANCH   1  16
ATOM     16  C   UNL     1      -0.915   0.933   7.423  0.00  0.00    -0.050 C 
BRANCH  16  17
ATOM     17  C   UNL     1      -0.524   2.082   8.355  0.00  0.00    +0.141 C 
BRANCH  17  18
ATOM     18  O   UNL     1       0.279   3.024   7.639  0.00  0.00    -0.385 OA
ATOM     19  C   UNL     1       0.792   4.083   8.448  0.00  0.00    +0.193 C 
ENDBRANCH  17  18
ENDBRANCH  16  17
ENDBRANCH   1  16
BRANCH   1  20
ATOM     20  C   UNL     1       0.914  -0.404   8.213  0.00  0.00    -0.003 C 
BRANCH  20  21
ATOM     21  C   UNL     1       2.232  -1.026   7.830  0.00  0.00    +0.094 A 
ATOM     22  N   UNL     1       2.914  -1.745   8.755  0.00  0.00    -0.312 N 
ATOM     23  H   UNL     1       2.543  -1.847   9.645  0.00  0.00    +0.170 HD
ATOM     24  C   UNL     1       4.096  -2.322   8.463  0.00  0.00    +0.260 A 
ATOM     25  O   UNL     1       4.700  -2.968   9.300  0.00  0.00    -0.267 OA
ATOM     26  C   UNL     1       4.641  -2.152   7.096  0.00  0.00    +0.076 A 
ATOM     27  C   UNL     1       5.829  -2.644   6.553  0.00  0.00    -0.015 A 
ATOM     28  C   UNL     1       6.147  -2.368   5.254  0.00  0.00    +0.102 A 
ATOM     29  S   UNL     1       4.764  -1.379   4.711  0.00  0.00    -0.062 S 
ATOM     30  C   UNL     1       3.838  -1.381   6.225  0.00  0.00    +0.116 A 
ATOM     31  N   UNL     1       2.682  -0.860   6.616  0.00  0.00    -0.229 NA
ATOM     32  C   UNL     1       6.758  -3.478   7.397  0.00  0.00    +0.046 C 
BRANCH  28  33
ATOM     33  C   UNL     1       7.330  -2.781   4.495  0.00  0.00    +0.346 C 
ATOM     34  O   UNL     1       8.186  -3.462   5.027  0.00  0.00    -0.244 OA
BRANCH  33  35
ATOM     35  O   UNL     1       7.470  -2.405   3.207  0.00  0.00    -0.464 OA
ATOM     36  C   UNL     1       8.648  -2.843   2.528  0.00  0.00    +0.280 C 
ENDBRANCH  33  35
ENDBRANCH  28  33
ENDBRANCH  20  21
ENDBRANCH   1  20
TORSDOF 13
