REMARK  Name = ZINC11150500
REMARK  11 active torsions:
REMARK  status: ('A' for Active; 'I' for Inactive)
REMARK    1  A    between atoms: C_1  and  C_2
REMARK    2  A    between atoms: C_2  and  C_4
REMARK    3  A    between atoms: C_2  and  S_7
REMARK    4  A    between atoms: S_7  and  C_8
REMARK    5  A    between atoms: C_16  and  C_20
REMARK    6  A    between atoms: C_20  and  C_21
REMARK    7  A    between atoms: C_20  and  C_22
REMARK    8  A    between atoms: C_20  and  C_23
REMARK    9  A    between atoms: N_26  and  C_27
REMARK   10  A    between atoms: C_30  and  O_33
REMARK   11  A    between atoms: O_33  and  C_34
REMARK                            x       y       z     vdW  Elec       q    Type
REMARK                         _______ _______ _______ _____ _____    ______ ____
ROOT
ATOM      1  C   UNL     1      -2.332   0.241   1.765  0.00  0.00    +0.178 A 
ATOM      2  N   UNL     1      -2.526  -0.561   0.737  0.00  0.00    -0.215 NA
ATOM      3  C   UNL     1      -3.727  -0.681   0.186  0.00  0.00    +0.117 A 
ATOM      4  C   UNL     1      -4.841   0.037   0.654  0.00  0.00    +0.076 A 
ATOM      5  C   UNL     1      -6.098  -0.196  -0.060  0.00  0.00    -0.023 A 
ATOM      6  C   UNL     1      -6.066  -1.070  -1.086  0.00  0.00    -0.004 A 
ATOM      7  S   UNL     1      -4.385  -1.627  -1.165  0.00  0.00    -0.073 S 
ATOM      8  C   UNL     1      -7.207  -1.478  -1.968  0.00  0.00    +0.046 C 
ATOM      9  C   UNL     1      -8.352  -0.474  -1.772  0.00  0.00    -0.000 C 
ATOM     10  C   UNL     1      -8.573  -0.267  -0.271  0.00  0.00    +0.009 C 
ATOM     11  C   UNL     1      -7.396   0.506   0.326  0.00  0.00    +0.037 C 
ATOM     12  C   UNL     1      -4.601   0.903   1.767  0.00  0.00    +0.268 A 
ATOM     13  O   UNL     1      -5.508   1.565   2.241  0.00  0.00    -0.267 OA
ATOM     14  N   UNL     1      -3.360   0.977   2.283  0.00  0.00    -0.255 N 
ENDROOT
BRANCH  14  15
ATOM     15  C   UNL     1      -3.118   1.824   3.375  0.00  0.00    +0.052 A 
ATOM     16  C   UNL     1      -3.262   1.346   4.670  0.00  0.00    +0.030 A 
ATOM     17  C   UNL     1      -3.019   2.179   5.744  0.00  0.00    +0.047 A 
ATOM     18  C   UNL     1      -2.641   3.497   5.529  0.00  0.00    +0.120 A 
ATOM     19  C   UNL     1      -2.502   3.976   4.234  0.00  0.00    +0.047 A 
ATOM     20  C   UNL     1      -2.740   3.142   3.159  0.00  0.00    +0.030 A 
BRANCH  18  21
ATOM     21  O   UNL     1      -2.408   4.318   6.586  0.00  0.00    -0.495 OA
ATOM     22  C   UNL     1      -2.570   3.758   7.891  0.00  0.00    +0.277 C 
ENDBRANCH  18  21
ENDBRANCH  14  15
BRANCH   9  23
ATOM     23  C   UNL     1      -9.631  -1.024  -2.408  0.00  0.00    -0.035 C 
ATOM     24  C   UNL     1     -10.000  -2.352  -1.744  0.00  0.00    +0.011 C 
ATOM     25  C   UNL     1     -10.770  -0.021  -2.212  0.00  0.00    +0.011 C 
ATOM     26  C   UNL     1      -9.401  -1.248  -3.904  0.00  0.00    +0.011 C 
ENDBRANCH   9  23
BRANCH   1  27
ATOM     27  S   UNL     1      -0.725   0.371   2.475  0.00  0.00    -0.075 S 
BRANCH  27  29
ATOM     28  C   UNL     1       0.210  -0.248  -0.016  0.00  0.00    +0.029 C 
ATOM     29  C   UNL     1       0.182  -0.784   1.417  0.00  0.00    +0.137 C 
BRANCH  29  30
ATOM     30  C   UNL     1       1.592  -0.931   1.926  0.00  0.00    +0.224 C 
ATOM     31  O   UNL     1       2.066  -0.084   2.652  0.00  0.00    -0.275 OA
ATOM     32  N   UNL     1       2.327  -2.005   1.575  0.00  0.00    -0.328 N 
ATOM     33  H   UNL     1       3.357  -2.113   1.947  0.00  0.00    +0.145 HD
ATOM     34  H   UNL     1       1.897  -2.774   0.916  0.00  0.00    +0.145 HD
ENDBRANCH  29  30
ENDBRANCH  27  29
ENDBRANCH   1  27
TORSDOF 6
