REMARK  Name = ZINC64137751
REMARK  9 active torsions:
REMARK  status: ('A' for Active; 'I' for Inactive)
REMARK    1  A    between atoms: C_1  and  C_2
REMARK    2  A    between atoms: C_4  and  C_12
REMARK    3  A    between atoms: C_12  and  C_14
REMARK    4  A    between atoms: C_14  and  C_31
REMARK    5  A    between atoms: C_15  and  C_16
REMARK    6  A    between atoms: C_19  and  O_22
REMARK    7  A    between atoms: O_22  and  C_23
REMARK    8  A    between atoms: C_23  and  C_24
REMARK    9  A    between atoms: C_27  and  C_30
REMARK                            x       y       z     vdW  Elec       q    Type
REMARK                         _______ _______ _______ _____ _____    ______ ____
ROOT
ATOM      1  C   UNL     1      -4.189  -0.395  -0.602  0.00  0.00    +0.099 C 
ATOM      2  C   UNL     1      -4.661  -0.707  -1.862  0.00  0.00    +0.030 C 
ENDROOT
BRANCH   2   3
ATOM      3  C   UNL     1      -4.231   0.078  -3.018  0.00  0.00    -0.023 A 
ATOM      4  C   UNL     1      -2.952   0.657  -3.042  0.00  0.00    +0.011 A 
ATOM      5  C   UNL     1      -2.557   1.389  -4.125  0.00  0.00    +0.046 A 
ATOM      6  C   UNL     1      -3.418   1.561  -5.204  0.00  0.00    +0.121 A 
ATOM      7  C   UNL     1      -4.687   0.990  -5.187  0.00  0.00    +0.046 A 
ATOM      8  C   UNL     1      -5.093   0.251  -4.113  0.00  0.00    +0.011 A 
BRANCH   6   9
ATOM      9  O   UNL     1      -3.020   2.290  -6.277  0.00  0.00    -0.486 OA
BRANCH   9  10
ATOM     10  C   UNL     1      -3.953   2.427  -7.350  0.00  0.00    +0.280 C 
BRANCH  10  11
ATOM     11  C   UNL     1      -3.340   3.262  -8.445  0.00  0.00    +0.062 C 
ATOM     12  C   UNL     1      -4.119   3.569  -9.716  0.00  0.00    +0.125 C 
ATOM     13  S   UNL     1      -3.074   4.926 -10.409  0.00  0.00    -0.129 S 
ATOM     14  C   UNL     1      -1.576   4.536  -9.401  0.00  0.00    +0.159 C 
ATOM     15  N   UNL     1      -2.177   3.723  -8.324  0.00  0.00    -0.275 NA
ATOM     16  C   UNL     1      -0.941   5.809  -8.839  0.00  0.00    +0.044 C 
ENDBRANCH  10  11
ENDBRANCH   9  10
ENDBRANCH   6   9
ENDBRANCH   2   3
BRANCH   1  17
ATOM     17  C   UNL     1      -3.371   0.809  -0.400  0.00  0.00    +0.202 C 
ATOM     18  O   UNL     1      -3.841   1.910  -0.630  0.00  0.00    -0.286 OA
BRANCH  17  21
ATOM     19  C   UNL     1      -1.216  -1.562  -0.675  0.00  0.00    +0.035 C 
ATOM     20  C   UNL     1      -1.278  -0.580   0.496  0.00  0.00    +0.111 C 
ATOM     21  C   UNL     1      -1.992   0.687   0.076  0.00  0.00    +0.031 C 
ATOM     22  C   UNL     1      -1.071   1.703   0.235  0.00  0.00    +0.007 A 
ATOM     23  C   UNL     1      -1.131   3.100   0.013  0.00  0.00    +0.010 A 
ATOM     24  C   UNL     1      -0.052   3.876   0.259  0.00  0.00    +0.001 A 
ATOM     25  C   UNL     1       1.159   3.352   0.737  0.00  0.00    +0.002 A 
ATOM     26  C   UNL     1       1.321   2.033   0.982  0.00  0.00    +0.026 A 
ATOM     27  C   UNL     1       0.195   1.118   0.740  0.00  0.00    +0.043 A 
ATOM     28  N   UNL     1       0.075  -0.174   0.888  0.00  0.00    -0.377 N 
ATOM     29  H   UNL     1       0.770  -0.771   1.207  0.00  0.00    +0.160 HD
ENDBRANCH  17  21
ENDBRANCH   1  17
BRANCH   1  30
ATOM     30  C   UNL     1      -4.496  -1.246   0.509  0.00  0.00    +0.103 C 
ATOM     31  N   UNL     1      -4.740  -1.921   1.390  0.00  0.00    -0.191 NA
ENDBRANCH   1  30
TORSDOF 7
