REMARK  Name = ZINC20921663
REMARK  11 active torsions:
REMARK  status: ('A' for Active; 'I' for Inactive)
REMARK    1  A    between atoms: C_1  and  C_2
REMARK    2  A    between atoms: C_2  and  C_3
REMARK    3  A    between atoms: C_2  and  N_4
REMARK    4  A    between atoms: C_6  and  C_9
REMARK    5  A    between atoms: N_10  and  N_11
REMARK    6  A    between atoms: C_15  and  S_18
REMARK    7  A    between atoms: N_16  and  N_17
REMARK    8  A    between atoms: S_18  and  C_19
REMARK    9  A    between atoms: C_19  and  C_20
REMARK   10  A    between atoms: N_22  and  C_23
REMARK   11  A    between atoms: N_22  and  C_29
REMARK                            x       y       z     vdW  Elec       q    Type
REMARK                         _______ _______ _______ _____ _____    ______ ____
ROOT
ATOM      1  N   UNL     1      -6.839  -1.968   1.752  0.00  0.00    -0.204 N 
ATOM      2  C   UNL     1      -7.958  -2.592   1.220  0.00  0.00    +0.254 A 
ATOM      3  N   UNL     1      -8.019  -3.214   0.067  0.00  0.00    -0.109 NA
ATOM      4  N   UNL     1      -9.322  -3.702  -0.093  0.00  0.00    -0.119 NA
ATOM      5  C   UNL     1     -10.016  -3.362   0.967  0.00  0.00    +0.210 A 
ATOM      6  N   UNL     1      -9.190  -2.673   1.809  0.00  0.00    -0.211 N 
ATOM      7  H   UNL     1      -6.891  -1.536   2.619  0.00  0.00    +0.177 HD
ENDROOT
BRANCH   6   8
ATOM      8  N   UNL     1      -9.534  -2.153   3.024  0.00  0.00    -0.294 N 
ATOM      9  H   UNL     1      -9.877  -1.208   2.929  0.00  0.00    +0.163 HD
ATOM     10  H   UNL     1     -10.211  -2.738   3.490  0.00  0.00    +0.163 HD
ENDBRANCH   6   8
BRANCH   1  12
ATOM     11  C   UNL     1      -4.588  -1.377   1.534  0.00  0.00    +0.141 C 
ATOM     12  N   UNL     1      -5.635  -1.961   1.037  0.00  0.00    -0.187 NA
BRANCH  11  15
ATOM     13  N   UNL     1      -1.228  -1.013   0.207  0.00  0.00    -0.268 N 
ATOM     14  C   UNL     1      -2.134  -0.792   1.182  0.00  0.00    +0.118 A 
ATOM     15  C   UNL     1      -3.319  -1.370   0.780  0.00  0.00    +0.032 A 
ATOM     16  C   UNL     1      -3.093  -1.954  -0.485  0.00  0.00    +0.143 A 
ATOM     17  N   UNL     1      -1.851  -1.732  -0.819  0.00  0.00    -0.179 NA
BRANCH  13  19
ATOM     18  C   UNL     1       0.252   0.868  -0.293  0.00  0.00    +0.032 C 
ATOM     19  C   UNL     1       0.169  -0.571   0.219  0.00  0.00    +0.101 C 
ATOM     20  C   UNL     1       0.712  -0.636   1.648  0.00  0.00    +0.032 C 
ENDBRANCH  13  19
ENDBRANCH  11  15
ENDBRANCH   1  12
BRANCH   5  21
ATOM     21  S   UNL     1     -11.713  -3.736   1.258  0.00  0.00    -0.075 S 
BRANCH  21  22
ATOM     22  C   UNL     1     -12.217  -4.664  -0.217  0.00  0.00    +0.173 C 
BRANCH  22  23
ATOM     23  C   UNL     1     -13.669  -5.050  -0.096  0.00  0.00    +0.226 C 
ATOM     24  O   UNL     1     -14.189  -5.117   0.998  0.00  0.00    -0.275 OA
ATOM     25  N   UNL     1     -14.389  -5.321  -1.202  0.00  0.00    -0.295 N 
BRANCH  25  26
ATOM     26  C   UNL     1     -15.842  -5.483  -1.109  0.00  0.00    +0.076 C 
ATOM     27  C   UNL     1     -16.450  -4.248  -0.442  0.00  0.00    +0.022 C 
ATOM     28  C   UNL     1     -17.968  -4.417  -0.345  0.00  0.00    +0.002 C 
ATOM     29  C   UNL     1     -18.291  -5.658   0.488  0.00  0.00    +0.000 C 
ATOM     30  C   UNL     1     -17.682  -6.893  -0.179  0.00  0.00    +0.002 C 
ATOM     31  C   UNL     1     -16.165  -6.725  -0.276  0.00  0.00    +0.022 C 
ENDBRANCH  25  26
BRANCH  25  32
ATOM     32  C   UNL     1     -13.718  -5.455  -2.498  0.00  0.00    +0.076 C 
ATOM     33  C   UNL     1     -12.457  -6.306  -2.334  0.00  0.00    +0.022 C 
ATOM     34  C   UNL     1     -11.757  -6.445  -3.687  0.00  0.00    +0.002 C 
ATOM     35  C   UNL     1     -11.372  -5.059  -4.208  0.00  0.00    +0.000 C 
ATOM     36  C   UNL     1     -12.633  -4.208  -4.372  0.00  0.00    +0.002 C 
ATOM     37  C   UNL     1     -13.334  -4.068  -3.018  0.00  0.00    +0.022 C 
ENDBRANCH  25  32
ENDBRANCH  22  23
ENDBRANCH  21  22
ENDBRANCH   5  21
TORSDOF 9
