REMARK  Name = ZINC63513994
REMARK  9 active torsions:
REMARK  status: ('A' for Active; 'I' for Inactive)
REMARK    1  A    between atoms: C_1  and  C_2
REMARK    2  A    between atoms: C_6  and  N_8
REMARK    3  A    between atoms: C_13  and  C_34
REMARK    4  A    between atoms: C_16  and  C_21
REMARK    5  A    between atoms: C_16  and  C_31
REMARK    6  A    between atoms: C_21  and  C_22
REMARK    7  A    between atoms: C_38  and  O_41
REMARK    8  A    between atoms: C_39  and  O_40
REMARK    9  A    between atoms: O_41  and  C_42
REMARK                            x       y       z     vdW  Elec       q    Type
REMARK                         _______ _______ _______ _____ _____    ______ ____
ROOT
ATOM      1  N   UNL     1      -0.037  -2.913   2.437  0.00  0.00    -0.210 N 
ATOM      2  C   UNL     1      -0.147  -2.321   3.671  0.00  0.00    +0.229 C 
ATOM      3  O   UNL     1      -0.478  -1.181   3.919  0.00  0.00    -0.275 OA
ATOM      4  C   UNL     1       0.220  -3.358   4.607  0.00  0.00    +0.077 C 
ATOM      5  C   UNL     1       0.088  -3.688   6.033  0.00  0.00    -0.023 C 
ATOM      6  N   UNL     1       0.345  -5.165   6.097  0.00  0.00    +0.396 N 
ATOM      7  C   UNL     1       0.495  -5.658   4.689  0.00  0.00    +0.052 C 
ATOM      8  C   UNL     1      -0.364  -4.646   3.900  0.00  0.00    +0.086 C 
ATOM      9  C   UNL     1       0.074  -4.272   2.511  0.00  0.00    +0.229 C 
ATOM     10  O   UNL     1       0.451  -5.024   1.637  0.00  0.00    -0.275 OA
ATOM     11  H   UNL     1       1.194  -5.342   6.614  0.00  0.00    -0.083 HD
ATOM     12  H   UNL     1      -0.432  -5.629   6.542  0.00  0.00    -0.083 HD
ENDROOT
BRANCH   1  18
ATOM     13  C   UNL     1      -0.295   1.385   0.061  0.00  0.00    +0.044 C 
ATOM     14  C   UNL     1      -0.168  -0.116   0.050  0.00  0.00    -0.049 A 
ATOM     15  C   UNL     1      -0.057  -0.792  -1.152  0.00  0.00    +0.003 A 
ATOM     16  C   UNL     1       0.060  -2.169  -1.165  0.00  0.00    +0.002 A 
ATOM     17  C   UNL     1       0.067  -2.875   0.022  0.00  0.00    +0.024 A 
ATOM     18  C   UNL     1      -0.043  -2.200   1.230  0.00  0.00    +0.044 A 
ATOM     19  C   UNL     1      -0.155  -0.816   1.241  0.00  0.00    +0.027 A 
ENDBRANCH   1  18
BRANCH   5  20
ATOM     20  C   UNL     1      -1.303  -3.372   6.521  0.00  0.00    -0.015 A 
ATOM     21  C   UNL     1      -2.286  -4.343   6.485  0.00  0.00    +0.006 A 
ATOM     22  C   UNL     1      -3.562  -4.056   6.932  0.00  0.00    +0.004 A 
ATOM     23  C   UNL     1      -3.861  -2.796   7.415  0.00  0.00    +0.049 A 
ATOM     24  C   UNL     1      -2.881  -1.818   7.454  0.00  0.00    +0.161 A 
ATOM     25  C   UNL     1      -1.594  -2.109   7.010  0.00  0.00    +0.160 A 
BRANCH  25  26
ATOM     26  O   UNL     1      -0.627  -1.154   7.050  0.00  0.00    -0.503 OA
ATOM     27  H   UNL     1      -0.573  -0.615   6.249  0.00  0.00    +0.292 HD
ENDBRANCH  25  26
BRANCH  24  28
ATOM     28  O   UNL     1      -3.174  -0.578   7.929  0.00  0.00    -0.491 OA
ATOM     29  C   UNL     1      -4.514  -0.353   8.373  0.00  0.00    +0.277 C 
ENDBRANCH  24  28
ENDBRANCH   5  20
BRANCH   7  30
ATOM     30  C   UNL     1      -0.068  -7.049   4.548  0.00  0.00    +0.347 C 
ATOM     31  O   UNL     1      -0.534  -7.619   5.520  0.00  0.00    -0.248 OA
ATOM     32  O   UNL     1      -0.058  -7.603   3.462  0.00  0.00    -0.248 OA
ENDBRANCH   7  30
BRANCH   7  33
ATOM     33  C   UNL     1       1.961  -5.618   4.253  0.00  0.00    +0.033 C 
BRANCH  33  34
ATOM     34  C   UNL     1       2.761  -6.580   5.094  0.00  0.00    -0.042 C 
ATOM     35  C   UNL     1       3.064  -7.864   4.795  0.00  0.00    -0.001 A 
ATOM     36  C   UNL     1       2.750  -8.717   3.642  0.00  0.00    +0.010 A 
ATOM     37  C   UNL     1       3.202  -9.991   3.627  0.00  0.00    +0.001 A 
ATOM     38  C   UNL     1       3.960 -10.517   4.682  0.00  0.00    +0.002 A 
ATOM     39  C   UNL     1       4.289  -9.795   5.774  0.00  0.00    +0.026 A 
ATOM     40  C   UNL     1       3.867  -8.442   5.896  0.00  0.00    +0.043 A 
ATOM     41  N   UNL     1       4.053  -7.551   6.838  0.00  0.00    -0.380 N 
ATOM     42  C   UNL     1       3.393  -6.302   6.439  0.00  0.00    +0.144 C 
ATOM     43  H   UNL     1       4.547  -7.692   7.661  0.00  0.00    +0.160 HD
ENDBRANCH  33  34
ENDBRANCH   7  33
TORSDOF 7
