REMARK  Name = ZINC23360749
REMARK  5 active torsions:
REMARK  status: ('A' for Active; 'I' for Inactive)
REMARK    1  A    between atoms: C_1  and  C_2
REMARK    2  A    between atoms: C_3  and  C_12
REMARK    3  A    between atoms: C_5  and  C_7
REMARK    4  A    between atoms: C_12  and  N_13
REMARK    5  A    between atoms: C_17  and  N_20
REMARK                            x       y       z     vdW  Elec       q    Type
REMARK                         _______ _______ _______ _____ _____    ______ ____
ROOT
ATOM      1  N   UNL     1      -2.988  -0.230  -1.371  0.00  0.00    +0.384 N 
ATOM      2  C   UNL     1      -2.973  -1.538  -2.035  0.00  0.00    -0.078 C 
ATOM      3  C   UNL     1      -3.390  -1.376  -3.499  0.00  0.00    -0.017 C 
ATOM      4  C   UNL     1      -4.802  -0.786  -3.559  0.00  0.00    +0.015 C 
ATOM      5  C   UNL     1      -4.822   0.543  -2.799  0.00  0.00    +0.040 C 
ATOM      6  C   UNL     1      -4.353   0.309  -1.362  0.00  0.00    -0.059 C 
ATOM      7  H   UNL     1      -2.380   0.404  -1.867  0.00  0.00    -0.081 HD
ENDROOT
BRANCH   5   8
ATOM      8  N   UNL     1      -6.189   1.081  -2.788  0.00  0.00    -0.297 NA
ATOM      9  C   UNL     1      -6.667   1.335  -4.157  0.00  0.00    +0.089 C 
ATOM     10  C   UNL     1      -8.182   1.534  -4.113  0.00  0.00    +0.051 C 
ATOM     11  C   UNL     1      -8.537   2.549  -3.056  0.00  0.00    -0.042 A 
ATOM     12  C   UNL     1      -9.795   3.131  -3.094  0.00  0.00    +0.004 A 
ATOM     13  C   UNL     1     -10.161   4.062  -2.143  0.00  0.00    +0.000 A 
ATOM     14  C   UNL     1      -9.270   4.415  -1.147  0.00  0.00    +0.000 A 
ATOM     15  C   UNL     1      -8.018   3.836  -1.108  0.00  0.00    +0.005 A 
ATOM     16  C   UNL     1      -7.647   2.903  -2.065  0.00  0.00    -0.030 A 
ATOM     17  C   UNL     1      -6.265   2.307  -1.988  0.00  0.00    +0.120 C 
ENDBRANCH   5   8
BRANCH   1  18
ATOM     18  C   UNL     1      -2.513  -0.379   0.011  0.00  0.00    -0.019 C 
BRANCH  18  21
ATOM     19  C   UNL     1      -0.018   1.503   0.010  0.00  0.00    +0.088 C 
ATOM     20  C   UNL     1       0.002  -0.004   0.002  0.00  0.00    +0.124 A 
ATOM     21  C   UNL     1      -1.070  -0.815   0.003  0.00  0.00    +0.066 A 
ATOM     22  N   UNL     1      -0.628  -2.083  -0.006  0.00  0.00    -0.215 NA
ATOM     23  C   UNL     1       0.687  -2.069  -0.012  0.00  0.00    +0.234 A 
ATOM     24  O   UNL     1       1.099  -0.788  -0.013  0.00  0.00    -0.440 OA
BRANCH  23  25
ATOM     25  C   UNL     1       1.558  -3.253  -0.023  0.00  0.00    +0.074 A 
ATOM     26  C   UNL     1       2.939  -3.318  -0.024  0.00  0.00    +0.021 A 
ATOM     27  C   UNL     1       3.535  -4.558  -0.035  0.00  0.00    +0.008 A 
ATOM     28  C   UNL     1       2.756  -5.671  -0.044  0.00  0.00    +0.046 A 
ATOM     29  S   UNL     1       1.110  -4.981  -0.029  0.00  0.00    -0.092 S 
ENDBRANCH  23  25
ENDBRANCH  18  21
ENDBRANCH   1  18
TORSDOF 4
