REMARK  Name = ZINC22523669
REMARK  12 active torsions:
REMARK  status: ('A' for Active; 'I' for Inactive)
REMARK    1  A    between atoms: C_1  and  C_2
REMARK    2  A    between atoms: C_7  and  C_8
REMARK    3  A    between atoms: C_8  and  C_10
REMARK    4  A    between atoms: C_8  and  N_16
REMARK    5  A    between atoms: C_17  and  C_19
REMARK    6  A    between atoms: C_19  and  N_20
REMARK    7  A    between atoms: N_20  and  C_21
REMARK    8  A    between atoms: N_20  and  S_32
REMARK    9  A    between atoms: C_23  and  N_29
REMARK   10  A    between atoms: C_26  and  O_27
REMARK   11  A    between atoms: O_27  and  C_28
REMARK   12  A    between atoms: S_32  and  C_35
REMARK                            x       y       z     vdW  Elec       q    Type
REMARK                         _______ _______ _______ _____ _____    ______ ____
ROOT
ATOM      1  N   UNL     1      -2.184  -0.343  -0.982  0.00  0.00    -0.303 N 
ATOM      2  C   UNL     1      -1.985  -0.491  -2.307  0.00  0.00    +0.233 C 
ATOM      3  O   UNL     1      -2.030   0.475  -3.038  0.00  0.00    -0.274 OA
ATOM      4  H   UNL     1      -2.143  -1.220  -0.318  0.00  0.00    +0.150 HD
ENDROOT
BRANCH   1   5
ATOM      5  C   UNL     1      -2.456   0.985  -0.426  0.00  0.00    +0.134 C 
BRANCH   5  12
ATOM      6  C   UNL     1      -2.349   3.871  -0.482  0.00  0.00    +0.044 C 
ATOM      7  C   UNL     1      -1.103   3.076  -0.190  0.00  0.00    -0.045 A 
ATOM      8  C   UNL     1       0.094   3.728   0.046  0.00  0.00    +0.004 A 
ATOM      9  C   UNL     1       1.237   2.999   0.314  0.00  0.00    +0.000 A 
ATOM     10  C   UNL     1       1.185   1.618   0.346  0.00  0.00    +0.000 A 
ATOM     11  C   UNL     1      -0.011   0.967   0.110  0.00  0.00    +0.006 A 
ATOM     12  C   UNL     1      -1.154   1.696  -0.163  0.00  0.00    -0.020 A 
ENDBRANCH   5  12
BRANCH   5  13
ATOM     13  C   UNL     1      -3.220   0.842   0.865  0.00  0.00    -0.023 A 
ATOM     14  C   UNL     1      -2.794  -0.057   1.825  0.00  0.00    +0.006 A 
ATOM     15  C   UNL     1      -3.492  -0.184   3.011  0.00  0.00    +0.000 A 
ATOM     16  C   UNL     1      -4.623   0.579   3.233  0.00  0.00    +0.000 A 
ATOM     17  C   UNL     1      -5.052   1.474   2.271  0.00  0.00    +0.000 A 
ATOM     18  C   UNL     1      -4.351   1.605   1.087  0.00  0.00    +0.006 A 
ENDBRANCH   5  13
ENDBRANCH   1   5
BRANCH   2  19
ATOM     19  C   UNL     1      -1.705  -1.857  -2.878  0.00  0.00    +0.226 C 
BRANCH  19  20
ATOM     20  N   UNL     1      -1.526  -1.752  -4.329  0.00  0.00    -0.195 N 
BRANCH  20  21
ATOM     21  C   UNL     1      -0.273  -1.422  -4.857  0.00  0.00    +0.095 A 
ATOM     22  C   UNL     1       0.677  -2.412  -5.066  0.00  0.00    +0.061 A 
ATOM     23  C   UNL     1       1.912  -2.083  -5.593  0.00  0.00    +0.128 A 
ATOM     24  C   UNL     1       2.208  -0.769  -5.903  0.00  0.00    +0.036 A 
ATOM     25  C   UNL     1       1.268   0.224  -5.692  0.00  0.00    +0.050 A 
ATOM     26  C   UNL     1       0.026  -0.098  -5.169  0.00  0.00    +0.143 A 
BRANCH  23  27
ATOM     27  N   UNL     1       2.922  -3.141  -5.821  0.00  0.00    +0.056 N 
ATOM     28  O   UNL     1       4.013  -2.852  -6.280  0.00  0.00    -0.126 OA
ATOM     29  O   UNL     1       2.663  -4.299  -5.548  0.00  0.00    -0.126 OA
ENDBRANCH  23  27
BRANCH  26  30
ATOM     30  O   UNL     1      -0.899   0.877  -4.961  0.00  0.00    -0.493 OA
ATOM     31  C   UNL     1      -0.522   2.213  -5.304  0.00  0.00    +0.277 C 
ENDBRANCH  26  30
ENDBRANCH  20  21
BRANCH  20  32
ATOM     32  S   UNL     1      -2.807  -2.025  -5.342  0.00  0.00    +0.043 S 
ATOM     33  O   UNL     1      -2.224  -2.540  -6.532  0.00  0.00    -0.155 OA
ATOM     34  O   UNL     1      -3.712  -2.811  -4.580  0.00  0.00    -0.155 OA
ATOM     35  C   UNL     1      -3.513  -0.383  -5.653  0.00  0.00    +0.218 C 
ENDBRANCH  20  32
ENDBRANCH  19  20
ENDBRANCH   2  19
TORSDOF 9
