REMARK  Name = ZINC40536725
REMARK  3 active torsions:
REMARK  status: ('A' for Active; 'I' for Inactive)
REMARK    1  A    between atoms: C_6  and  N_7
REMARK    2  A    between atoms: C_12  and  O_20
REMARK    3  A    between atoms: C_15  and  C_17
REMARK                            x       y       z     vdW  Elec       q    Type
REMARK                         _______ _______ _______ _____ _____    ______ ____
ROOT
ATOM      1  N   UNL     1      -1.202  -0.722   0.010  0.00  0.00    -0.267 N 
ATOM      2  C   UNL     1      -2.375  -0.070   0.127  0.00  0.00    +0.307 C 
ATOM      3  O   UNL     1      -2.397   1.146   0.134  0.00  0.00    -0.252 OA
ATOM      4  N   UNL     1      -3.525  -0.764   0.236  0.00  0.00    -0.269 N 
ATOM      5  C   UNL     1      -3.643  -2.234   0.248  0.00  0.00    +0.141 C 
ATOM      6  C   UNL     1      -5.089  -2.520  -0.229  0.00  0.00    +0.134 C 
ATOM      7  C   UNL     1      -5.871  -1.354   0.432  0.00  0.00    +0.067 C 
ATOM      8  C   UNL     1      -4.868  -0.182   0.369  0.00  0.00    +0.193 C 
ATOM      9  H   UNL     1      -1.190  -1.690  -0.061  0.00  0.00    +0.156 HD
ENDROOT
BRANCH   1  15
ATOM     10  C   UNL     1       0.054   1.247  -0.608  0.00  0.00    +0.029 A 
ATOM     11  C   UNL     1       1.240   1.956  -0.626  0.00  0.00    +0.043 A 
ATOM     12  C   UNL     1       2.378   1.420  -0.049  0.00  0.00    +0.161 A 
ATOM     13  C   UNL     1       2.330   0.171   0.551  0.00  0.00    +0.195 A 
ATOM     14  C   UNL     1       1.144  -0.542   0.572  0.00  0.00    +0.182 A 
ATOM     15  C   UNL     1       0.001  -0.003  -0.009  0.00  0.00    +0.073 A 
ATOM     16  F   UNL     1       1.096  -1.760   1.155  0.00  0.00    -0.200 F 
ATOM     17  F   UNL     1       3.442  -0.351   1.115  0.00  0.00    -0.199 F 
ATOM     18  F   UNL     1       3.536   2.115  -0.069  0.00  0.00    -0.202 F 
ENDBRANCH   1  15
BRANCH   8  19
ATOM     19  C   UNL     1      -4.950   0.634   1.633  0.00  0.00    +0.376 C 
ATOM     20  O   UNL     1      -3.970   0.749   2.349  0.00  0.00    -0.244 OA
ATOM     21  O   UNL     1      -5.996   1.180   1.939  0.00  0.00    -0.244 OA
ENDBRANCH   8  19
BRANCH   6  22
ATOM     22  O   UNL     1      -5.547  -3.784   0.254  0.00  0.00    -0.390 OA
ATOM     23  H   UNL     1      -5.025  -4.536  -0.057  0.00  0.00    +0.210 HD
ENDBRANCH   6  22
TORSDOF 3
