REMARK  Name = ZINC13139100
REMARK  5 active torsions:
REMARK  status: ('A' for Active; 'I' for Inactive)
REMARK    1  A    between atoms: C_1  and  C_2
REMARK    2  A    between atoms: N_4  and  C_5
REMARK    3  A    between atoms: C_8  and  N_11
REMARK    4  A    between atoms: C_12  and  C_14
REMARK    5  A    between atoms: C_23  and  N_26
REMARK                            x       y       z     vdW  Elec       q    Type
REMARK                         _______ _______ _______ _____ _____    ______ ____
ROOT
ATOM      1  C   UNL     1       0.089  -8.478  -1.839  0.00  0.00    +0.050 C 
ATOM      2  C   UNL     1       1.300  -8.867  -0.990  0.00  0.00    +0.020 C 
ATOM      3  C   UNL     1       1.382 -10.391  -0.884  0.00  0.00    -0.007 C 
ATOM      4  C   UNL     1       0.107 -10.926  -0.229  0.00  0.00    +0.007 C 
ATOM      5  C   UNL     1      -1.105 -10.537  -1.079  0.00  0.00    -0.007 C 
ATOM      6  C   UNL     1      -1.186  -9.013  -1.185  0.00  0.00    +0.020 C 
ATOM      7  C   UNL     1      -0.959 -11.138  -2.479  0.00  0.00    +0.034 C 
ATOM      8  C   UNL     1       0.316 -10.603  -3.134  0.00  0.00    +0.067 C 
ATOM      9  C   UNL     1       1.527 -10.992  -2.284  0.00  0.00    +0.034 C 
ATOM     10  C   UNL     1       0.234  -9.079  -3.239  0.00  0.00    +0.046 C 
ENDROOT
BRANCH   8  11
ATOM     11  N   UNL     1       0.455 -11.178  -4.474  0.00  0.00    -0.245 N 
ATOM     12  C   UNL     1       0.827 -12.434  -4.777  0.00  0.00    +0.220 A 
ATOM     13  N   UNL     1       0.829 -12.554  -6.080  0.00  0.00    -0.209 NA
ATOM     14  C   UNL     1       0.464 -11.401  -6.641  0.00  0.00    +0.217 A 
ATOM     15  N   UNL     1       0.220 -10.529  -5.697  0.00  0.00    -0.142 NA
ATOM     16 BR   UNL     1       0.318 -11.081  -8.498  0.00  0.00    -0.005 Br
ENDBRANCH   8  11
BRANCH   1  18
ATOM     17  N   UNL     1      -0.123  -6.230  -0.829  0.00  0.00    -0.285 N 
ATOM     18  C   UNL     1       0.009  -6.977  -1.943  0.00  0.00    +0.223 C 
ATOM     19  O   UNL     1       0.062  -6.440  -3.030  0.00  0.00    -0.275 OA
ATOM     20  H   UNL     1      -0.233  -6.661   0.033  0.00  0.00    +0.155 HD
BRANCH  17  24
ATOM     21  C   UNL     1      -0.055  -2.069  -1.087  0.00  0.00    +0.033 A 
ATOM     22  C   UNL     1       0.500  -2.705   0.016  0.00  0.00    +0.025 A 
ATOM     23  C   UNL     1       0.477  -4.083   0.101  0.00  0.00    +0.025 A 
ATOM     24  C   UNL     1      -0.100  -4.833  -0.915  0.00  0.00    +0.034 A 
ATOM     25  C   UNL     1      -0.655  -4.196  -2.018  0.00  0.00    +0.025 A 
ATOM     26  C   UNL     1      -0.637  -2.818  -2.101  0.00  0.00    +0.025 A 
BRANCH  21  30
ATOM     27  C   UNL     1      -1.089   1.493  -1.737  0.00  0.00    +0.109 C 
ATOM     28  C   UNL     1      -1.065  -0.014  -1.737  0.00  0.00    +0.214 C 
ATOM     29  O   UNL     1      -1.975  -0.635  -2.244  0.00  0.00    -0.276 OA
ATOM     30  N   UNL     1      -0.032  -0.671  -1.173  0.00  0.00    -0.286 N 
ATOM     31  H   UNL     1       0.727  -0.176  -0.828  0.00  0.00    +0.155 HD
ENDBRANCH  21  30
ENDBRANCH  17  24
ENDBRANCH   1  18
TORSDOF 4
