REMARK  Name = ZINC30961358
REMARK  11 active torsions:
REMARK  status: ('A' for Active; 'I' for Inactive)
REMARK    1  A    between atoms: C_1  and  C_2
REMARK    2  A    between atoms: C_2  and  C_3
REMARK    3  A    between atoms: C_2  and  C_4
REMARK    4  A    between atoms: C_4  and  C_6
REMARK    5  A    between atoms: C_4  and  N_23
REMARK    6  A    between atoms: N_8  and  N_9
REMARK    7  A    between atoms: C_10  and  C_11
REMARK    8  A    between atoms: C_14  and  O_18
REMARK    9  A    between atoms: O_18  and  C_19
REMARK   10  A    between atoms: C_19  and  C_20
REMARK   11  A    between atoms: C_24  and  C_26
REMARK                            x       y       z     vdW  Elec       q    Type
REMARK                         _______ _______ _______ _____ _____    ______ ____
ROOT
ATOM      1  C   UNL     1       4.057  -4.420  -0.080  0.00  0.00    +0.253 C 
ATOM      2  O   UNL     1       4.405  -3.503  -0.795  0.00  0.00    -0.272 OA
ATOM      3  N   UNL     1       4.654  -5.623  -0.187  0.00  0.00    -0.205 N 
ATOM      4  H   UNL     1       4.306  -6.466   0.427  0.00  0.00    +0.177 HD
ENDROOT
BRANCH   3   5
ATOM      5  N   UNL     1       5.718  -5.800  -1.081  0.00  0.00    -0.188 NA
ATOM      6  C   UNL     1       6.231  -6.979  -1.255  0.00  0.00    +0.138 C 
BRANCH   6   7
ATOM      7  C   UNL     1       5.431  -8.182  -0.959  0.00  0.00    -0.004 A 
ATOM      8  C   UNL     1       4.056  -8.071  -0.734  0.00  0.00    +0.013 A 
ATOM      9  C   UNL     1       3.311  -9.198  -0.462  0.00  0.00    +0.047 A 
ATOM     10  C   UNL     1       3.926 -10.441  -0.400  0.00  0.00    +0.135 A 
ATOM     11  C   UNL     1       5.294 -10.556  -0.618  0.00  0.00    +0.060 A 
ATOM     12  C   UNL     1       6.046  -9.434  -0.896  0.00  0.00    +0.028 A 
ATOM     13 BR   UNL     1       6.124 -12.253  -0.532  0.00  0.00    -0.046 Br
BRANCH  10  14
ATOM     14  O   UNL     1       3.188 -11.549  -0.127  0.00  0.00    -0.482 OA
BRANCH  14  15
ATOM     15  C   UNL     1       1.788 -11.360   0.086  0.00  0.00    +0.324 C 
BRANCH  15  16
ATOM     16  C   UNL     1       1.139 -12.689   0.375  0.00  0.00    +0.248 C 
ATOM     17  O   UNL     1       1.810 -13.699   0.396  0.00  0.00    -0.272 OA
ATOM     18  N   UNL     1      -0.186 -12.755   0.609  0.00  0.00    -0.327 N 
ATOM     19  H   UNL     1      -0.659 -13.726   0.819  0.00  0.00    +0.145 HD
ATOM     20  H   UNL     1      -0.794 -11.839   0.590  0.00  0.00    +0.145 HD
ENDBRANCH  15  16
ENDBRANCH  14  15
ENDBRANCH  10  14
ENDBRANCH   6   7
ENDBRANCH   3   5
BRANCH   1  21
ATOM     21  C   UNL     1       2.957  -4.212   0.929  0.00  0.00    +0.163 C 
BRANCH  21  22
ATOM     22  N   UNL     1       2.254  -2.960   0.634  0.00  0.00    -0.300 N 
ATOM     23  C   UNL     1       0.978  -2.794   1.033  0.00  0.00    +0.245 C 
ATOM     24  O   UNL     1       0.409  -3.683   1.637  0.00  0.00    -0.270 OA
ATOM     25  H   UNL     1       2.769  -2.156   0.088  0.00  0.00    +0.150 HD
BRANCH  23  26
ATOM     26  C   UNL     1       0.269  -1.532   0.736  0.00  0.00    +0.037 A 
ATOM     27  C   UNL     1      -1.053  -1.357   1.148  0.00  0.00    +0.014 A 
ATOM     28  C   UNL     1      -1.710  -0.177   0.868  0.00  0.00    +0.021 A 
ATOM     29  C   UNL     1      -1.059   0.834   0.179  0.00  0.00    +0.041 A 
ATOM     30  C   UNL     1       0.253   0.666  -0.233  0.00  0.00    +0.021 A 
ATOM     31  C   UNL     1       0.919  -0.510   0.042  0.00  0.00    +0.014 A 
ATOM     32 CL   UNL     1      -1.892   2.316  -0.171  0.00  0.00    -0.084 Cl
ENDBRANCH  23  26
ENDBRANCH  21  22
BRANCH  21  34
ATOM     33  C   UNL     1       2.442  -3.932   3.357  0.00  0.00    +0.009 C 
ATOM     34  C   UNL     1       3.559  -4.140   2.333  0.00  0.00    +0.012 C 
ATOM     35  C   UNL     1       4.295  -5.446   2.640  0.00  0.00    +0.009 C 
ENDBRANCH  21  34
ENDBRANCH   1  21
TORSDOF 9
