REMARK  Name = ZINC65408561
REMARK  5 active torsions:
REMARK  status: ('A' for Active; 'I' for Inactive)
REMARK    1  A    between atoms: C_4  and  C_7
REMARK    2  A    between atoms: C_7  and  O_26
REMARK    3  A    between atoms: C_21  and  C_23
REMARK    4  A    between atoms: C_23  and  C_24
REMARK    5  A    between atoms: C_24  and  N_25
REMARK                            x       y       z     vdW  Elec       q    Type
REMARK                         _______ _______ _______ _____ _____    ______ ____
ROOT
ATOM      1  C   UNL     1       3.693  -0.749   0.047  0.00  0.00    +0.094 C 
ATOM      2  C   UNL     1       4.015  -1.010  -1.426  0.00  0.00    +0.058 C 
ATOM      3  C   UNL     1       5.388  -1.682  -1.532  0.00  0.00    +0.109 C 
ATOM      4  N   UNL     1       5.392  -2.886  -0.691  0.00  0.00    -0.314 N 
ATOM      5  C   UNL     1       5.008  -2.762   0.722  0.00  0.00    +0.109 C 
ATOM      6  C   UNL     1       3.640  -2.079   0.803  0.00  0.00    +0.058 C 
ATOM      7  C   UNL     1       5.748  -4.110  -1.218  0.00  0.00    +0.133 A 
ATOM      8  C   UNL     1       7.095  -4.547  -1.197  0.00  0.00    +0.040 A 
ATOM      9  C   UNL     1       8.121  -3.769  -0.647  0.00  0.00    +0.013 A 
ATOM     10  C   UNL     1       9.400  -4.243  -0.655  0.00  0.00    +0.001 A 
ATOM     11  C   UNL     1       9.698  -5.488  -1.203  0.00  0.00    +0.002 A 
ATOM     12  C   UNL     1       8.721  -6.269  -1.745  0.00  0.00    +0.028 A 
ATOM     13  C   UNL     1       7.396  -5.813  -1.754  0.00  0.00    +0.076 A 
ATOM     14  N   UNL     1       6.397  -6.542  -2.274  0.00  0.00    -0.232 NA
ATOM     15  C   UNL     1       5.167  -6.087  -2.266  0.00  0.00    +0.130 A 
ATOM     16  N   UNL     1       4.837  -4.912  -1.752  0.00  0.00    -0.217 NA
ENDROOT
BRANCH   1  20
ATOM     17  C   UNL     1      -0.091   1.211   0.348  0.00  0.00    +0.000 A 
ATOM     18  C   UNL     1       1.067   1.957   0.230  0.00  0.00    +0.000 A 
ATOM     19  C   UNL     1       2.291   1.323   0.133  0.00  0.00    +0.006 A 
ATOM     20  C   UNL     1       2.358  -0.058   0.154  0.00  0.00    -0.016 A 
ATOM     21  C   UNL     1       1.200  -0.804   0.273  0.00  0.00    +0.006 A 
ATOM     22  C   UNL     1      -0.024  -0.170   0.369  0.00  0.00    +0.000 A 
ENDBRANCH   1  20
BRANCH   1  23
ATOM     23  O   UNL     1       4.706   0.082   0.616  0.00  0.00    -0.384 OA
ATOM     24  H   UNL     1       4.796   0.944   0.186  0.00  0.00    +0.211 HD
ENDBRANCH   1  23
BRANCH  15  25
ATOM     25  C   UNL     1       4.079  -6.942  -2.863  0.00  0.00    +0.057 C 
BRANCH  25  26
ATOM     26  C   UNL     1       3.491  -7.848  -1.780  0.00  0.00    -0.079 C 
BRANCH  26  27
ATOM     27  N   UNL     1       2.431  -8.682  -2.362  0.00  0.00    +0.378 N 
ATOM     28  H   UNL     1       1.705  -8.090  -2.736  0.00  0.00    -0.090 HD
ATOM     29  H   UNL     1       2.817  -9.249  -3.102  0.00  0.00    -0.090 HD
ATOM     30  H   UNL     1       2.043  -9.280  -1.647  0.00  0.00    -0.090 HD
ENDBRANCH  26  27
ENDBRANCH  25  26
ENDBRANCH  15  25
TORSDOF 5
