REMARK  Name = ZINC63513940
REMARK  3 active torsions:
REMARK  status: ('A' for Active; 'I' for Inactive)
REMARK    1  A    between atoms: C_14  and  C_29
REMARK    2  A    between atoms: C_16  and  O_28
REMARK    3  A    between atoms: N_31  and  N_32
REMARK                            x       y       z     vdW  Elec       q    Type
REMARK                         _______ _______ _______ _____ _____    ______ ____
ROOT
ATOM      1  C   UNL     1      -0.016   1.355   0.009  0.00  0.00    +0.001 A 
ATOM      2  C   UNL     1       1.141   2.140   0.003  0.00  0.00    +0.002 A 
ATOM      3  C   UNL     1       2.404   1.644  -0.015  0.00  0.00    +0.026 A 
ATOM      4  C   UNL     1       2.552   0.227  -0.027  0.00  0.00    +0.043 A 
ATOM      5  N   UNL     1       3.626  -0.506  -0.026  0.00  0.00    -0.376 N 
ATOM      6  C   UNL     1       3.227  -1.914  -0.103  0.00  0.00    +0.123 C 
ATOM      7  C   UNL     1       3.769  -2.717   1.083  0.00  0.00    +0.083 C 
ATOM      8  C   UNL     1       4.659  -1.790   1.920  0.00  0.00    +0.025 C 
ATOM      9  C   UNL     1       5.195  -2.551   3.132  0.00  0.00    -0.004 C 
ATOM     10  C   UNL     1       6.044  -1.619   3.998  0.00  0.00    +0.019 C 
ATOM     11  C   UNL     1       6.567  -2.393   5.211  0.00  0.00    +0.105 C 
ATOM     12  C   UNL     1       5.388  -2.922   6.030  0.00  0.00    +0.127 C 
ATOM     13  C   UNL     1       4.531  -3.845   5.160  0.00  0.00    +0.037 C 
ATOM     14  C   UNL     1       4.008  -3.071   3.950  0.00  0.00    +0.009 C 
ATOM     15  C   UNL     1       3.162  -3.984   3.064  0.00  0.00    +0.088 C 
ATOM     16  N   UNL     1       2.669  -3.228   1.900  0.00  0.00    -0.297 NA
ATOM     17  C   UNL     1       1.690  -4.043   1.173  0.00  0.00    +0.089 C 
ATOM     18  C   UNL     1       0.925  -3.185   0.153  0.00  0.00    +0.049 C 
ATOM     19  C   UNL     1       1.706  -1.907  -0.015  0.00  0.00    -0.036 C 
ATOM     20  C   UNL     1       1.331  -0.636  -0.013  0.00  0.00    -0.001 A 
ATOM     21  C   UNL     1       0.002  -0.004   0.002  0.00  0.00    +0.010 A 
ATOM     22  H   UNL     1       4.538  -0.176   0.017  0.00  0.00    +0.160 HD
ENDROOT
BRANCH  11  23
ATOM     23  C   UNL     1       7.411  -3.550   4.742  0.00  0.00    +0.232 C 
ATOM     24  O   UNL     1       7.577  -3.737   3.555  0.00  0.00    -0.274 OA
ATOM     25  N   UNL     1       7.980  -4.377   5.641  0.00  0.00    -0.253 N 
ATOM     26  H   UNL     1       7.847  -4.228   6.590  0.00  0.00    +0.169 HD
BRANCH  25  27
ATOM     27  N   UNL     1       8.745  -5.426   5.215  0.00  0.00    -0.254 NA
ATOM     28  H   UNL     1       9.102  -5.954   5.998  0.00  0.00    +0.140 HD
ATOM     29  H   UNL     1       8.226  -6.020   4.586  0.00  0.00    +0.140 HD
ENDBRANCH  25  27
ENDBRANCH  11  23
BRANCH  12  30
ATOM     30  O   UNL     1       5.881  -3.652   7.155  0.00  0.00    -0.391 OA
ATOM     31  H   UNL     1       5.187  -4.018   7.721  0.00  0.00    +0.210 HD
ENDBRANCH  12  30
TORSDOF 3
