REMARK  Name = ZINC60091379
REMARK  6 active torsions:
REMARK  status: ('A' for Active; 'I' for Inactive)
REMARK    1  A    between atoms: C_6  and  O_7
REMARK    2  A    between atoms: O_7  and  C_8
REMARK    3  A    between atoms: C_8  and  C_9
REMARK    4  A    between atoms: C_9  and  C_11
REMARK    5  A    between atoms: C_9  and  O_24
REMARK    6  A    between atoms: C_11  and  N_12
REMARK                            x       y       z     vdW  Elec       q    Type
REMARK                         _______ _______ _______ _____ _____    ______ ____
ROOT
ATOM      1  C   UNL     1      -3.576  -0.886   0.031  0.00  0.00    +0.170 C 
ENDROOT
BRANCH   1   2
ATOM      2  O   UNL     1      -3.608  -1.621  -1.193  0.00  0.00    -0.387 OA
ATOM      3  H   UNL     1      -3.686  -1.068  -1.983  0.00  0.00    +0.210 HD
ENDBRANCH   1   2
BRANCH   1   4
ATOM      4  C   UNL     1      -2.375   0.063   0.025  0.00  0.00    +0.261 C 
BRANCH   4   5
ATOM      5  O   UNL     1      -1.166  -0.700   0.009  0.00  0.00    -0.489 OA
BRANCH   5  11
ATOM      6  C   UNL     1      -0.017   1.382   0.010  0.00  0.00    +0.049 A 
ATOM      7  C   UNL     1       1.170   2.092   0.002  0.00  0.00    +0.053 A 
ATOM      8  C   UNL     1       2.381   1.419  -0.013  0.00  0.00    +0.166 A 
ATOM      9  C   UNL     1       2.402   0.027  -0.021  0.00  0.00    +0.170 A 
ATOM     10  C   UNL     1       1.212  -0.682  -0.012  0.00  0.00    +0.095 A 
ATOM     11  C   UNL     1       0.002  -0.004   0.002  0.00  0.00    +0.124 A 
ATOM     12  O   UNL     1       3.702  -0.390  -0.037  0.00  0.00    -0.452 OA
ATOM     13  C   UNL     1       4.468   0.757  -0.451  0.00  0.00    +0.466 C 
ATOM     14  O   UNL     1       3.668   1.875  -0.024  0.00  0.00    -0.453 OA
ENDBRANCH   5  11
ENDBRANCH   4   5
ENDBRANCH   1   4
BRANCH   1  15
ATOM     15  C   UNL     1      -4.865  -0.074   0.174  0.00  0.00    +0.152 C 
BRANCH  15  16
ATOM     16  N   UNL     1      -6.005  -0.987   0.300  0.00  0.00    -0.222 N 
ATOM     17  C   UNL     1      -6.714  -1.464  -0.746  0.00  0.00    +0.244 C 
ATOM     18  O   UNL     1      -6.563  -1.192  -1.917  0.00  0.00    -0.273 OA
ATOM     19  C   UNL     1      -7.735  -2.406  -0.149  0.00  0.00    +0.164 C 
ATOM     20  C   UNL     1      -9.156  -1.974  -0.520  0.00  0.00    +0.032 C 
ATOM     21  C   UNL     1     -10.146  -2.704   0.393  0.00  0.00    +0.004 C 
ATOM     22  C   UNL     1      -9.932  -2.296   1.851  0.00  0.00    +0.019 C 
ATOM     23  C   UNL     1      -8.521  -2.704   2.301  0.00  0.00    +0.110 C 
ATOM     24  N   UNL     1      -7.561  -2.208   1.306  0.00  0.00    -0.274 N 
ATOM     25  C   UNL     1      -6.468  -1.456   1.468  0.00  0.00    +0.312 C 
ATOM     26  O   UNL     1      -5.957  -1.223   2.545  0.00  0.00    -0.252 OA
ENDBRANCH  15  16
ENDBRANCH   1  15
TORSDOF 6
