REMARK  Name = ZINC12492983
REMARK  7 active torsions:
REMARK  status: ('A' for Active; 'I' for Inactive)
REMARK    1  A    between atoms: C_1  and  C_2
REMARK    2  A    between atoms: C_5  and  O_8
REMARK    3  A    between atoms: O_8  and  C_9
REMARK    4  A    between atoms: C_9  and  C_10
REMARK    5  A    between atoms: N_12  and  N_13
REMARK    6  A    between atoms: C_14  and  C_16
REMARK    7  A    between atoms: C_19  and  C_23
REMARK                            x       y       z     vdW  Elec       q    Type
REMARK                         _______ _______ _______ _____ _____    ______ ____
ROOT
ATOM      1  C   UNL     1      -0.016   1.344   0.009  0.00  0.00    +0.267 C 
ATOM      2  O   UNL     1      -1.075   1.936   0.018  0.00  0.00    -0.271 OA
ATOM      3  N   UNL     1       0.002  -0.004   0.002  0.00  0.00    -0.231 N 
ATOM      4  H   UNL     1       0.849  -0.478  -0.009  0.00  0.00    +0.173 HD
ENDROOT
BRANCH   3   5
ATOM      5  N   UNL     1      -1.202  -0.721   0.010  0.00  0.00    -0.230 N 
ATOM      6  C   UNL     1      -1.183  -2.069   0.002  0.00  0.00    +0.260 C 
ATOM      7  O   UNL     1      -0.122  -2.662  -0.011  0.00  0.00    -0.269 OA
ATOM      8  H   UNL     1      -2.048  -0.247   0.020  0.00  0.00    +0.173 HD
BRANCH   6   9
ATOM      9  C   UNL     1      -2.454  -2.825   0.010  0.00  0.00    +0.039 A 
ATOM     10  C   UNL     1      -3.673  -2.147   0.031  0.00  0.00    +0.013 A 
ATOM     11  C   UNL     1      -4.855  -2.858   0.033  0.00  0.00    +0.005 A 
ATOM     12  C   UNL     1      -4.833  -4.242   0.025  0.00  0.00    -0.037 A 
ATOM     13  C   UNL     1      -3.627  -4.921   0.010  0.00  0.00    +0.017 A 
ATOM     14  C   UNL     1      -2.438  -4.221   0.003  0.00  0.00    +0.027 A 
ATOM     15  I   UNL     1      -3.607  -7.016  -0.002  0.00  0.00    -0.044 I 
ATOM     16  C   UNL     1      -6.128  -5.013   0.033  0.00  0.00    +0.045 C 
ENDBRANCH   6   9
ENDBRANCH   3   5
BRANCH   1  17
ATOM     17  C   UNL     1       1.278   2.115   0.001  0.00  0.00    +0.326 C 
BRANCH  17  18
ATOM     18  O   UNL     1       0.998   3.516   0.011  0.00  0.00    -0.483 OA
BRANCH  18  23
ATOM     19  C   UNL     1       5.418   7.008  -0.012  0.00  0.00    +0.044 C 
ATOM     20  C   UNL     1       4.236   6.073  -0.006  0.00  0.00    -0.050 A 
ATOM     21  C   UNL     1       2.951   6.586   0.009  0.00  0.00    +0.007 A 
ATOM     22  C   UNL     1       1.866   5.731   0.015  0.00  0.00    +0.046 A 
ATOM     23  C   UNL     1       2.065   4.358   0.006  0.00  0.00    +0.121 A 
ATOM     24  C   UNL     1       3.354   3.847  -0.004  0.00  0.00    +0.046 A 
ATOM     25  C   UNL     1       4.436   4.705  -0.016  0.00  0.00    +0.007 A 
ENDBRANCH  18  23
ENDBRANCH  17  18
ENDBRANCH   1  17
TORSDOF 5
