REMARK  Name = ZINC22055017
REMARK  14 active torsions:
REMARK  status: ('A' for Active; 'I' for Inactive)
REMARK    1  A    between atoms: C_1  and  C_2
REMARK    2  A    between atoms: C_2  and  C_3
REMARK    3  A    between atoms: C_3  and  C_4
REMARK    4  A    between atoms: C_7  and  C_12
REMARK    5  A    between atoms: N_9  and  C_11
REMARK    6  A    between atoms: N_14  and  C_15
REMARK    7  A    between atoms: C_15  and  C_17
REMARK    8  A    between atoms: C_15  and  C_33
REMARK    9  A    between atoms: C_19  and  O_32
REMARK   10  A    between atoms: C_21  and  O_31
REMARK   11  A    between atoms: C_23  and  O_30
REMARK   12  A    between atoms: C_25  and  S_28
REMARK   13  A    between atoms: S_28  and  C_29
REMARK   14  A    between atoms: C_33  and  C_35
REMARK                            x       y       z     vdW  Elec       q    Type
REMARK                         _______ _______ _______ _____ _____    ______ ____
ROOT
ATOM      1  C   UNL     1      -4.503   3.114   3.392  0.00  0.00    +0.122 C 
ENDROOT
BRANCH   1   2
ATOM      2  C   UNL     1      -4.442   2.810   4.891  0.00  0.00    +0.172 C 
ATOM      3  C   UNL     1      -2.997   2.944   5.380  0.00  0.00    +0.176 C 
ATOM      4  C   UNL     1      -2.953   2.697   6.891  0.00  0.00    +0.177 C 
ATOM      5  C   UNL     1      -3.897   3.684   7.586  0.00  0.00    +0.184 C 
ATOM      6  C   UNL     1      -5.306   3.521   7.011  0.00  0.00    +0.207 C 
ATOM      7  O   UNL     1      -5.271   3.733   5.599  0.00  0.00    -0.356 OA
BRANCH   6   8
ATOM      8  S   UNL     1      -6.416   4.735   7.778  0.00  0.00    -0.131 S 
ATOM      9  C   UNL     1      -8.069   4.222   7.235  0.00  0.00    +0.087 C 
ENDBRANCH   6   8
BRANCH   5  10
ATOM     10  O   UNL     1      -3.919   3.416   8.989  0.00  0.00    -0.386 OA
ATOM     11  H   UNL     1      -4.545   4.027   9.656  0.00  0.00    +0.210 HD
ENDBRANCH   5  10
BRANCH   4  12
ATOM     12  O   UNL     1      -1.620   2.890   7.369  0.00  0.00    -0.386 OA
ATOM     13  H   UNL     1      -1.394   2.756   8.437  0.00  0.00    +0.210 HD
ENDBRANCH   4  12
BRANCH   3  14
ATOM     14  O   UNL     1      -2.176   1.981   4.715  0.00  0.00    -0.387 OA
ATOM     15  H   UNL     1      -1.101   1.927   4.939  0.00  0.00    +0.210 HD
ENDBRANCH   3  14
ENDBRANCH   1   2
BRANCH   1  18
ATOM     16  C   UNL     1      -3.140   2.504   1.466  0.00  0.00    +0.200 C 
ATOM     17  O   UNL     1      -3.385   3.591   0.987  0.00  0.00    -0.278 OA
ATOM     18  N   UNL     1      -3.652   2.167   2.667  0.00  0.00    -0.310 N 
ATOM     19  H   UNL     1      -3.430   1.181   3.102  0.00  0.00    +0.149 HD
BRANCH  16  22
ATOM     20  C   UNL     1      -0.013   1.086   0.008  0.00  0.00    -0.029 C 
ATOM     21  C   UNL     1      -0.801   1.617   1.234  0.00  0.00    -0.005 C 
ATOM     22  C   UNL     1      -2.265   1.531   0.720  0.00  0.00    +0.019 C 
ATOM     23  N   UNL     1      -2.187   1.900  -0.709  0.00  0.00    +0.386 N 
ATOM     24  C   UNL     1      -0.820   1.627  -1.191  0.00  0.00    -0.075 C 
ATOM     25  C   UNL     1      -3.180   1.161  -1.499  0.00  0.00    -0.095 C 
ATOM     26  H   UNL     1      -2.414   2.970  -0.832  0.00  0.00    -0.081 HD
BRANCH  20  27
ATOM     27  C   UNL     1       1.412   1.644  -0.003  0.00  0.00    +0.001 C 
BRANCH  27  29
ATOM     28  C   UNL     1       3.607   1.611  -1.195  0.00  0.00    +0.004 C 
ATOM     29  C   UNL     1       2.183   1.053  -1.185  0.00  0.00    -0.003 C 
ENDBRANCH  27  29
ENDBRANCH  20  27
ENDBRANCH  16  22
ENDBRANCH   1  18
BRANCH   1  30
ATOM     30  C   UNL     1      -5.947   2.979   2.904  0.00  0.00    +0.100 C 
ATOM     31  C   UNL     1      -5.990   3.160   1.385  0.00  0.00    +0.026 C 
ATOM     32 CL   UNL     1      -6.577   1.345   3.332  0.00  0.00    -0.120 Cl
ENDBRANCH   1  30
TORSDOF 10
