REMARK  Name = ZINC66218316
REMARK  11 active torsions:
REMARK  status: ('A' for Active; 'I' for Inactive)
REMARK    1  A    between atoms: C_1  and  C_2
REMARK    2  A    between atoms: C_4  and  O_26
REMARK    3  A    between atoms: C_7  and  N_8
REMARK    4  A    between atoms: C_9  and  C_11
REMARK    5  A    between atoms: N_13  and  C_14
REMARK    6  A    between atoms: C_14  and  C_15
REMARK    7  A    between atoms: C_15  and  N_23
REMARK    8  A    between atoms: C_19  and  C_22
REMARK    9  A    between atoms: N_23  and  C_24
REMARK   10  A    between atoms: N_23  and  C_25
REMARK   11  A    between atoms: O_26  and  C_27
REMARK                            x       y       z     vdW  Elec       q    Type
REMARK                         _______ _______ _______ _____ _____    ______ ____
ROOT
ATOM      1  C   UNL     1      -1.262   2.045   6.631  0.00  0.00    +0.299 C 
ATOM      2  O   UNL     1      -0.477   2.232   5.724  0.00  0.00    -0.265 OA
ATOM      3  N   UNL     1      -0.977   1.147   7.595  0.00  0.00    -0.309 N 
ATOM      4  H   UNL     1      -1.604   0.998   8.319  0.00  0.00    +0.149 HD
ENDROOT
BRANCH   1   6
ATOM      5  N   UNL     1      -2.827   3.710   5.716  0.00  0.00    -0.278 N 
ATOM      6  C   UNL     1      -2.542   2.812   6.679  0.00  0.00    +0.303 C 
ATOM      7  O   UNL     1      -3.327   2.625   7.587  0.00  0.00    -0.265 OA
ATOM      8  H   UNL     1      -2.229   3.816   4.960  0.00  0.00    +0.155 HD
BRANCH   5  15
ATOM      9  C   UNL     1      -2.725   6.381   4.744  0.00  0.00    +0.046 C 
ATOM     10  C   UNL     1      -3.979   5.799   5.344  0.00  0.00    -0.026 A 
ATOM     11  C   UNL     1      -5.124   6.566   5.429  0.00  0.00    +0.050 A 
ATOM     12  C   UNL     1      -6.279   6.030   5.981  0.00  0.00    +0.120 A 
ATOM     13  C   UNL     1      -6.284   4.724   6.448  0.00  0.00    +0.047 A 
ATOM     14  C   UNL     1      -5.140   3.956   6.365  0.00  0.00    +0.027 A 
ATOM     15  C   UNL     1      -3.985   4.489   5.806  0.00  0.00    +0.037 A 
BRANCH  12  16
ATOM     16  O   UNL     1      -7.406   6.786   6.064  0.00  0.00    -0.495 OA
ATOM     17  C   UNL     1      -8.558   6.171   6.644  0.00  0.00    +0.277 C 
ENDBRANCH  12  16
ENDBRANCH   5  15
ENDBRANCH   1   6
BRANCH   3  18
ATOM     18  C   UNL     1       0.280   0.395   7.547  0.00  0.00    +0.093 C 
BRANCH  18  19
ATOM     19  C   UNL     1       0.299  -0.638   8.675  0.00  0.00    -0.050 C 
ATOM     20  C   UNL     1      -0.938  -1.533   8.569  0.00  0.00    -0.010 C 
ATOM     21  C   UNL     1      -0.919  -2.566   9.697  0.00  0.00    -0.001 C 
ATOM     22  C   UNL     1      -0.925  -1.846  11.048  0.00  0.00    +0.003 C 
ATOM     23  C   UNL     1       0.312  -0.952  11.154  0.00  0.00    -0.015 C 
ATOM     24  C   UNL     1       0.293   0.082  10.026  0.00  0.00    -0.007 C 
ATOM     25  C   UNL     1       0.306  -0.232  12.505  0.00  0.00    +0.007 C 
BRANCH  19  26
ATOM     26  N   UNL     1       1.510  -1.462   8.565  0.00  0.00    +0.381 N 
ATOM     27  C   UNL     1       1.567  -2.072   7.230  0.00  0.00    -0.096 C 
ATOM     28  C   UNL     1       2.696  -0.618   8.768  0.00  0.00    -0.096 C 
ATOM     29  H   UNL     1       1.489  -2.187   9.266  0.00  0.00    -0.082 HD
ENDBRANCH  19  26
ENDBRANCH  18  19
ENDBRANCH   3  18
TORSDOF 6
