REMARK  Name = ZINC21252843
REMARK  7 active torsions:
REMARK  status: ('A' for Active; 'I' for Inactive)
REMARK    1  A    between atoms: C_1  and  C_2
REMARK    2  A    between atoms: C_5  and  C_8
REMARK    3  A    between atoms: C_13  and  C_23
REMARK    4  A    between atoms: C_26  and  O_31
REMARK    5  A    between atoms: C_28  and  O_29
REMARK    6  A    between atoms: O_29  and  C_30
REMARK    7  A    between atoms: O_31  and  C_32
REMARK                            x       y       z     vdW  Elec       q    Type
REMARK                         _______ _______ _______ _____ _____    ______ ____
ROOT
ATOM      1  C   UNL     1      -0.905   1.662   1.361  0.00  0.00    +0.032 C 
ATOM      2  C   UNL     1      -2.347   1.163   1.222  0.00  0.00    +0.059 C 
ATOM      3  C   UNL     1      -2.957   1.686  -0.068  0.00  0.00    +0.017 C 
ATOM      4  C   UNL     1      -2.190   1.886  -1.153  0.00  0.00    +0.037 C 
ATOM      5  C   UNL     1      -2.665   2.400  -2.491  0.00  0.00    +0.139 C 
ATOM      6  N   UNL     1      -4.104   2.436  -2.644  0.00  0.00    -0.331 N 
ATOM      7  C   UNL     1      -4.890   3.276  -1.857  0.00  0.00    +0.049 A 
ATOM      8  C   UNL     1      -5.563   4.357  -2.401  0.00  0.00    +0.025 A 
ATOM      9  C   UNL     1      -6.240   5.229  -1.565  0.00  0.00    +0.002 A 
ATOM     10  C   UNL     1      -6.246   5.023  -0.198  0.00  0.00    +0.002 A 
ATOM     11  C   UNL     1      -5.593   3.931   0.348  0.00  0.00    +0.025 A 
ATOM     12  C   UNL     1      -4.931   3.049  -0.489  0.00  0.00    +0.052 A 
ATOM     13  N   UNL     1      -4.295   1.908  -0.014  0.00  0.00    -0.316 N 
ATOM     14  C   UNL     1      -0.801   1.621  -1.101  0.00  0.00    +0.163 C 
ATOM     15  O   UNL     1      -0.135   1.785  -2.105  0.00  0.00    -0.292 OA
ATOM     16  C   UNL     1      -0.121   1.147   0.148  0.00  0.00    +0.088 C 
ATOM     17  H   UNL     1      -4.594   1.795  -3.392  0.00  0.00    +0.147 HD
ATOM     18  H   UNL     1      -4.961   1.153   0.430  0.00  0.00    +0.152 HD
ENDROOT
BRANCH   1  23
ATOM     19  C   UNL     1       1.443  -0.388   6.227  0.00  0.00    +0.044 C 
ATOM     20  C   UNL     1       0.830   0.147   4.958  0.00  0.00    -0.050 A 
ATOM     21  C   UNL     1       0.757   1.511   4.747  0.00  0.00    +0.003 A 
ATOM     22  C   UNL     1       0.196   2.001   3.583  0.00  0.00    +0.004 A 
ATOM     23  C   UNL     1      -0.293   1.127   2.630  0.00  0.00    -0.043 A 
ATOM     24  C   UNL     1      -0.225  -0.237   2.843  0.00  0.00    +0.004 A 
ATOM     25  C   UNL     1       0.340  -0.727   4.005  0.00  0.00    +0.003 A 
ENDBRANCH   1  23
BRANCH   5  26
ATOM     26  C   UNL     1      -2.129   3.795  -2.684  0.00  0.00    +0.019 A 
ATOM     27  C   UNL     1      -1.658   4.510  -1.600  0.00  0.00    +0.013 A 
ATOM     28  C   UNL     1      -1.161   5.787  -1.775  0.00  0.00    +0.046 A 
ATOM     29  C   UNL     1      -1.144   6.359  -3.039  0.00  0.00    +0.124 A 
ATOM     30  C   UNL     1      -1.621   5.646  -4.128  0.00  0.00    +0.091 A 
ATOM     31  C   UNL     1      -2.114   4.362  -3.950  0.00  0.00    +0.129 A 
BRANCH  31  32
ATOM     32  O   UNL     1      -2.582   3.660  -5.016  0.00  0.00    -0.495 OA
ATOM     33  C   UNL     1      -2.536   4.306  -6.290  0.00  0.00    +0.277 C 
ENDBRANCH  31  32
BRANCH  29  34
ATOM     34  O   UNL     1      -0.660   7.617  -3.210  0.00  0.00    -0.495 OA
ATOM     35  C   UNL     1      -0.185   8.294  -2.044  0.00  0.00    +0.277 C 
ENDBRANCH  29  34
ENDBRANCH   5  26
TORSDOF 4
