REMARK  Name = ZINC39996649
REMARK  8 active torsions:
REMARK  status: ('A' for Active; 'I' for Inactive)
REMARK    1  A    between atoms: C_4  and  C_7
REMARK    2  A    between atoms: C_7  and  N_8
REMARK    3  A    between atoms: C_9  and  S_20
REMARK    4  A    between atoms: C_13  and  C_14
REMARK    5  A    between atoms: S_20  and  C_21
REMARK    6  A    between atoms: C_21  and  C_22
REMARK    7  A    between atoms: C_22  and  C_24
REMARK    8  A    between atoms: C_26  and  C_29
REMARK                            x       y       z     vdW  Elec       q    Type
REMARK                         _______ _______ _______ _____ _____    ______ ____
ROOT
ATOM      1  N   UNL     1       4.135  -0.812   1.367  0.00  0.00    -0.281 N 
ATOM      2  C   UNL     1       4.948   0.164   2.112  0.00  0.00    +0.237 C 
ATOM      3  N   UNL     1       5.273  -0.529   3.370  0.00  0.00    -0.237 N 
ATOM      4  N   UNL     1       4.671  -1.791   3.291  0.00  0.00    -0.169 NA
ATOM      5  C   UNL     1       4.033  -1.942   2.178  0.00  0.00    +0.149 C 
ATOM      6  H   UNL     1       5.801  -0.182   4.106  0.00  0.00    +0.171 HD
ENDROOT
BRANCH   5   7
ATOM      7  C   UNL     1       3.289  -3.165   1.807  0.00  0.00    +0.019 A 
ATOM      8  C   UNL     1       3.326  -3.660   0.497  0.00  0.00    +0.029 A 
ATOM      9  C   UNL     1       2.618  -4.804   0.195  0.00  0.00    +0.083 A 
ATOM     10  N   UNL     1       1.914  -5.429   1.120  0.00  0.00    -0.367 N 
ATOM     11  C   UNL     1       1.852  -4.996   2.365  0.00  0.00    +0.083 A 
ATOM     12  C   UNL     1       2.534  -3.863   2.756  0.00  0.00    +0.029 A 
ATOM     13  H   UNL     1       1.426  -6.231   0.877  0.00  0.00    +0.165 HD
ENDBRANCH   5   7
BRANCH   1  14
ATOM     14  C   UNL     1       3.546  -0.629   0.039  0.00  0.00    +0.144 C 
BRANCH  14  18
ATOM     15  C   UNL     1      -0.194   1.402   0.405  0.00  0.00    +0.000 A 
ATOM     16  C   UNL     1       0.982   2.125   0.346  0.00  0.00    +0.000 A 
ATOM     17  C   UNL     1       2.192   1.468   0.228  0.00  0.00    +0.005 A 
ATOM     18  C   UNL     1       2.226   0.087   0.169  0.00  0.00    -0.030 A 
ATOM     19  C   UNL     1       1.050  -0.636   0.229  0.00  0.00    +0.005 A 
ATOM     20  C   UNL     1      -0.161   0.021   0.346  0.00  0.00    +0.000 A 
ENDBRANCH  14  18
ENDBRANCH   1  14
BRANCH   2  21
ATOM     21  S   UNL     1       6.459   0.567   1.194  0.00  0.00    -0.110 S 
BRANCH  21  22
ATOM     22  C   UNL     1       7.310  -1.027   1.030  0.00  0.00    +0.151 C 
BRANCH  22  23
ATOM     23  C   UNL     1       8.600  -0.832   0.275  0.00  0.00    +0.171 C 
ATOM     24  O   UNL     1       8.914   0.273  -0.114  0.00  0.00    -0.291 OA
BRANCH  23  25
ATOM     25  C   UNL     1       9.472  -1.975   0.011  0.00  0.00    +0.019 C 
ATOM     26  C   UNL     1      10.656  -1.964  -0.642  0.00  0.00    +0.041 C 
ATOM     27  C   UNL     1      11.196  -3.330  -0.680  0.00  0.00    +0.121 C 
ATOM     28  N   UNL     1      10.399  -4.160  -0.084  0.00  0.00    -0.274 NA
ATOM     29  C   UNL     1       9.240  -3.413   0.419  0.00  0.00    +0.181 C 
BRANCH  27  30
ATOM     30  C   UNL     1      12.485  -3.709  -1.317  0.00  0.00    +0.265 C 
ATOM     31  O   UNL     1      13.169  -2.862  -1.855  0.00  0.00    -0.268 OA
ATOM     32  N   UNL     1      12.894  -4.993  -1.298  0.00  0.00    -0.296 N 
ATOM     33  C   UNL     1      12.164  -6.116  -0.692  0.00  0.00    +0.108 C 
ATOM     34  C   UNL     1      13.024  -7.382  -0.891  0.00  0.00    +0.020 C 
ATOM     35  C   UNL     1      14.449  -6.805  -1.099  0.00  0.00    +0.020 C 
ATOM     36  C   UNL     1      14.144  -5.505  -1.889  0.00  0.00    +0.108 C 
ENDBRANCH  27  30
ENDBRANCH  23  25
ENDBRANCH  22  23
ENDBRANCH  21  22
ENDBRANCH   2  21
TORSDOF 8
