REMARK  Name = ZINC41209646
REMARK  6 active torsions:
REMARK  status: ('A' for Active; 'I' for Inactive)
REMARK    1  A    between atoms: C_1  and  C_2
REMARK    2  A    between atoms: C_3  and  S_8
REMARK    3  A    between atoms: C_4  and  C_7
REMARK    4  A    between atoms: S_8  and  N_11
REMARK    5  A    between atoms: C_15  and  C_18
REMARK    6  A    between atoms: C_26  and  C_28
REMARK                            x       y       z     vdW  Elec       q    Type
REMARK                         _______ _______ _______ _____ _____    ______ ____
ROOT
ATOM      1  N   UNL     1       1.612  -0.050  -3.289  0.00  0.00    -0.176 NA
ATOM      2  C   UNL     1       2.320   1.219  -3.071  0.00  0.00    +0.109 C 
ATOM      3  C   UNL     1       3.607   0.938  -2.289  0.00  0.00    +0.018 C 
ATOM      4  C   UNL     1       4.428  -0.121  -3.029  0.00  0.00    +0.015 C 
ATOM      5  C   UNL     1       3.624  -1.420  -3.120  0.00  0.00    +0.091 C 
ATOM      6  C   UNL     1       2.339  -1.168  -3.906  0.00  0.00    +0.122 C 
ENDROOT
BRANCH   5   7
ATOM      7  C   UNL     1       4.446  -2.472  -3.820  0.00  0.00    +0.220 C 
ATOM      8  O   UNL     1       4.308  -2.657  -5.010  0.00  0.00    -0.275 OA
ATOM      9  N   UNL     1       5.334  -3.208  -3.122  0.00  0.00    -0.298 N 
ATOM     10  C   UNL     1       5.435  -3.072  -1.662  0.00  0.00    +0.126 C 
ATOM     11  C   UNL     1       5.251  -4.456  -1.027  0.00  0.00    +0.126 C 
ATOM     12  N   UNL     1       6.136  -5.408  -1.713  0.00  0.00    -0.299 N 
ATOM     13  C   UNL     1       6.035  -5.544  -3.173  0.00  0.00    +0.126 C 
ATOM     14  C   UNL     1       6.215  -4.164  -3.807  0.00  0.00    +0.126 C 
ATOM     15  C   UNL     1       7.024  -6.144  -1.015  0.00  0.00    +0.213 C 
ATOM     16  O   UNL     1       7.034  -6.093   0.196  0.00  0.00    -0.276 OA
ATOM     17  C   UNL     1       8.004  -7.029  -1.741  0.00  0.00    +0.109 C 
ENDBRANCH   5   7
BRANCH   1  18
ATOM     18  S   UNL     1       0.027  -0.220  -2.841  0.00  0.00    +0.066 S 
ATOM     19  O   UNL     1      -0.511  -1.266  -3.638  0.00  0.00    -0.153 OA
ATOM     20  O   UNL     1      -0.532   1.087  -2.821  0.00  0.00    -0.153 OA
BRANCH  18  23
ATOM     21  C   UNL     1      -0.009   1.514   0.004  0.00  0.00    +0.071 C 
ATOM     22  C   UNL     1      -0.001   0.007  -0.024  0.00  0.00    +0.107 A 
ATOM     23  C   UNL     1       0.015  -0.798  -1.177  0.00  0.00    +0.170 A 
ATOM     24  C   UNL     1       0.018  -2.087  -0.788  0.00  0.00    +0.161 A 
ATOM     25  O   UNL     1       0.005  -2.115   0.554  0.00  0.00    -0.358 OA
ATOM     26  N   UNL     1      -0.001  -0.777   1.017  0.00  0.00    -0.081 NA
ATOM     27  C   UNL     1       0.032  -3.287  -1.699  0.00  0.00    +0.091 C 
ENDBRANCH  18  23
ENDBRANCH   1  18
TORSDOF 3
