REMARK  Name = ZINC36235738
REMARK  5 active torsions:
REMARK  status: ('A' for Active; 'I' for Inactive)
REMARK    1  A    between atoms: C_1  and  C_2
REMARK    2  A    between atoms: C_2  and  N_3
REMARK    3  A    between atoms: C_12  and  C_16
REMARK    4  A    between atoms: C_13  and  C_15
REMARK    5  A    between atoms: N_24  and  C_25
REMARK                            x       y       z     vdW  Elec       q    Type
REMARK                         _______ _______ _______ _____ _____    ______ ____
ROOT
ATOM      1  C   UNL     1       6.651  -5.475  -3.512  0.00  0.00    +0.083 A 
ATOM      2  C   UNL     1       7.750  -5.369  -2.671  0.00  0.00    +0.098 A 
ATOM      3  C   UNL     1       8.942  -6.011  -3.037  0.00  0.00    +0.253 A 
ATOM      4  O   UNL     1       9.929  -5.940  -2.323  0.00  0.00    -0.268 OA
ATOM      5  N   UNL     1       8.978  -6.708  -4.192  0.00  0.00    -0.295 N 
ATOM      6  H   UNL     1       9.795  -7.157  -4.460  0.00  0.00    +0.172 HD
ATOM      7  C   UNL     1       7.872  -6.781  -4.981  0.00  0.00    +0.200 A 
ATOM      8  N   UNL     1       6.747  -6.187  -4.644  0.00  0.00    -0.215 NA
ATOM      9  N   UNL     1       7.929  -7.494  -6.151  0.00  0.00    -0.285 N 
ATOM     10  H   UNL     1       8.727  -7.999  -6.374  0.00  0.00    +0.155 HD
ENDROOT
BRANCH   1  20
ATOM     11  N   UNL     1      -0.200  -1.949  -0.633  0.00  0.00    +0.382 N 
ATOM     12  C   UNL     1       1.109  -1.285  -0.621  0.00  0.00    -0.060 C 
ATOM     13  C   UNL     1       1.821  -1.536  -1.955  0.00  0.00    +0.089 C 
ATOM     14  N   UNL     1       1.879  -2.988  -2.186  0.00  0.00    -0.303 N 
ATOM     15  C   UNL     1       0.633  -3.760  -2.057  0.00  0.00    +0.089 C 
ATOM     16  C   UNL     1      -0.022  -3.404  -0.718  0.00  0.00    -0.060 C 
ATOM     17  C   UNL     1       3.068  -3.607  -2.517  0.00  0.00    +0.218 A 
ATOM     18  N   UNL     1       4.169  -2.876  -2.619  0.00  0.00    -0.222 NA
ATOM     19  C   UNL     1       5.325  -3.431  -2.932  0.00  0.00    +0.126 A 
ATOM     20  C   UNL     1       5.377  -4.811  -3.158  0.00  0.00    +0.040 A 
ATOM     21  C   UNL     1       4.193  -5.547  -3.040  0.00  0.00    +0.052 A 
ATOM     22  N   UNL     1       3.077  -4.918  -2.717  0.00  0.00    -0.219 NA
ATOM     23  C   UNL     1       4.191  -7.036  -3.272  0.00  0.00    +0.066 C 
ATOM     24  H   UNL     1      -0.729  -1.629  -1.431  0.00  0.00    -0.082 HD
BRANCH  11  26
ATOM     25  C   UNL     1      -1.223  -0.116   0.629  0.00  0.00    -0.017 C 
ATOM     26  C   UNL     1      -0.927  -1.617   0.599  0.00  0.00    -0.082 C 
ENDBRANCH  11  26
ENDBRANCH   1  20
BRANCH   9  27
ATOM     27  C   UNL     1       6.836  -7.495  -7.024  0.00  0.00    +0.036 A 
ATOM     28  C   UNL     1       6.051  -6.357  -7.156  0.00  0.00    +0.043 A 
ATOM     29  C   UNL     1       4.971  -6.360  -8.019  0.00  0.00    +0.044 A 
ATOM     30  C   UNL     1       4.672  -7.495  -8.752  0.00  0.00    +0.040 A 
ATOM     31  C   UNL     1       5.453  -8.630  -8.622  0.00  0.00    +0.044 A 
ATOM     32  C   UNL     1       6.537  -8.631  -7.765  0.00  0.00    +0.043 A 
ATOM     33 CL   UNL     1       5.074 -10.053  -9.542  0.00  0.00    -0.083 Cl
ATOM     34 CL   UNL     1       3.989  -4.938  -8.185  0.00  0.00    -0.083 Cl
ENDBRANCH   9  27
TORSDOF 3
