REMARK  Name = ZINC06198253
REMARK  13 active torsions:
REMARK  status: ('A' for Active; 'I' for Inactive)
REMARK    1  A    between atoms: C_1  and  C_2
REMARK    2  A    between atoms: C_2  and  C_3
REMARK    3  A    between atoms: C_10  and  C_15
REMARK    4  A    between atoms: C_15  and  C_17
REMARK    5  A    between atoms: C_15  and  N_67
REMARK    6  A    between atoms: N_21  and  C_22
REMARK    7  A    between atoms: C_22  and  C_23
REMARK    8  A    between atoms: C_23  and  O_24
REMARK    9  A    between atoms: O_24  and  C_25
REMARK   10  A    between atoms: C_26  and  C_27
REMARK   11  A    between atoms: C_26  and  N_67
REMARK   12  A    between atoms: C_34  and  C_35
REMARK   13  A    between atoms: C_34  and  N_67
REMARK                            x       y       z     vdW  Elec       q    Type
REMARK                         _______ _______ _______ _____ _____    ______ ____
ROOT
ATOM      1  C   UNL     1      -0.059   1.569   0.204  0.00  0.00    +0.040 C 
ENDROOT
BRANCH   1   9
ATOM      2  C   UNL     1      -4.219   2.305  -4.317  0.00  0.00    -0.047 A 
ATOM      3  C   UNL     1      -4.047   3.675  -4.465  0.00  0.00    +0.005 A 
ATOM      4  C   UNL     1      -3.142   4.359  -3.683  0.00  0.00    +0.026 A 
ATOM      5  C   UNL     1      -2.391   3.671  -2.736  0.00  0.00    +0.049 A 
ATOM      6  C   UNL     1      -2.568   2.283  -2.588  0.00  0.00    -0.001 A 
ATOM      7  C   UNL     1      -3.493   1.609  -3.393  0.00  0.00    +0.013 A 
ATOM      8  C   UNL     1      -1.774   1.568  -1.587  0.00  0.00    +0.017 A 
ATOM      9  C   UNL     1      -0.892   2.273  -0.836  0.00  0.00    +0.011 A 
ATOM     10  C   UNL     1      -0.757   3.666  -1.019  0.00  0.00    +0.251 A 
ATOM     11  O   UNL     1       0.037   4.282  -0.329  0.00  0.00    -0.268 OA
ATOM     12  N   UNL     1      -1.478   4.330  -1.939  0.00  0.00    -0.322 N 
ATOM     13  H   UNL     1      -1.351   5.316  -2.048  0.00  0.00    +0.169 HD
BRANCH   2  15
ATOM     14  C   UNL     1      -6.581   1.569  -4.493  0.00  0.00    +0.009 C 
ATOM     15  C   UNL     1      -5.216   1.579  -5.184  0.00  0.00    +0.032 C 
ENDBRANCH   2  15
ENDBRANCH   1   9
BRANCH   1  16
ATOM     16  C   UNL     1      -0.413   2.092   1.572  0.00  0.00    +0.143 A 
ATOM     17  N   UNL     1      -0.059   3.246   2.084  0.00  0.00    -0.115 NA
ATOM     18  N   UNL     1      -0.559   3.325   3.268  0.00  0.00    -0.023 NA
ATOM     19  N   UNL     1      -1.216   2.249   3.528  0.00  0.00    -0.044 NA
ATOM     20  N   UNL     1      -1.150   1.464   2.507  0.00  0.00    -0.228 N 
BRANCH  20  21
ATOM     21  C   UNL     1      -1.762   0.139   2.387  0.00  0.00    +0.175 C 
BRANCH  21  22
ATOM     22  C   UNL     1      -0.779  -0.923   2.883  0.00  0.00    +0.183 C 
BRANCH  22  23
ATOM     23  O   UNL     1      -1.376  -2.217   2.766  0.00  0.00    -0.381 OA
ATOM     24  C   UNL     1      -0.536  -3.286   3.206  0.00  0.00    +0.194 C 
ENDBRANCH  22  23
ENDBRANCH  21  22
ENDBRANCH  20  21
ENDBRANCH   1  16
BRANCH   1  25
ATOM     25  N   UNL     1       1.371   1.841  -0.052  0.00  0.00    +0.397 N 
ATOM     26  H   UNL     1       1.596   2.784   0.285  0.00  0.00    -0.079 HD
BRANCH  25  27
ATOM     27  C   UNL     1       1.648   1.770  -1.502  0.00  0.00    -0.041 C 
BRANCH  27  28
ATOM     28  C   UNL     1       2.937   2.497  -1.784  0.00  0.00    -0.064 A 
ATOM     29  C   UNL     1       2.935   3.870  -1.942  0.00  0.00    +0.004 A 
ATOM     30  C   UNL     1       4.117   4.539  -2.195  0.00  0.00    +0.038 A 
ATOM     31  C   UNL     1       5.303   3.832  -2.301  0.00  0.00    +0.123 A 
ATOM     32  C   UNL     1       5.303   2.456  -2.148  0.00  0.00    +0.038 A 
ATOM     33  C   UNL     1       4.120   1.790  -1.890  0.00  0.00    +0.004 A 
ATOM     34  F   UNL     1       6.459   4.484  -2.554  0.00  0.00    -0.205 F 
ENDBRANCH  27  28
ENDBRANCH  25  27
BRANCH  25  35
ATOM     35  C   UNL     1       2.209   0.861   0.671  0.00  0.00    -0.001 C 
BRANCH  35  36
ATOM     36  C   UNL     1       1.950  -0.533   0.162  0.00  0.00    +0.089 A 
ATOM     37  C   UNL     1       2.685  -1.184  -0.758  0.00  0.00    +0.042 A 
ATOM     38  C   UNL     1       2.088  -2.454  -0.935  0.00  0.00    +0.041 A 
ATOM     39  C   UNL     1       1.025  -2.503  -0.113  0.00  0.00    +0.195 A 
ATOM     40  O   UNL     1       0.949  -1.339   0.553  0.00  0.00    -0.470 OA
ENDBRANCH  35  36
ENDBRANCH  25  35
ENDBRANCH   1  25
TORSDOF 11
