REMARK  Name = ZINC66658257
REMARK  8 active torsions:
REMARK  status: ('A' for Active; 'I' for Inactive)
REMARK    1  A    between atoms: C_1  and  C_2
REMARK    2  A    between atoms: C_2  and  C_3
REMARK    3  A    between atoms: N_5  and  C_6
REMARK    4  A    between atoms: C_6  and  C_8
REMARK    5  A    between atoms: C_6  and  C_14
REMARK    6  A    between atoms: C_19  and  N_22
REMARK    7  A    between atoms: N_22  and  C_23
REMARK    8  A    between atoms: C_28  and  C_29
REMARK                            x       y       z     vdW  Elec       q    Type
REMARK                         _______ _______ _______ _____ _____    ______ ____
ROOT
ATOM      1  C   UNL     1      -3.682  -1.747   1.361  0.00  0.00    +0.240 C 
ATOM      2  O   UNL     1      -3.200  -0.750   1.854  0.00  0.00    -0.273 OA
ATOM      3  N   UNL     1      -4.795  -2.290   1.892  0.00  0.00    -0.300 N 
ATOM      4  C   UNL     1      -5.330  -3.557   1.375  0.00  0.00    +0.109 C 
ATOM      5  C   UNL     1      -6.804  -3.357   1.008  0.00  0.00    +0.041 C 
ATOM      6  C   UNL     1      -7.557  -2.805   2.220  0.00  0.00    +0.073 C 
ATOM      7  C   UNL     1      -6.969  -1.448   2.614  0.00  0.00    +0.041 C 
ATOM      8  C   UNL     1      -5.494  -1.630   3.003  0.00  0.00    +0.109 C 
ENDROOT
BRANCH   6   9
ATOM      9  N   UNL     1      -8.974  -2.644   1.883  0.00  0.00    -0.341 N 
ATOM     10  H   UNL     1      -9.241  -2.521   0.958  0.00  0.00    +0.146 HD
BRANCH   9  11
ATOM     11  C   UNL     1      -9.939  -2.667   2.892  0.00  0.00    +0.030 A 
ATOM     12  C   UNL     1      -9.557  -2.838   4.217  0.00  0.00    +0.023 A 
ATOM     13  C   UNL     1     -10.514  -2.860   5.212  0.00  0.00    +0.002 A 
ATOM     14  C   UNL     1     -11.852  -2.713   4.891  0.00  0.00    +0.000 A 
ATOM     15  C   UNL     1     -12.235  -2.543   3.573  0.00  0.00    +0.005 A 
ATOM     16  C   UNL     1     -11.282  -2.514   2.574  0.00  0.00    -0.030 A 
ATOM     17  C   UNL     1     -11.701  -2.323   1.138  0.00  0.00    +0.045 C 
ENDBRANCH   9  11
ENDBRANCH   6   9
BRANCH   1  18
ATOM     18  C   UNL     1      -3.037  -2.379   0.155  0.00  0.00    +0.190 C 
BRANCH  18  19
ATOM     19  C   UNL     1      -3.845  -2.055  -1.075  0.00  0.00    -0.018 A 
ATOM     20  C   UNL     1      -4.936  -1.212  -0.983  0.00  0.00    +0.006 A 
ATOM     21  C   UNL     1      -5.678  -0.915  -2.111  0.00  0.00    +0.000 A 
ATOM     22  C   UNL     1      -5.328  -1.461  -3.331  0.00  0.00    +0.000 A 
ATOM     23  C   UNL     1      -4.237  -2.304  -3.424  0.00  0.00    +0.000 A 
ATOM     24  C   UNL     1      -3.493  -2.598  -2.296  0.00  0.00    +0.006 A 
ENDBRANCH  18  19
BRANCH  18  27
ATOM     25  C   UNL     1      -1.487  -0.554  -0.296  0.00  0.00    +0.214 C 
ATOM     26  O   UNL     1      -2.439   0.166  -0.507  0.00  0.00    -0.276 OA
ATOM     27  N   UNL     1      -1.678  -1.856  -0.002  0.00  0.00    -0.300 N 
ATOM     28  H   UNL     1      -0.915  -2.446   0.104  0.00  0.00    +0.150 HD
BRANCH  25  30
ATOM     29  C   UNL     1      -0.152   1.495  -0.709  0.00  0.00    +0.013 C 
ATOM     30  C   UNL     1      -0.089   0.006  -0.361  0.00  0.00    +0.092 C 
ENDBRANCH  25  30
ENDBRANCH  18  27
ENDBRANCH   1  18
TORSDOF 6
