REMARK  Name = ZINC51103308
REMARK  6 active torsions:
REMARK  status: ('A' for Active; 'I' for Inactive)
REMARK    1  A    between atoms: C_1  and  O_2
REMARK    2  A    between atoms: O_2  and  C_3
REMARK    3  A    between atoms: N_12  and  C_13
REMARK    4  A    between atoms: C_13  and  C_15
REMARK    5  A    between atoms: C_15  and  N_16
REMARK    6  A    between atoms: C_20  and  C_23
REMARK                            x       y       z     vdW  Elec       q    Type
REMARK                         _______ _______ _______ _____ _____    ______ ____
ROOT
ATOM      1  C   UNL     1       0.159  -6.543   0.078  0.00  0.00    +0.252 C 
ATOM      2  O   UNL     1       0.770  -6.753   1.108  0.00  0.00    -0.272 OA
ENDROOT
BRANCH   1  12
ATOM      3  C   UNL     1       0.626  -0.619   1.042  0.00  0.00    +0.144 A 
ATOM      4  C   UNL     1       1.197   0.141   2.043  0.00  0.00    +0.048 A 
ATOM      5  C   UNL     1       1.839  -0.455   3.115  0.00  0.00    +0.005 A 
ATOM      6  C   UNL     1       1.909  -1.836   3.183  0.00  0.00    +0.017 A 
ATOM      7  C   UNL     1       1.340  -2.595   2.187  0.00  0.00    +0.042 A 
ATOM      8  C   UNL     1       0.679  -2.023   1.092  0.00  0.00    +0.097 A 
ATOM      9  N   UNL     1       0.169  -2.949   0.200  0.00  0.00    -0.332 N 
ATOM     10  C   UNL     1       0.333  -4.275   0.438  0.00  0.00    +0.164 A 
ATOM     11  S   UNL     1       1.197  -4.336   1.879  0.00  0.00    -0.052 S 
ATOM     12  N   UNL     1      -0.089  -5.296  -0.305  0.00  0.00    -0.155 NA
ATOM     13  H   UNL     1      -0.303  -2.652  -0.593  0.00  0.00    +0.168 HD
BRANCH   3  15
ATOM     14  C   UNL     1      -0.017   1.425   0.010  0.00  0.00    +0.277 C 
ATOM     15  O   UNL     1       0.002  -0.004   0.002  0.00  0.00    -0.493 OA
ENDBRANCH   3  15
ENDBRANCH   1  12
BRANCH   1  16
ATOM     16  C   UNL     1      -0.318  -7.699  -0.764  0.00  0.00    +0.182 C 
BRANCH  16  17
ATOM     17  N   UNL     1       0.078  -8.963  -0.129  0.00  0.00    -0.289 NA
ATOM     18  C   UNL     1       1.540  -9.118  -0.130  0.00  0.00    +0.113 C 
ATOM     19  C   UNL     1       1.911 -10.416   0.592  0.00  0.00    +0.176 C 
ATOM     20  O   UNL     1       1.250 -11.514  -0.043  0.00  0.00    -0.365 OA
ATOM     21  C   UNL     1      -0.175 -11.397  -0.059  0.00  0.00    +0.217 C 
ATOM     22  C   UNL     1      -0.567 -10.108  -0.787  0.00  0.00    +0.126 C 
BRANCH  21  23
ATOM     23  C   UNL     1      -0.770 -12.582  -0.775  0.00  0.00    +0.241 C 
ATOM     24  O   UNL     1      -0.044 -13.396  -1.306  0.00  0.00    -0.273 OA
ATOM     25  N   UNL     1      -2.108 -12.737  -0.826  0.00  0.00    -0.327 N 
ATOM     26  H   UNL     1      -2.688 -12.086  -0.401  0.00  0.00    +0.145 HD
ATOM     27  H   UNL     1      -2.490 -13.500  -1.287  0.00  0.00    +0.145 HD
ENDBRANCH  21  23
ENDBRANCH  16  17
ENDBRANCH   1  16
TORSDOF 5
