REMARK  Name = ZINC58135583
REMARK  9 active torsions:
REMARK  status: ('A' for Active; 'I' for Inactive)
REMARK    1  A    between atoms: C_1  and  C_2
REMARK    2  A    between atoms: C_2  and  C_3
REMARK    3  A    between atoms: C_2  and  C_4
REMARK    4  A    between atoms: C_2  and  O_5
REMARK    5  A    between atoms: O_5  and  C_6
REMARK    6  A    between atoms: N_8  and  C_9
REMARK    7  A    between atoms: C_9  and  C_10
REMARK    8  A    between atoms: N_16  and  S_17
REMARK    9  A    between atoms: S_17  and  C_20
REMARK                            x       y       z     vdW  Elec       q    Type
REMARK                         _______ _______ _______ _____ _____    ______ ____
ROOT
ATOM      1  C   UNL     1       4.675  -0.758  -4.465  0.00  0.00    +0.097 C 
ATOM      2  C   UNL     1       6.103  -0.236  -4.654  0.00  0.00    +0.022 C 
ATOM      3  C   UNL     1       6.486  -0.334  -6.132  0.00  0.00    +0.003 C 
ATOM      4  C   UNL     1       5.540   0.535  -6.964  0.00  0.00    +0.017 C 
ATOM      5  C   UNL     1       4.106   0.022  -6.802  0.00  0.00    +0.110 C 
ATOM      6  N   UNL     1       3.777  -0.027  -5.370  0.00  0.00    -0.172 NA
ENDROOT
BRANCH   6   7
ATOM      7  S   UNL     1       2.425   0.731  -4.787  0.00  0.00    +0.061 S 
ATOM      8  O   UNL     1       2.740   1.171  -3.474  0.00  0.00    -0.153 OA
ATOM      9  O   UNL     1       1.988   1.621  -5.805  0.00  0.00    -0.153 OA
BRANCH   7  10
ATOM     10  C   UNL     1       1.172  -0.497  -4.620  0.00  0.00    +0.106 A 
ATOM     11  C   UNL     1       0.421  -0.869  -5.726  0.00  0.00    +0.032 A 
ATOM     12  C   UNL     1      -0.565  -1.827  -5.617  0.00  0.00    +0.049 A 
ATOM     13  C   UNL     1      -0.810  -2.429  -4.388  0.00  0.00    +0.139 A 
ATOM     14  C   UNL     1      -0.047  -2.049  -3.271  0.00  0.00    +0.019 A 
ATOM     15  C   UNL     1       0.951  -1.079  -3.404  0.00  0.00    +0.040 A 
ATOM     16  C   UNL     1      -0.312  -2.689  -1.978  0.00  0.00    +0.018 A 
ATOM     17  C   UNL     1      -1.291  -3.627  -1.917  0.00  0.00    +0.092 A 
ATOM     18  C   UNL     1      -2.019  -3.959  -3.080  0.00  0.00    +0.337 A 
ATOM     19  O   UNL     1      -2.894  -4.803  -3.012  0.00  0.00    -0.245 OA
ATOM     20  O   UNL     1      -1.770  -3.369  -4.260  0.00  0.00    -0.422 OA
ENDBRANCH   7  10
ENDBRANCH   6   7
BRANCH   1  21
ATOM     21  C   UNL     1       4.234  -0.535  -3.016  0.00  0.00    +0.128 C 
BRANCH  21  24
ATOM     22  C   UNL     1       4.885  -1.288  -0.792  0.00  0.00    +0.401 C 
ATOM     23  O   UNL     1       4.101  -0.487  -0.324  0.00  0.00    -0.226 OA
ATOM     24  N   UNL     1       5.027  -1.390  -2.129  0.00  0.00    -0.280 N 
ATOM     25  H   UNL     1       5.653  -2.030  -2.503  0.00  0.00    +0.152 HD
BRANCH  22  26
ATOM     26  O   UNL     1       5.613  -2.074   0.024  0.00  0.00    -0.445 OA
BRANCH  26  28
ATOM     27  C   UNL     1       3.950  -2.205   1.773  0.00  0.00    +0.055 C 
ATOM     28  C   UNL     1       5.412  -1.912   1.429  0.00  0.00    +0.107 C 
ATOM     29  C   UNL     1       5.752  -0.475   1.831  0.00  0.00    +0.055 C 
ATOM     30  C   UNL     1       6.319  -2.882   2.189  0.00  0.00    +0.055 C 
ENDBRANCH  26  28
ENDBRANCH  22  26
ENDBRANCH  21  24
ENDBRANCH   1  21
TORSDOF 6
