REMARK  Name = ZINC35374224
REMARK  5 active torsions:
REMARK  status: ('A' for Active; 'I' for Inactive)
REMARK    1  A    between atoms: C_4  and  C_7
REMARK    2  A    between atoms: C_7  and  C_8
REMARK    3  A    between atoms: C_8  and  N_9
REMARK    4  A    between atoms: C_10  and  C_12
REMARK    5  A    between atoms: C_23  and  C_25
REMARK                            x       y       z     vdW  Elec       q    Type
REMARK                         _______ _______ _______ _____ _____    ______ ____
ROOT
ATOM      1  C   UNL     1       8.742  -4.466   1.790  0.00  0.00    +0.028 C 
ATOM      2  C   UNL     1       9.267  -5.821   1.226  0.00  0.00    +0.061 C 
ATOM      3  S   UNL     1      10.752  -6.036   2.303  0.00  0.00    -0.174 S 
ATOM      4  C   UNL     1      10.256  -4.906   3.662  0.00  0.00    -0.016 C 
ATOM      5  N   UNL     1       8.904  -4.471   3.257  0.00  0.00    +0.397 N 
ATOM      6  C   UNL     1      11.216  -3.728   3.730  0.00  0.00    +0.017 C 
ATOM      7  C   UNL     1      10.778  -2.775   4.848  0.00  0.00    +0.107 C 
ATOM      8  N   UNL     1      10.638  -3.543   6.093  0.00  0.00    -0.301 N 
ATOM      9  C   UNL     1       9.768  -4.727   6.101  0.00  0.00    +0.107 C 
ATOM     10  C   UNL     1      10.210  -5.670   4.976  0.00  0.00    +0.017 C 
ATOM     11  C   UNL     1      11.296  -3.168   7.208  0.00  0.00    +0.219 C 
ATOM     12  O   UNL     1      12.073  -2.237   7.170  0.00  0.00    -0.275 OA
ATOM     13  H   UNL     1       8.743  -3.538   3.608  0.00  0.00    -0.083 HD
ATOM     14  H   UNL     1       8.222  -5.094   3.661  0.00  0.00    -0.083 HD
ENDROOT
BRANCH  11  15
ATOM     15  C   UNL     1      11.068  -3.906   8.502  0.00  0.00    +0.075 C 
ATOM     16  C   UNL     1       9.799  -3.377   9.174  0.00  0.00    +0.013 C 
ATOM     17  C   UNL     1       9.567  -4.126  10.487  0.00  0.00    +0.001 C 
ATOM     18  C   UNL     1      10.764  -3.910  11.416  0.00  0.00    +0.000 C 
ATOM     19  C   UNL     1      12.033  -4.439  10.744  0.00  0.00    +0.001 C 
ATOM     20  C   UNL     1      12.265  -3.690   9.430  0.00  0.00    +0.013 C 
ENDBRANCH  11  15
BRANCH   1  22
ATOM     21  N   UNL     1       6.899  -4.267   0.151  0.00  0.00    -0.316 N 
ATOM     22  C   UNL     1       7.284  -4.304   1.442  0.00  0.00    +0.200 C 
ATOM     23  O   UNL     1       6.457  -4.207   2.324  0.00  0.00    -0.278 OA
ATOM     24  H   UNL     1       7.561  -4.345  -0.555  0.00  0.00    +0.149 HD
BRANCH  21  25
ATOM     25  C   UNL     1       5.483  -4.110  -0.187  0.00  0.00    +0.109 C 
BRANCH  25  26
ATOM     26  C   UNL     1       5.319  -4.098  -1.708  0.00  0.00    +0.054 C 
BRANCH  26  30
ATOM     27  C   UNL     1       1.189  -3.640  -2.696  0.00  0.00    +0.000 A 
ATOM     28  C   UNL     1       1.990  -2.524  -2.541  0.00  0.00    +0.000 A 
ATOM     29  C   UNL     1       3.327  -2.673  -2.221  0.00  0.00    +0.004 A 
ATOM     30  C   UNL     1       3.862  -3.937  -2.056  0.00  0.00    -0.046 A 
ATOM     31  C   UNL     1       3.060  -5.052  -2.210  0.00  0.00    +0.004 A 
ATOM     32  C   UNL     1       1.724  -4.904  -2.531  0.00  0.00    +0.000 A 
ENDBRANCH  26  30
ENDBRANCH  25  26
ENDBRANCH  21  25
ENDBRANCH   1  22
TORSDOF 5
