REMARK  Name = ZINC08918599
REMARK  6 active torsions:
REMARK  status: ('A' for Active; 'I' for Inactive)
REMARK    1  A    between atoms: C_1  and  C_2
REMARK    2  A    between atoms: C_2  and  C_27
REMARK    3  A    between atoms: C_10  and  C_16
REMARK    4  A    between atoms: C_17  and  C_18
REMARK    5  A    between atoms: C_22  and  O_24
REMARK    6  A    between atoms: O_24  and  C_25
REMARK                            x       y       z     vdW  Elec       q    Type
REMARK                         _______ _______ _______ _____ _____    ______ ____
ROOT
ATOM      1  C   UNL     1      -0.019   1.526   0.010  0.00  0.00    +0.020 C 
ATOM      2  C   UNL     1       0.002  -0.004   0.002  0.00  0.00    +0.034 C 
ATOM      3  C   UNL     1      -1.403  -0.553   0.139  0.00  0.00    -0.016 A 
ATOM      4  C   UNL     1      -2.537  -0.339  -0.619  0.00  0.00    +0.021 A 
ATOM      5  C   UNL     1      -3.728  -0.952  -0.277  0.00  0.00    +0.018 A 
ATOM      6  C   UNL     1      -3.781  -1.783   0.829  0.00  0.00    +0.017 A 
ATOM      7  C   UNL     1      -2.650  -2.007   1.583  0.00  0.00    +0.024 A 
ATOM      8  C   UNL     1      -1.441  -1.398   1.241  0.00  0.00    +0.035 A 
ATOM      9  N   UNL     1      -0.187  -1.518   1.827  0.00  0.00    -0.304 N 
ATOM     10  C   UNL     1       0.739  -0.536   1.235  0.00  0.00    +0.130 C 
ATOM     11  N   UNL     1       1.967  -1.238   0.880  0.00  0.00    -0.290 N 
ATOM     12  C   UNL     1       2.283  -2.432   1.388  0.00  0.00    +0.216 C 
ATOM     13  O   UNL     1       3.393  -2.857   1.147  0.00  0.00    -0.276 OA
ATOM     14  C   UNL     1       1.393  -3.293   2.229  0.00  0.00    +0.115 C 
ATOM     15  C   UNL     1       0.254  -2.476   2.852  0.00  0.00    +0.117 C 
ATOM     16 BR   UNL     1      -5.280  -0.656  -1.316  0.00  0.00    -0.050 Br
ATOM     17  C   UNL     1       0.659  -0.522  -1.279  0.00  0.00    +0.020 C 
ATOM     18  H   UNL     1       2.578  -0.822   0.252  0.00  0.00    +0.151 HD
ENDROOT
BRANCH  10  19
ATOM     19  C   UNL     1       1.014   0.582   2.207  0.00  0.00    +0.020 C 
ATOM     20  C   UNL     1       0.519   0.529   3.436  0.00  0.00    +0.007 C 
BRANCH  20  21
ATOM     21  C   UNL     1       0.790   1.626   4.389  0.00  0.00    -0.022 A 
ATOM     22  C   UNL     1       1.561   2.720   3.996  0.00  0.00    +0.008 A 
ATOM     23  C   UNL     1       1.812   3.743   4.889  0.00  0.00    +0.004 A 
ATOM     24  C   UNL     1       1.301   3.686   6.173  0.00  0.00    +0.045 A 
ATOM     25  C   UNL     1       0.533   2.601   6.572  0.00  0.00    +0.121 A 
ATOM     26  C   UNL     1       0.271   1.573   5.682  0.00  0.00    +0.053 A 
BRANCH  25  27
ATOM     27  O   UNL     1       0.034   2.550   7.835  0.00  0.00    -0.495 OA
ATOM     28  C   UNL     1       0.339   3.648   8.698  0.00  0.00    +0.277 C 
ENDBRANCH  25  27
ENDBRANCH  20  21
ENDBRANCH  10  19
TORSDOF 3
