REMARK  Name = ZINC00663575
REMARK  11 active torsions:
REMARK  status: ('A' for Active; 'I' for Inactive)
REMARK    1  A    between atoms: C_1  and  O_2
REMARK    2  A    between atoms: O_2  and  C_3
REMARK    3  A    between atoms: C_5  and  C_13
REMARK    4  A    between atoms: C_6  and  O_11
REMARK    5  A    between atoms: C_8  and  O_9
REMARK    6  A    between atoms: O_9  and  C_10
REMARK    7  A    between atoms: O_11  and  C_12
REMARK    8  A    between atoms: C_22  and  C_30
REMARK    9  A    between atoms: C_23  and  N_29
REMARK   10  A    between atoms: C_24  and  C_25
REMARK   11  A    between atoms: C_24  and  C_27
REMARK                            x       y       z     vdW  Elec       q    Type
REMARK                         _______ _______ _______ _____ _____    ______ ____
ROOT
ATOM      1  C   UNL     1       1.526   0.038   6.149  0.00  0.00    +0.070 C 
ATOM      2  C   UNL     1       0.459  -0.659   6.994  0.00  0.00    +0.030 C 
ATOM      3  C   UNL     1       0.110  -2.024   6.447  0.00  0.00    +0.009 C 
ATOM      4  C   UNL     1      -1.169  -1.992   5.613  0.00  0.00    +0.005 C 
ATOM      5  C   UNL     1      -2.313  -1.484   6.501  0.00  0.00    +0.027 C 
ATOM      6  C   UNL     1      -1.963  -0.088   6.948  0.00  0.00    -0.022 C 
ATOM      7  C   UNL     1      -0.709   0.271   7.140  0.00  0.00    -0.029 C 
ATOM      8  C   UNL     1      -0.403   1.687   7.473  0.00  0.00    +0.074 C 
ATOM      9  C   UNL     1       0.869   2.141   7.341  0.00  0.00    +0.054 C 
ATOM     10  C   UNL     1       2.013   1.282   6.893  0.00  0.00    +0.188 C 
ENDROOT
BRANCH   1  13
ATOM     11  C   UNL     1      -0.364   1.968   3.508  0.00  0.00    +0.162 A 
ATOM     12  C   UNL     1       0.176   1.592   4.727  0.00  0.00    +0.057 A 
ATOM     13  C   UNL     1       0.936   0.442   4.822  0.00  0.00    +0.004 A 
ATOM     14  C   UNL     1       1.155  -0.342   3.699  0.00  0.00    +0.127 A 
ATOM     15  C   UNL     1       0.612   0.028   2.478  0.00  0.00    +0.095 A 
ATOM     16  C   UNL     1      -0.150   1.181   2.381  0.00  0.00    +0.165 A 
BRANCH  11  18
ATOM     17  C   UNL     1      -1.287   3.863   4.610  0.00  0.00    +0.277 C 
ATOM     18  O   UNL     1      -1.108   3.104   3.413  0.00  0.00    -0.491 OA
ENDBRANCH  11  18
BRANCH  16  19
ATOM     19  O   UNL     1      -0.683   1.546   1.184  0.00  0.00    -0.491 OA
ATOM     20  C   UNL     1      -0.416   0.693   0.068  0.00  0.00    +0.277 C 
ENDBRANCH  16  19
BRANCH  14  21
ATOM     21  O   UNL     1       1.903  -1.473   3.796  0.00  0.00    -0.495 OA
ATOM     22  C   UNL     1       2.089  -2.232   2.599  0.00  0.00    +0.277 C 
ENDBRANCH  14  21
ENDBRANCH   1  13
BRANCH   9  23
ATOM     23  N   UNL     1       1.120   3.453   7.631  0.00  0.00    -0.358 N 
ATOM     24  H   UNL     1       2.140   3.852   7.533  0.00  0.00    +0.142 HD
ATOM     25  H   UNL     1       0.302   4.110   7.962  0.00  0.00    +0.142 HD
ENDBRANCH   9  23
BRANCH  10  26
ATOM     26  C   UNL     1       2.790   0.865   8.071  0.00  0.00    +0.091 C 
ATOM     27  N   UNL     1       3.389   0.542   8.980  0.00  0.00    -0.194 NA
ENDBRANCH  10  26
BRANCH  10  28
ATOM     28  C   UNL     1       2.881   2.067   6.000  0.00  0.00    +0.091 C 
ATOM     29  N   UNL     1       3.552   2.672   5.311  0.00  0.00    -0.194 NA
ENDBRANCH  10  28
BRANCH   8  30
ATOM     30  C   UNL     1      -1.440   2.563   7.930  0.00  0.00    +0.101 C 
ATOM     31  N   UNL     1      -2.262   3.257   8.293  0.00  0.00    -0.191 NA
ENDBRANCH   8  30
TORSDOF 8
