REMARK  Name = ZINC65117538
REMARK  6 active torsions:
REMARK  status: ('A' for Active; 'I' for Inactive)
REMARK    1  A    between atoms: C_5  and  N_7
REMARK    2  A    between atoms: C_13  and  C_15
REMARK    3  A    between atoms: C_17  and  C_20
REMARK    4  A    between atoms: C_20  and  C_21
REMARK    5  A    between atoms: C_21  and  S_22
REMARK    6  A    between atoms: S_22  and  C_25
REMARK                            x       y       z     vdW  Elec       q    Type
REMARK                         _______ _______ _______ _____ _____    ______ ____
ROOT
ATOM      1  C   UNL     1      -0.005  -6.639  -1.320  0.00  0.00    +0.314 A 
ATOM      2  N   UNL     1      -0.094  -7.940  -1.457  0.00  0.00    -0.188 NA
ATOM      3  C   UNL     1      -0.175  -8.260  -2.749  0.00  0.00    +0.174 A 
ATOM      4  N   UNL     1      -0.139  -7.169  -3.461  0.00  0.00    -0.061 NA
ATOM      5  O   UNL     1      -0.033  -6.089  -2.546  0.00  0.00    -0.328 OA
ENDROOT
BRANCH   1  12
ATOM      6  N   UNL     1       1.954  -2.374   0.134  0.00  0.00    -0.325 N 
ATOM      7  C   UNL     1       1.635  -3.075   1.386  0.00  0.00    +0.124 C 
ATOM      8  C   UNL     1       0.299  -3.807   1.211  0.00  0.00    +0.127 C 
ATOM      9  N   UNL     1       0.346  -4.578  -0.039  0.00  0.00    -0.291 N 
ATOM     10  C   UNL     1       0.665  -3.878  -1.291  0.00  0.00    +0.127 C 
ATOM     11  C   UNL     1       1.996  -3.144  -1.117  0.00  0.00    +0.124 C 
ATOM     12  C   UNL     1       0.102  -5.904  -0.037  0.00  0.00    +0.304 C 
ATOM     13  O   UNL     1      -0.030  -6.496   1.015  0.00  0.00    -0.265 OA
BRANCH   6  18
ATOM     14  C   UNL     1       1.418   1.259  -0.042  0.00  0.00    +0.002 A 
ATOM     15  C   UNL     1       2.709   1.723   0.128  0.00  0.00    +0.003 A 
ATOM     16  C   UNL     1       3.752   0.831   0.301  0.00  0.00    +0.040 A 
ATOM     17  C   UNL     1       3.505  -0.529   0.304  0.00  0.00    +0.144 A 
ATOM     18  C   UNL     1       2.208  -0.999   0.133  0.00  0.00    +0.065 A 
ATOM     19  C   UNL     1       1.164  -0.100  -0.040  0.00  0.00    +0.026 A 
ATOM     20  F   UNL     1       4.524  -1.401   0.472  0.00  0.00    -0.204 F 
ENDBRANCH   6  18
ENDBRANCH   1  12
BRANCH   3  21
ATOM     21  C   UNL     1      -0.290  -9.659  -3.298  0.00  0.00    +0.103 C 
BRANCH  21  22
ATOM     22  C   UNL     1      -1.767 -10.041  -3.415  0.00  0.00    +0.179 C 
BRANCH  22  23
ATOM     23  S   UNL     1      -1.904 -11.725  -4.076  0.00  0.00    -0.003 S 
ATOM     24  O   UNL     1      -1.463 -11.759  -5.426  0.00  0.00    -0.169 OA
ATOM     25  O   UNL     1      -1.412 -12.664  -3.129  0.00  0.00    -0.169 OA
BRANCH  23  26
ATOM     26  C   UNL     1      -3.636 -12.038  -4.161  0.00  0.00    +0.088 A 
ATOM     27  C   UNL     1      -4.291 -12.594  -3.078  0.00  0.00    +0.030 A 
ATOM     28  C   UNL     1      -5.650 -12.840  -3.143  0.00  0.00    +0.040 A 
ATOM     29  C   UNL     1      -6.355 -12.528  -4.293  0.00  0.00    +0.124 A 
ATOM     30  C   UNL     1      -5.697 -11.971  -5.377  0.00  0.00    +0.040 A 
ATOM     31  C   UNL     1      -4.340 -11.722  -5.308  0.00  0.00    +0.030 A 
ATOM     32  F   UNL     1      -7.683 -12.768  -4.358  0.00  0.00    -0.205 F 
ENDBRANCH  23  26
ENDBRANCH  22  23
ENDBRANCH  21  22
ENDBRANCH   3  21
TORSDOF 6
