REMARK  Name = ZINC02804990
REMARK  9 active torsions:
REMARK  status: ('A' for Active; 'I' for Inactive)
REMARK    1  A    between atoms: C_1  and  C_2
REMARK    2  A    between atoms: C_4  and  C_28
REMARK    3  A    between atoms: C_8  and  N_14
REMARK    4  A    between atoms: C_9  and  C_11
REMARK    5  A    between atoms: C_15  and  C_17
REMARK    6  A    between atoms: C_17  and  C_19
REMARK    7  A    between atoms: C_17  and  N_20
REMARK    8  A    between atoms: C_21  and  C_27
REMARK    9  A    between atoms: C_23  and  C_25
REMARK                            x       y       z     vdW  Elec       q    Type
REMARK                         _______ _______ _______ _____ _____    ______ ____
ROOT
ATOM      1  C   UNL     1      -3.494   3.932  -2.809  0.00  0.00    +0.044 C 
ATOM      2  C   UNL     1      -2.131   4.481  -2.475  0.00  0.00    -0.037 A 
ATOM      3  C   UNL     1      -1.344   5.039  -3.455  0.00  0.00    +0.033 A 
ATOM      4  C   UNL     1      -0.090   5.543  -3.145  0.00  0.00    +0.108 A 
ATOM      5  N   UNL     1       0.364   5.493  -1.907  0.00  0.00    -0.239 NA
ATOM      6  C   UNL     1      -0.350   4.968  -0.935  0.00  0.00    +0.111 A 
ATOM      7  C   UNL     1      -1.640   4.428  -1.147  0.00  0.00    +0.033 A 
ATOM      8  C   UNL     1      -2.286   3.890   0.040  0.00  0.00    +0.062 A 
ATOM      9  C   UNL     1      -1.610   3.950   1.237  0.00  0.00    +0.097 A 
ATOM     10  S   UNL     1      -0.073   4.742   0.804  0.00  0.00    -0.062 S 
ENDROOT
BRANCH   9  11
ATOM     11  C   UNL     1      -2.049   3.480   2.551  0.00  0.00    +0.250 C 
ATOM     12  O   UNL     1      -3.086   2.852   2.657  0.00  0.00    -0.270 OA
ATOM     13  N   UNL     1      -1.305   3.743   3.643  0.00  0.00    -0.325 N 
ATOM     14  H   UNL     1      -1.596   3.432   4.515  0.00  0.00    +0.145 HD
ATOM     15  H   UNL     1      -0.476   4.240   3.558  0.00  0.00    +0.145 HD
ENDBRANCH   9  11
BRANCH   8  16
ATOM     16  N   UNL     1      -3.559   3.330  -0.033  0.00  0.00    -0.282 N 
ATOM     17  C   UNL     1      -3.759   2.058   0.365  0.00  0.00    +0.242 C 
ATOM     18  O   UNL     1      -2.855   1.435   0.881  0.00  0.00    -0.273 OA
ATOM     19  H   UNL     1      -4.301   3.856  -0.370  0.00  0.00    +0.155 HD
BRANCH  17  20
ATOM     20  C   UNL     1      -5.105   1.410   0.169  0.00  0.00    +0.190 C 
ATOM     21  C   UNL     1      -5.449   1.390  -1.322  0.00  0.00    +0.042 C 
BRANCH  20  22
ATOM     22  N   UNL     1      -5.066   0.038   0.679  0.00  0.00    -0.255 N 
ATOM     23  C   UNL     1      -5.836  -0.464   1.669  0.00  0.00    +0.056 A 
ATOM     24  C   UNL     1      -5.495  -1.763   1.837  0.00  0.00    +0.084 A 
ATOM     25  C   UNL     1      -4.476  -2.063   0.926  0.00  0.00    +0.078 A 
ATOM     26  N   UNL     1      -4.218  -0.984   0.232  0.00  0.00    -0.174 NA
ATOM     27  C   UNL     1      -3.794  -3.397   0.771  0.00  0.00    +0.069 C 
ATOM     28 CL   UNL     1      -6.195  -2.862   2.985  0.00  0.00    -0.080 Cl
ATOM     29  C   UNL     1      -6.888   0.287   2.443  0.00  0.00    +0.067 C 
ENDBRANCH  20  22
ENDBRANCH  17  20
ENDBRANCH   8  16
BRANCH   4  30
ATOM     30  C   UNL     1       0.761   6.152  -4.229  0.00  0.00    +0.390 C 
ATOM     31  F   UNL     1       2.113   5.965  -3.922  0.00  0.00    -0.202 F 
ATOM     32  F   UNL     1       0.470   5.537  -5.451  0.00  0.00    -0.202 F 
ENDBRANCH   4  30
TORSDOF 5
