REMARK  Name = ZINC06241374
REMARK  5 active torsions:
REMARK  status: ('A' for Active; 'I' for Inactive)
REMARK    1  A    between atoms: C_3  and  O_24
REMARK    2  A    between atoms: C_6  and  C_7
REMARK    3  A    between atoms: N_14  and  C_17
REMARK    4  A    between atoms: O_24  and  C_25
REMARK    5  A    between atoms: C_25  and  C_26
REMARK                            x       y       z     vdW  Elec       q    Type
REMARK                         _______ _______ _______ _____ _____    ______ ____
ROOT
ATOM      1  C   UNL     1      -0.606  -0.445  -0.884  0.00  0.00    +0.026 C 
ATOM      2  C   UNL     1       0.278   0.204  -0.043  0.00  0.00    +0.100 C 
ATOM      3  C   UNL     1       0.055   1.601   0.380  0.00  0.00    +0.257 C 
ATOM      4  O   UNL     1      -0.916   2.224  -0.007  0.00  0.00    -0.270 OA
ATOM      5  N   UNL     1       0.961   2.170   1.202  0.00  0.00    -0.235 N 
ATOM      6  C   UNL     1       2.038   1.497   1.631  0.00  0.00    +0.320 C 
ATOM      7  O   UNL     1       2.815   2.068   2.370  0.00  0.00    -0.251 OA
ATOM      8  N   UNL     1       2.303   0.228   1.289  0.00  0.00    -0.190 N 
ATOM      9  C   UNL     1       1.486  -0.469   0.473  0.00  0.00    +0.263 C 
ATOM     10  O   UNL     1       1.739  -1.619   0.169  0.00  0.00    -0.269 OA
ATOM     11  H   UNL     1       0.830   3.087   1.489  0.00  0.00    +0.159 HD
ENDROOT
BRANCH   8  12
ATOM     12  C   UNL     1       3.458  -0.389   1.792  0.00  0.00    +0.046 A 
ATOM     13  C   UNL     1       3.378  -1.203   2.913  0.00  0.00    +0.027 A 
ATOM     14  C   UNL     1       4.516  -1.814   3.404  0.00  0.00    +0.040 A 
ATOM     15  C   UNL     1       5.737  -1.606   2.784  0.00  0.00    +0.124 A 
ATOM     16  C   UNL     1       5.819  -0.790   1.669  0.00  0.00    +0.040 A 
ATOM     17  C   UNL     1       4.683  -0.182   1.172  0.00  0.00    +0.027 A 
ATOM     18  F   UNL     1       6.849  -2.201   3.269  0.00  0.00    -0.205 F 
ENDBRANCH   8  12
BRANCH   1  24
ATOM     19  C   UNL     1       1.062  -1.885  -2.030  0.00  0.00    +0.011 A 
ATOM     20  C   UNL     1       1.411  -3.075  -2.601  0.00  0.00    +0.046 A 
ATOM     21  C   UNL     1       0.487  -4.114  -2.673  0.00  0.00    +0.122 A 
ATOM     22  C   UNL     1      -0.795  -3.949  -2.158  0.00  0.00    +0.046 A 
ATOM     23  C   UNL     1      -1.155  -2.766  -1.579  0.00  0.00    +0.011 A 
ATOM     24  C   UNL     1      -0.228  -1.715  -1.503  0.00  0.00    -0.024 A 
BRANCH  21  25
ATOM     25  O   UNL     1       0.839  -5.291  -3.248  0.00  0.00    -0.477 OA
BRANCH  25  26
ATOM     26  C   UNL     1       2.170  -5.394  -3.756  0.00  0.00    +0.346 C 
BRANCH  26  27
ATOM     27  C   UNL     1       2.372  -6.730  -4.338  0.00  0.00    +0.104 C 
ATOM     28  N   UNL     1       2.527  -7.762  -4.788  0.00  0.00    -0.193 NA
ENDBRANCH  26  27
ENDBRANCH  25  26
ENDBRANCH  21  25
ENDBRANCH   1  24
TORSDOF 5
