REMARK  Name = ZINC39695803
REMARK  9 active torsions:
REMARK  status: ('A' for Active; 'I' for Inactive)
REMARK    1  A    between atoms: C_1  and  C_2
REMARK    2  A    between atoms: C_2  and  C_3
REMARK    3  A    between atoms: C_3  and  C_5
REMARK    4  A    between atoms: C_3  and  C_11
REMARK    5  A    between atoms: C_15  and  C_24
REMARK    6  A    between atoms: N_26  and  C_27
REMARK    7  A    between atoms: C_27  and  C_29
REMARK    8  A    between atoms: C_27  and  C_30
REMARK    9  A    between atoms: C_36  and  C_40
REMARK                            x       y       z     vdW  Elec       q    Type
REMARK                         _______ _______ _______ _____ _____    ______ ____
ROOT
ATOM      1  C   UNL     1      -2.168  -0.072  -1.343  0.00  0.00    +0.223 C 
ATOM      2  O   UNL     1      -2.773  -0.823  -2.080  0.00  0.00    -0.275 OA
ATOM      3  N   UNL     1      -2.169   1.254  -1.583  0.00  0.00    -0.300 N 
ATOM      4  C   UNL     1      -1.572   2.327  -0.755  0.00  0.00    +0.121 C 
ATOM      5  C   UNL     1      -0.963   3.315  -1.775  0.00  0.00    +0.100 C 
ATOM      6  C   UNL     1      -1.753   3.076  -3.072  0.00  0.00    -0.004 C 
ATOM      7  C   UNL     1      -2.763   1.968  -2.739  0.00  0.00    +0.115 C 
ATOM      8  C   UNL     1      -0.817   2.611  -4.184  0.00  0.00    -0.010 C 
ATOM      9  C   UNL     1      -1.616   2.435  -5.478  0.00  0.00    -0.082 C 
ATOM     10  N   UNL     1      -2.247   3.709  -5.843  0.00  0.00    +0.379 N 
ATOM     11  C   UNL     1      -3.215   4.103  -4.811  0.00  0.00    -0.082 C 
ATOM     12  C   UNL     1      -2.483   4.349  -3.489  0.00  0.00    -0.010 C 
ATOM     13  H   UNL     1      -1.538   4.423  -5.926  0.00  0.00    -0.086 HD
ATOM     14  H   UNL     1      -2.722   3.607  -6.727  0.00  0.00    -0.086 HD
ENDROOT
BRANCH   5  15
ATOM     15  C   UNL     1       0.499   3.016  -1.986  0.00  0.00    +0.219 C 
ATOM     16  O   UNL     1       0.906   1.878  -1.887  0.00  0.00    -0.275 OA
ATOM     17  N   UNL     1       1.355   4.014  -2.285  0.00  0.00    -0.305 N 
ATOM     18  H   UNL     1       1.029   4.924  -2.364  0.00  0.00    +0.149 HD
BRANCH  17  19
ATOM     19  C   UNL     1       2.776   3.724  -2.490  0.00  0.00    +0.136 C 
ATOM     20  C   UNL     1       3.004   3.292  -3.940  0.00  0.00    +0.036 C 
BRANCH  19  21
ATOM     21  C   UNL     1       3.588   4.960  -2.201  0.00  0.00    +0.128 A 
ATOM     22  H   UNL     1       5.453   4.183  -1.678  0.00  0.00    +0.167 HD
ATOM     23  N   UNL     1       3.142   6.180  -2.280  0.00  0.00    -0.231 NA
ATOM     24  C   UNL     1       4.132   7.050  -1.954  0.00  0.00    +0.089 A 
ATOM     25  C   UNL     1       4.204   8.443  -1.874  0.00  0.00    +0.030 A 
ATOM     26  C   UNL     1       5.374   9.045  -1.507  0.00  0.00    +0.005 A 
ATOM     27  C   UNL     1       6.497   8.286  -1.210  0.00  0.00    -0.048 A 
ATOM     28  C   UNL     1       6.450   6.910  -1.283  0.00  0.00    +0.031 A 
ATOM     29  C   UNL     1       5.270   6.281  -1.654  0.00  0.00    +0.067 A 
ATOM     30  N   UNL     1       4.892   4.963  -1.814  0.00  0.00    -0.340 N 
ATOM     31  C   UNL     1       7.778   8.971  -0.807  0.00  0.00    +0.044 C 
ENDBRANCH  19  21
ENDBRANCH  17  19
ENDBRANCH   5  15
BRANCH   1  32
ATOM     32  C   UNL     1      -1.417  -0.623  -0.159  0.00  0.00    +0.105 C 
BRANCH  32  33
ATOM     33  C   UNL     1      -2.347  -0.728   1.022  0.00  0.00    -0.036 A 
ATOM     34  C   UNL     1      -3.473  -1.526   0.946  0.00  0.00    +0.004 A 
ATOM     35  C   UNL     1      -4.327  -1.622   2.029  0.00  0.00    +0.000 A 
ATOM     36  C   UNL     1      -4.054  -0.920   3.188  0.00  0.00    +0.000 A 
ATOM     37  C   UNL     1      -2.927  -0.123   3.265  0.00  0.00    +0.000 A 
ATOM     38  C   UNL     1      -2.072  -0.030   2.183  0.00  0.00    +0.004 A 
ENDBRANCH  32  33
BRANCH  32  40
ATOM     39  C   UNL     1       0.181  -1.886  -1.607  0.00  0.00    +0.005 C 
ATOM     40  C   UNL     1      -0.871  -2.011  -0.502  0.00  0.00    +0.014 C 
ENDBRANCH  32  40
ENDBRANCH   1  32
TORSDOF 6
