REMARK  Name = ZINC32560502
REMARK  6 active torsions:
REMARK  status: ('A' for Active; 'I' for Inactive)
REMARK    1  A    between atoms: C_3  and  C_6
REMARK    2  A    between atoms: C_9  and  S_12
REMARK    3  A    between atoms: N_10  and  N_11
REMARK    4  A    between atoms: S_12  and  C_13
REMARK    5  A    between atoms: C_13  and  C_14
REMARK    6  A    between atoms: C_20  and  C_22
REMARK                            x       y       z     vdW  Elec       q    Type
REMARK                         _______ _______ _______ _____ _____    ______ ____
ROOT
ATOM      1  C   UNL     1      -0.376   5.833  -5.609  0.00  0.00    +0.226 C 
ATOM      2  O   UNL     1      -1.198   4.956  -5.447  0.00  0.00    -0.275 OA
ATOM      3  N   UNL     1       0.886   5.665  -5.166  0.00  0.00    -0.294 N 
ATOM      4  C   UNL     1       1.980   6.644  -5.295  0.00  0.00    +0.108 C 
ATOM      5  C   UNL     1       3.277   5.801  -5.229  0.00  0.00    +0.021 C 
ATOM      6  C   UNL     1       2.894   4.720  -4.184  0.00  0.00    +0.029 C 
ATOM      7  C   UNL     1       1.399   4.473  -4.474  0.00  0.00    +0.106 C 
ENDROOT
BRANCH   7   8
ATOM      8  C   UNL     1       0.652   4.270  -3.181  0.00  0.00    -0.023 A 
ATOM      9  C   UNL     1       0.297   5.363  -2.412  0.00  0.00    +0.009 A 
ATOM     10  C   UNL     1      -0.389   5.184  -1.223  0.00  0.00    +0.050 A 
ATOM     11  C   UNL     1      -0.718   3.906  -0.807  0.00  0.00    +0.162 A 
ATOM     12  C   UNL     1      -0.362   2.809  -1.579  0.00  0.00    +0.162 A 
ATOM     13  C   UNL     1       0.325   2.991  -2.767  0.00  0.00    +0.055 A 
ATOM     14  O   UNL     1      -0.692   1.553  -1.159  0.00  0.00    -0.488 OA
ATOM     15  C   UNL     1      -0.013   1.086   0.008  0.00  0.00    +0.232 C 
ATOM     16  C   UNL     1      -0.712   1.570   1.269  0.00  0.00    +0.082 C 
ATOM     17  C   UNL     1      -0.662   3.083   1.413  0.00  0.00    +0.232 C 
ATOM     18  O   UNL     1      -1.395   3.716   0.363  0.00  0.00    -0.488 OA
ENDBRANCH   7   8
BRANCH   1  19
ATOM     19  C   UNL     1      -0.766   7.112  -6.305  0.00  0.00    +0.173 C 
BRANCH  19  20
ATOM     20  S   UNL     1      -2.512   7.035  -6.775  0.00  0.00    -0.075 S 
BRANCH  20  24
ATOM     21  C   UNL     1      -3.494  10.362  -8.577  0.00  0.00    +0.217 A 
ATOM     22  N   UNL     1      -2.223  10.549  -8.295  0.00  0.00    -0.123 NA
ATOM     23  N   UNL     1      -1.752   9.518  -7.689  0.00  0.00    -0.120 NA
ATOM     24  C   UNL     1      -2.691   8.610  -7.545  0.00  0.00    +0.209 A 
ATOM     25  N   UNL     1      -3.830   9.110  -8.110  0.00  0.00    -0.221 N 
BRANCH  21  28
ATOM     26  C   UNL     1      -5.168  13.013 -10.459  0.00  0.00    +0.042 A 
ATOM     27  C   UNL     1      -3.994  12.403  -9.977  0.00  0.00    +0.053 A 
ATOM     28  C   UNL     1      -4.385  11.308  -9.266  0.00  0.00    +0.173 A 
ATOM     29  O   UNL     1      -5.730  11.239  -9.310  0.00  0.00    -0.460 OA
ATOM     30  C   UNL     1      -6.207  12.271 -10.026  0.00  0.00    +0.196 A 
ENDBRANCH  21  28
BRANCH  25  31
ATOM     31  N   UNL     1      -5.049   8.499  -8.192  0.00  0.00    -0.294 N 
ATOM     32  H   UNL     1      -5.187   7.490  -7.777  0.00  0.00    +0.163 HD
ATOM     33  H   UNL     1      -5.892   9.016  -8.673  0.00  0.00    +0.163 HD
ENDBRANCH  25  31
ENDBRANCH  20  24
ENDBRANCH  19  20
ENDBRANCH   1  19
TORSDOF 6
