REMARK  Name = ZINC64521721
REMARK  7 active torsions:
REMARK  status: ('A' for Active; 'I' for Inactive)
REMARK    1  A    between atoms: C_3  and  C_6
REMARK    2  A    between atoms: C_6  and  N_7
REMARK    3  A    between atoms: C_11  and  C_13
REMARK    4  A    between atoms: C_13  and  N_14
REMARK    5  A    between atoms: C_15  and  C_17
REMARK    6  A    between atoms: C_20  and  S_22
REMARK    7  A    between atoms: S_22  and  N_25
REMARK                            x       y       z     vdW  Elec       q    Type
REMARK                         _______ _______ _______ _____ _____    ______ ____
ROOT
ATOM      1  N   UNL     1       8.177   2.845   4.133  0.00  0.00    -0.309 N 
ATOM      2  C   UNL     1       9.466   3.164   4.364  0.00  0.00    +0.279 C 
ATOM      3  O   UNL     1      10.192   3.474   3.438  0.00  0.00    -0.267 OA
ATOM      4  H   UNL     1       7.598   2.598   4.871  0.00  0.00    +0.149 HD
ENDROOT
BRANCH   2   5
ATOM      5  C   UNL     1       9.994   3.136   5.732  0.00  0.00    +0.192 A 
ATOM      6  C   UNL     1      11.272   3.440   6.106  0.00  0.00    +0.057 A 
ATOM      7  C   UNL     1      11.333   3.283   7.499  0.00  0.00    +0.072 A 
ATOM      8  C   UNL     1      10.106   2.894   7.910  0.00  0.00    +0.258 A 
ATOM      9  O   UNL     1       9.300   2.812   6.843  0.00  0.00    -0.432 OA
BRANCH   8  10
ATOM     10  S   UNL     1       9.641   2.557   9.576  0.00  0.00    +0.089 S 
ATOM     11  O   UNL     1       8.523   1.683   9.516  0.00  0.00    -0.150 OA
ATOM     12  O   UNL     1      10.834   2.222  10.271  0.00  0.00    -0.150 OA
BRANCH  10  13
ATOM     13  N   UNL     1       9.097   3.978  10.229  0.00  0.00    -0.201 NA
ATOM     14  H   UNL     1       9.084   4.786   9.692  0.00  0.00    +0.144 HD
ATOM     15  H   UNL     1       8.790   4.003  11.149  0.00  0.00    +0.144 HD
ENDBRANCH  10  13
ENDBRANCH   8  10
ENDBRANCH   2   5
BRANCH   1  16
ATOM     16  C   UNL     1       7.650   2.873   2.766  0.00  0.00    +0.106 C 
BRANCH  16  21
ATOM     17  N   UNL     1       4.235   2.004   1.357  0.00  0.00    +0.383 N 
ATOM     18  C   UNL     1       3.445   3.044   2.027  0.00  0.00    -0.078 C 
ATOM     19  C   UNL     1       3.881   3.156   3.490  0.00  0.00    -0.018 C 
ATOM     20  C   UNL     1       5.366   3.525   3.548  0.00  0.00    +0.001 C 
ATOM     21  C   UNL     1       6.173   2.473   2.781  0.00  0.00    -0.011 C 
ATOM     22  C   UNL     1       5.652   2.385   1.345  0.00  0.00    -0.073 C 
ATOM     23  H   UNL     1       4.127   1.131   1.851  0.00  0.00    -0.081 HD
BRANCH  17  24
ATOM     24  C   UNL     1       3.761   1.845  -0.024  0.00  0.00    -0.036 C 
BRANCH  24  27
ATOM     25  C   UNL     1      -0.016   1.351   0.009  0.00  0.00    +0.008 A 
ATOM     26  C   UNL     1       1.183   2.038   0.002  0.00  0.00    +0.009 A 
ATOM     27  C   UNL     1       2.343   1.336  -0.013  0.00  0.00    -0.027 A 
ATOM     28  S   UNL     1       1.754  -0.349  -0.017  0.00  0.00    -0.103 S 
ATOM     29  C   UNL     1       0.002  -0.004   0.002  0.00  0.00    +0.045 A 
ENDBRANCH  24  27
ENDBRANCH  17  24
ENDBRANCH  16  21
ENDBRANCH   1  16
TORSDOF 7
