REMARK  Name = ZINC09541254
REMARK  7 active torsions:
REMARK  status: ('A' for Active; 'I' for Inactive)
REMARK    1  A    between atoms: C_1  and  C_2
REMARK    2  A    between atoms: C_5  and  C_8
REMARK    3  A    between atoms: C_10  and  C_23
REMARK    4  A    between atoms: C_12  and  C_15
REMARK    5  A    between atoms: C_20  and  O_21
REMARK    6  A    between atoms: C_26  and  O_29
REMARK    7  A    between atoms: O_29  and  C_30
REMARK                            x       y       z     vdW  Elec       q    Type
REMARK                         _______ _______ _______ _____ _____    ______ ____
ROOT
ATOM      1  C   UNL     1      -0.018   1.472   0.010  0.00  0.00    +0.040 C 
ATOM      2  N   UNL     1      -1.151   2.066   0.019  0.00  0.00    -0.299 NA
ATOM      3  C   UNL     1      -1.315   3.514   0.043  0.00  0.00    +0.081 C 
ATOM      4  C   UNL     1       1.065   3.667   0.402  0.00  0.00    -0.028 C 
ATOM      5  C   UNL     1       1.294   2.206   0.002  0.00  0.00    +0.044 C 
ATOM      6  N   UNL     1      -0.076   4.186  -0.378  0.00  0.00    +0.401 N 
ATOM      7  H   UNL     1      -0.166   5.196  -0.219  0.00  0.00    -0.081 HD
ATOM      8  H   UNL     1       0.085   4.009  -1.376  0.00  0.00    -0.081 HD
ENDROOT
BRANCH   1  13
ATOM      9  C   UNL     1       0.060  -4.280  -0.022  0.00  0.00    +0.044 C 
ATOM     10  C   UNL     1       0.040  -2.773  -0.013  0.00  0.00    -0.050 A 
ATOM     11  C   UNL     1      -1.170  -2.101   0.002  0.00  0.00    +0.004 A 
ATOM     12  C   UNL     1      -1.196  -0.722   0.010  0.00  0.00    +0.010 A 
ATOM     13  C   UNL     1       0.002  -0.004   0.002  0.00  0.00    -0.004 A 
ATOM     14  C   UNL     1       1.219  -0.689  -0.019  0.00  0.00    +0.010 A 
ATOM     15  C   UNL     1       1.230  -2.068  -0.021  0.00  0.00    +0.004 A 
ENDBRANCH   1  13
BRANCH   4  16
ATOM     16  C   UNL     1       2.297   4.478   0.093  0.00  0.00    -0.018 A 
ATOM     17  C   UNL     1       2.350   5.245  -1.055  0.00  0.00    +0.020 A 
ATOM     18  C   UNL     1       3.479   5.993  -1.337  0.00  0.00    +0.018 A 
ATOM     19  C   UNL     1       4.561   5.967  -0.475  0.00  0.00    +0.019 A 
ATOM     20  C   UNL     1       4.514   5.198   0.671  0.00  0.00    +0.047 A 
ATOM     21  C   UNL     1       3.380   4.451   0.958  0.00  0.00    +0.119 A 
ATOM     22 BR   UNL     1       3.546   7.046  -2.906  0.00  0.00    -0.050 Br
BRANCH  21  23
ATOM     23  O   UNL     1       3.332   3.693   2.085  0.00  0.00    -0.507 OA
ATOM     24  H   UNL     1       3.657   2.790   1.966  0.00  0.00    +0.292 HD
ENDBRANCH  21  23
ENDBRANCH   4  16
BRANCH   3  25
ATOM     25  C   UNL     1      -2.428   3.900  -0.897  0.00  0.00    -0.040 A 
ATOM     26  C   UNL     1      -2.414   5.139  -1.511  0.00  0.00    +0.007 A 
ATOM     27  C   UNL     1      -3.430   5.493  -2.378  0.00  0.00    +0.046 A 
ATOM     28  C   UNL     1      -4.471   4.608  -2.624  0.00  0.00    +0.120 A 
ATOM     29  C   UNL     1      -4.485   3.368  -2.002  0.00  0.00    +0.046 A 
ATOM     30  C   UNL     1      -3.464   3.017  -1.140  0.00  0.00    +0.007 A 
BRANCH  28  31
ATOM     31  O   UNL     1      -5.474   4.956  -3.471  0.00  0.00    -0.495 OA
ATOM     32  C   UNL     1      -5.394   6.249  -4.076  0.00  0.00    +0.277 C 
ENDBRANCH  28  31
ENDBRANCH   3  25
TORSDOF 5
