REMARK  Name = ZINC12528809
REMARK  7 active torsions:
REMARK  status: ('A' for Active; 'I' for Inactive)
REMARK    1  A    between atoms: C_1  and  C_2
REMARK    2  A    between atoms: C_5  and  S_8
REMARK    3  A    between atoms: S_8  and  C_9
REMARK    4  A    between atoms: C_12  and  C_18
REMARK    5  A    between atoms: C_14  and  N_15
REMARK    6  A    between atoms: C_23  and  C_27
REMARK    7  A    between atoms: C_23  and  C_28
REMARK                            x       y       z     vdW  Elec       q    Type
REMARK                         _______ _______ _______ _____ _____    ______ ____
ROOT
ATOM      1  C   UNL     1       0.620  -6.016   5.802  0.00  0.00    +0.164 C 
ATOM      2  C   UNL     1      -0.770  -6.110   6.402  0.00  0.00    +0.043 C 
ATOM      3  C   UNL     1      -1.061  -5.299   7.479  0.00  0.00    +0.054 C 
ATOM      4  C   UNL     1      -2.427  -5.357   8.118  0.00  0.00    +0.062 C 
ATOM      5  C   UNL     1      -3.469  -5.737   7.064  0.00  0.00    -0.023 C 
ATOM      6  C   UNL     1      -3.088  -7.088   6.452  0.00  0.00    +0.086 C 
ATOM      7  C   UNL     1      -1.702  -6.990   5.868  0.00  0.00    +0.164 C 
ATOM      8  O   UNL     1      -1.397  -7.687   4.920  0.00  0.00    -0.292 OA
ATOM      9  C   UNL     1      -4.847  -5.841   7.720  0.00  0.00    +0.011 C 
ATOM     10  C   UNL     1      -3.501  -4.669   5.968  0.00  0.00    +0.011 C 
ATOM     11  N   UNL     1      -0.151  -4.462   7.968  0.00  0.00    -0.218 NA
ATOM     12  C   UNL     1       1.073  -4.319   7.503  0.00  0.00    +0.232 C 
ATOM     13  N   UNL     1       1.523  -5.050   6.435  0.00  0.00    -0.192 N 
ATOM     14  N   UNL     1       2.840  -4.642   6.221  0.00  0.00    -0.165 N 
ATOM     15  N   UNL     1       3.110  -3.742   7.105  0.00  0.00    -0.086 NA
ATOM     16  N   UNL     1       2.109  -3.532   7.868  0.00  0.00    -0.231 N 
ATOM     17  H   UNL     1       3.441  -4.974   5.536  0.00  0.00    +0.195 HD
ATOM     18  H   UNL     1       2.094  -2.896   8.600  0.00  0.00    +0.193 HD
ENDROOT
BRANCH   1  22
ATOM     19  C   UNL     1       0.225  -4.966   1.677  0.00  0.00    +0.043 A 
ATOM     20  C   UNL     1       0.191  -3.977   2.654  0.00  0.00    +0.017 A 
ATOM     21  C   UNL     1       0.319  -4.320   3.985  0.00  0.00    +0.007 A 
ATOM     22  C   UNL     1       0.481  -5.646   4.347  0.00  0.00    -0.019 A 
ATOM     23  C   UNL     1       0.515  -6.631   3.378  0.00  0.00    +0.039 A 
ATOM     24  C   UNL     1       0.382  -6.296   2.045  0.00  0.00    +0.140 A 
BRANCH  24  25
ATOM     25  N   UNL     1       0.413  -7.353   1.009  0.00  0.00    +0.058 N 
ATOM     26  O   UNL     1       0.550  -8.511   1.330  0.00  0.00    -0.126 OA
ATOM     27  O   UNL     1       0.301  -7.058  -0.158  0.00  0.00    -0.126 OA
ENDBRANCH  24  25
BRANCH  19  28
ATOM     28  S   UNL     1       0.062  -4.533  -0.023  0.00  0.00    -0.087 S 
BRANCH  28  33
ATOM     29  C   UNL     1      -0.002   1.503   0.004  0.00  0.00    +0.044 C 
ATOM     30  C   UNL     1       0.014  -0.004  -0.002  0.00  0.00    -0.050 A 
ATOM     31  C   UNL     1       1.220  -0.681  -0.014  0.00  0.00    +0.004 A 
ATOM     32  C   UNL     1       1.238  -2.062  -0.021  0.00  0.00    +0.015 A 
ATOM     33  C   UNL     1       0.043  -2.771  -0.014  0.00  0.00    +0.013 A 
ATOM     34  C   UNL     1      -1.167  -2.087  -0.002  0.00  0.00    +0.015 A 
ATOM     35  C   UNL     1      -1.177  -0.706   0.010  0.00  0.00    +0.004 A 
ENDBRANCH  28  33
ENDBRANCH  19  28
ENDBRANCH   1  22
TORSDOF 4
