REMARK  Name = ZINC00944923
REMARK  10 active torsions:
REMARK  status: ('A' for Active; 'I' for Inactive)
REMARK    1  A    between atoms: C_1  and  C_2
REMARK    2  A    between atoms: C_9  and  N_14
REMARK    3  A    between atoms: C_10  and  C_11
REMARK    4  A    between atoms: C_15  and  C_17
REMARK    5  A    between atoms: C_17  and  O_18
REMARK    6  A    between atoms: O_18  and  C_19
REMARK    7  A    between atoms: C_24  and  C_25
REMARK    8  A    between atoms: C_25  and  C_26
REMARK    9  A    between atoms: C_25  and  C_27
REMARK   10  A    between atoms: C_25  and  C_28
REMARK                            x       y       z     vdW  Elec       q    Type
REMARK                         _______ _______ _______ _____ _____    ______ ____
ROOT
ATOM      1  N   UNL     1      -1.119   2.575   0.022  0.00  0.00    -0.277 N 
ATOM      2  C   UNL     1      -2.366   2.062   0.026  0.00  0.00    +0.255 C 
ATOM      3  O   UNL     1      -2.527   0.860   0.020  0.00  0.00    -0.272 OA
ATOM      4  H   UNL     1      -0.991   3.537   0.026  0.00  0.00    +0.155 HD
ENDROOT
BRANCH   1  12
ATOM      5  C   UNL     1       4.800  -2.535  -0.153  0.00  0.00    +0.008 C 
ATOM      6  C   UNL     1       3.951  -1.292  -0.424  0.00  0.00    -0.009 C 
ATOM      7  C   UNL     1       4.473  -0.121   0.415  0.00  0.00    +0.008 C 
ATOM      8  C   UNL     1       3.798   1.178  -0.027  0.00  0.00    +0.037 C 
ATOM      9  C   UNL     1       2.288   0.974  -0.015  0.00  0.00    -0.023 A 
ATOM     10  C   UNL     1       1.753  -0.266  -0.017  0.00  0.00    -0.004 A 
ATOM     11  S   UNL     1       0.002  -0.004   0.002  0.00  0.00    -0.077 S 
ATOM     12  C   UNL     1      -0.021   1.728   0.011  0.00  0.00    +0.084 A 
ATOM     13  C   UNL     1       1.325   2.063   0.001  0.00  0.00    +0.068 A 
ATOM     14  C   UNL     1       2.492  -1.568  -0.032  0.00  0.00    +0.046 C 
BRANCH  13  15
ATOM     15  C   UNL     1       1.761   3.463   0.004  0.00  0.00    +0.244 C 
ATOM     16  O   UNL     1       1.952   4.038   1.060  0.00  0.00    -0.270 OA
ATOM     17  N   UNL     1       1.950   4.113  -1.161  0.00  0.00    -0.325 N 
ATOM     18  H   UNL     1       1.797   3.655  -2.002  0.00  0.00    +0.145 HD
ATOM     19  H   UNL     1       2.238   5.039  -1.158  0.00  0.00    +0.145 HD
ENDBRANCH  13  15
ENDBRANCH   1  12
BRANCH   2  20
ATOM     20  C   UNL     1      -3.559   2.983   0.037  0.00  0.00    +0.324 C 
BRANCH  20  21
ATOM     21  O   UNL     1      -4.759   2.207   0.039  0.00  0.00    -0.482 OA
BRANCH  21  22
ATOM     22  C   UNL     1      -5.935   2.888   0.049  0.00  0.00    +0.125 A 
ATOM     23  C   UNL     1      -5.933   4.276   0.056  0.00  0.00    +0.046 A 
ATOM     24  C   UNL     1      -7.130   4.966   0.066  0.00  0.00    +0.004 A 
ATOM     25  C   UNL     1      -8.328   4.276   0.068  0.00  0.00    +0.001 A 
ATOM     26  C   UNL     1      -8.332   2.894   0.060  0.00  0.00    +0.008 A 
ATOM     27  C   UNL     1      -7.138   2.198   0.046  0.00  0.00    -0.000 A 
BRANCH  27  28
ATOM     28  C   UNL     1      -7.143   0.691   0.032  0.00  0.00    -0.009 C 
ATOM     29  C   UNL     1      -8.587   0.186   0.031  0.00  0.00    +0.015 C 
ATOM     30  C   UNL     1      -6.427   0.191  -1.224  0.00  0.00    +0.015 C 
ATOM     31  C   UNL     1      -6.420   0.167   1.274  0.00  0.00    +0.015 C 
ENDBRANCH  27  28
ENDBRANCH  21  22
ENDBRANCH  20  21
ENDBRANCH   2  20
TORSDOF 6
