REMARK  Name = ZINC20124015
REMARK  7 active torsions:
REMARK  status: ('A' for Active; 'I' for Inactive)
REMARK    1  A    between atoms: C_1  and  C_2
REMARK    2  A    between atoms: C_2  and  C_4
REMARK    3  A    between atoms: C_2  and  N_11
REMARK    4  A    between atoms: N_11  and  C_12
REMARK    5  A    between atoms: C_12  and  C_13
REMARK    6  A    between atoms: C_16  and  O_20
REMARK    7  A    between atoms: C_18  and  O_19
REMARK                            x       y       z     vdW  Elec       q    Type
REMARK                         _______ _______ _______ _____ _____    ______ ____
ROOT
ATOM      1  N   UNL     1      -3.608   2.502   0.507  0.00  0.00    +0.386 N 
ATOM      2  H   UNL     1      -3.219   3.178   1.282  0.00  0.00    -0.085 HD
ATOM      3  H   UNL     1      -4.005   3.095  -0.331  0.00  0.00    -0.085 HD
ENDROOT
BRANCH   1   5
ATOM      4  C   UNL     1      -2.841   1.168  -1.398  0.00  0.00    -0.009 C 
ATOM      5  C   UNL     1      -2.524   1.637   0.023  0.00  0.00    -0.042 C 
BRANCH   5   6
ATOM      6  C   UNL     1      -1.228   2.407   0.021  0.00  0.00    -0.043 A 
ATOM      7  C   UNL     1      -1.247   3.789   0.033  0.00  0.00    +0.003 A 
ATOM      8  C   UNL     1      -0.059   4.497   0.025  0.00  0.00    +0.000 A 
ATOM      9  C   UNL     1       1.148   3.822   0.011  0.00  0.00    +0.001 A 
ATOM     10  C   UNL     1       1.167   2.440   0.004  0.00  0.00    +0.020 A 
ATOM     11  C   UNL     1      -0.021   1.732   0.012  0.00  0.00    +0.043 A 
ATOM     12 CL   UNL     1       0.002  -0.004   0.002  0.00  0.00    -0.083 Cl
ENDBRANCH   5   6
ENDBRANCH   1   5
BRANCH   1  13
ATOM     13  C   UNL     1      -4.701   1.706   1.081  0.00  0.00    -0.042 C 
BRANCH  13  14
ATOM     14  C   UNL     1      -5.792   2.626   1.565  0.00  0.00    -0.023 A 
ATOM     15  C   UNL     1      -5.886   2.938   2.908  0.00  0.00    +0.009 A 
ATOM     16  C   UNL     1      -6.885   3.781   3.355  0.00  0.00    +0.046 A 
ATOM     17  C   UNL     1      -7.796   4.317   2.455  0.00  0.00    +0.120 A 
ATOM     18  C   UNL     1      -7.704   4.006   1.108  0.00  0.00    +0.091 A 
ATOM     19  C   UNL     1      -6.697   3.164   0.661  0.00  0.00    +0.122 A 
BRANCH  19  20
ATOM     20  O   UNL     1      -6.600   2.861  -0.660  0.00  0.00    -0.506 OA
ATOM     21  H   UNL     1      -7.317   3.287  -1.376  0.00  0.00    +0.292 HD
ENDBRANCH  19  20
BRANCH  17  22
ATOM     22  O   UNL     1      -8.778   5.147   2.895  0.00  0.00    -0.507 OA
ATOM     23  H   UNL     1      -9.500   5.572   2.182  0.00  0.00    +0.292 HD
ENDBRANCH  17  22
ENDBRANCH  13  14
ENDBRANCH   1  13
TORSDOF 6
