REMARK  Name = ZINC36494363
REMARK  11 active torsions:
REMARK  status: ('A' for Active; 'I' for Inactive)
REMARK    1  A    between atoms: C_1  and  C_2
REMARK    2  A    between atoms: C_5  and  S_8
REMARK    3  A    between atoms: S_8  and  C_11
REMARK    4  A    between atoms: C_11  and  N_12
REMARK    5  A    between atoms: C_13  and  C_15
REMARK    6  A    between atoms: C_15  and  C_17
REMARK    7  A    between atoms: C_15  and  N_24
REMARK    8  A    between atoms: C_20  and  O_23
REMARK    9  A    between atoms: N_24  and  C_25
REMARK   10  A    between atoms: C_25  and  C_26
REMARK   11  A    between atoms: C_31  and  C_33
REMARK                            x       y       z     vdW  Elec       q    Type
REMARK                         _______ _______ _______ _____ _____    ______ ____
ROOT
ATOM      1  C   UNL     1       2.696  -4.865   2.478  0.00  0.00    +0.193 C 
ENDROOT
BRANCH   1   2
ATOM      2  C   UNL     1       1.764  -4.040   3.329  0.00  0.00    -0.018 A 
ATOM      3  C   UNL     1       0.988  -4.653   4.295  0.00  0.00    +0.009 A 
ATOM      4  C   UNL     1       0.132  -3.900   5.075  0.00  0.00    +0.046 A 
ATOM      5  C   UNL     1       0.052  -2.528   4.889  0.00  0.00    +0.117 A 
ATOM      6  C   UNL     1       0.832  -1.915   3.919  0.00  0.00    +0.046 A 
ATOM      7  C   UNL     1       1.690  -2.672   3.144  0.00  0.00    +0.009 A 
BRANCH   5   8
ATOM      8  O   UNL     1      -0.790  -1.785   5.655  0.00  0.00    -0.507 OA
ATOM      9  H   UNL     1      -0.389  -1.452   6.469  0.00  0.00    +0.292 HD
ENDBRANCH   5   8
ENDBRANCH   1   2
BRANCH   1  11
ATOM     10  N   UNL     1       1.782  -4.276   0.257  0.00  0.00    -0.294 N 
ATOM     11  C   UNL     1       2.010  -5.225   1.186  0.00  0.00    +0.239 C 
ATOM     12  O   UNL     1       1.665  -6.370   0.981  0.00  0.00    -0.273 OA
ATOM     13  H   UNL     1       2.058  -3.361   0.420  0.00  0.00    +0.150 HD
BRANCH  10  14
ATOM     14  C   UNL     1       1.115  -4.627  -1.000  0.00  0.00    +0.278 C 
BRANCH  14  15
ATOM     15  S   UNL     1      -0.663  -4.299  -0.853  0.00  0.00    +0.013 S 
ATOM     16  O   UNL     1      -1.161  -4.835   0.365  0.00  0.00    -0.168 OA
ATOM     17  O   UNL     1      -1.315  -4.575  -2.086  0.00  0.00    -0.168 OA
BRANCH  15  22
ATOM     18  C   UNL     1      -1.093   1.683  -0.190  0.00  0.00    +0.044 C 
ATOM     19  C   UNL     1      -0.985   0.189  -0.355  0.00  0.00    -0.050 A 
ATOM     20  C   UNL     1      -1.010  -0.370  -1.620  0.00  0.00    +0.005 A 
ATOM     21  C   UNL     1      -0.911  -1.741  -1.772  0.00  0.00    +0.027 A 
ATOM     22  C   UNL     1      -0.787  -2.552  -0.659  0.00  0.00    +0.090 A 
ATOM     23  C   UNL     1      -0.762  -1.994   0.605  0.00  0.00    +0.027 A 
ATOM     24  C   UNL     1      -0.856  -0.623   0.756  0.00  0.00    +0.005 A 
ENDBRANCH  15  22
ENDBRANCH  14  15
ENDBRANCH  10  14
ENDBRANCH   1  11
BRANCH   1  25
ATOM     25  N   UNL     1       3.058  -6.089   3.197  0.00  0.00    -0.278 N 
ATOM     26  C   UNL     1       4.318  -6.259   3.645  0.00  0.00    +0.220 C 
ATOM     27  O   UNL     1       5.134  -5.372   3.512  0.00  0.00    -0.275 OA
BRANCH  26  28
ATOM     28  C   UNL     1       4.712  -7.552   4.312  0.00  0.00    +0.075 C 
ATOM     29  C   UNL     1       4.204  -7.556   5.756  0.00  0.00    +0.013 C 
ATOM     30  C   UNL     1       4.604  -8.868   6.433  0.00  0.00    +0.001 C 
ATOM     31  C   UNL     1       6.128  -9.001   6.428  0.00  0.00    +0.000 C 
ATOM     32  C   UNL     1       6.636  -8.997   4.985  0.00  0.00    +0.001 C 
ATOM     33  C   UNL     1       6.236  -7.684   4.308  0.00  0.00    +0.013 C 
ENDBRANCH  26  28
BRANCH  25  34
ATOM     34  C   UNL     1       2.052  -7.128   3.428  0.00  0.00    +0.183 C 
BRANCH  34  35
ATOM     35  C   UNL     1       2.444  -8.381   2.689  0.00  0.00    +0.122 A 
ATOM     36  C   UNL     1       2.570  -9.606   3.229  0.00  0.00    +0.046 A 
ATOM     37  C   UNL     1       2.951 -10.478   2.183  0.00  0.00    +0.041 A 
ATOM     38  C   UNL     1       3.035  -9.733   1.066  0.00  0.00    +0.195 A 
ATOM     39  O   UNL     1       2.722  -8.464   1.377  0.00  0.00    -0.466 OA
ENDBRANCH  34  35
ENDBRANCH  25  34
ENDBRANCH   1  25
TORSDOF 10
