REMARK  Name = ZINC14457121
REMARK  7 active torsions:
REMARK  status: ('A' for Active; 'I' for Inactive)
REMARK    1  A    between atoms: C_1  and  O_2
REMARK    2  A    between atoms: O_2  and  C_3
REMARK    3  A    between atoms: C_6  and  C_10
REMARK    4  A    between atoms: C_8  and  O_9
REMARK    5  A    between atoms: C_21  and  C_26
REMARK    6  A    between atoms: C_26  and  O_28
REMARK    7  A    between atoms: O_28  and  C_29
REMARK                            x       y       z     vdW  Elec       q    Type
REMARK                         _______ _______ _______ _____ _____    ______ ____
ROOT
ATOM      1  C   UNL     1       3.817   2.706   2.483  0.00  0.00    +0.105 C 
ATOM      2  C   UNL     1       4.819   1.615   2.813  0.00  0.00    +0.029 C 
ATOM      3  C   UNL     1       4.283   0.181   2.815  0.00  0.00    +0.033 C 
ATOM      4  C   UNL     1       5.546  -0.602   2.451  0.00  0.00    -0.030 C 
ATOM      5  C   UNL     1       6.369   0.168   1.748  0.00  0.00    -0.023 C 
ATOM      6  C   UNL     1       5.729   1.493   1.555  0.00  0.00    +0.049 C 
ATOM      7  C   UNL     1       6.520   2.738   1.444  0.00  0.00    -0.019 A 
ATOM      8  C   UNL     1       7.806   2.753   0.964  0.00  0.00    +0.021 A 
ATOM      9  C   UNL     1       8.501   3.962   0.860  0.00  0.00    +0.059 A 
ATOM     10  C   UNL     1       7.879   5.153   1.247  0.00  0.00    +0.017 A 
ATOM     11  C   UNL     1       6.603   5.134   1.730  0.00  0.00    +0.024 A 
ATOM     12  C   UNL     1       5.904   3.934   1.844  0.00  0.00    +0.031 A 
ATOM     13  N   UNL     1       4.608   3.949   2.355  0.00  0.00    -0.336 N 
ATOM     14  H   UNL     1       4.216   4.792   2.633  0.00  0.00    +0.147 HD
ENDROOT
BRANCH   1  18
ATOM     15  C   UNL     1       1.845   1.832  -1.210  0.00  0.00    +0.161 A 
ATOM     16  C   UNL     1       3.012   2.578  -1.204  0.00  0.00    +0.050 A 
ATOM     17  C   UNL     1       3.648   2.859  -0.009  0.00  0.00    +0.009 A 
ATOM     18  C   UNL     1       3.120   2.397   1.183  0.00  0.00    -0.023 A 
ATOM     19  C   UNL     1       1.953   1.657   1.185  0.00  0.00    +0.054 A 
ATOM     20  C   UNL     1       1.314   1.367  -0.011  0.00  0.00    +0.159 A 
BRANCH  15  22
ATOM     21  C   UNL     1       1.820   2.066  -3.577  0.00  0.00    +0.277 C 
ATOM     22  O   UNL     1       1.218   1.556  -2.385  0.00  0.00    -0.491 OA
ENDBRANCH  15  22
BRANCH  20  23
ATOM     23  O   UNL     1       0.169   0.635  -0.011  0.00  0.00    -0.503 OA
ATOM     24  H   UNL     1       0.311  -0.319  -0.089  0.00  0.00    +0.292 HD
ENDBRANCH  20  23
ENDBRANCH   1  18
BRANCH   9  25
ATOM     25  C   UNL     1       9.882   3.981   0.345  0.00  0.00    +0.339 C 
ATOM     26  O   UNL     1      10.420   2.944   0.010  0.00  0.00    -0.245 OA
BRANCH  25  27
ATOM     27  O   UNL     1      10.548   5.148   0.246  0.00  0.00    -0.464 OA
ATOM     28  C   UNL     1      11.904   5.091  -0.270  0.00  0.00    +0.280 C 
ENDBRANCH  25  27
ENDBRANCH   9  25
TORSDOF 5
