REMARK  Name = ZINC41282345
REMARK  6 active torsions:
REMARK  status: ('A' for Active; 'I' for Inactive)
REMARK    1  A    between atoms: C_4  and  O_16
REMARK    2  A    between atoms: C_5  and  C_7
REMARK    3  A    between atoms: N_9  and  C_10
REMARK    4  A    between atoms: C_10  and  C_11
REMARK    5  A    between atoms: O_16  and  C_17
REMARK    6  A    between atoms: C_17  and  C_18
REMARK                            x       y       z     vdW  Elec       q    Type
REMARK                         _______ _______ _______ _____ _____    ______ ____
ROOT
ATOM      1  C   UNL     1      -0.017   1.374   0.010  0.00  0.00    +0.001 A 
ATOM      2  C   UNL     1       1.170   2.089   0.002  0.00  0.00    +0.004 A 
ATOM      3  C   UNL     1       2.383   1.429  -0.013  0.00  0.00    +0.046 A 
ATOM      4  C   UNL     1       2.420   0.043  -0.021  0.00  0.00    +0.133 A 
ATOM      5  C   UNL     1       1.222  -0.684  -0.013  0.00  0.00    +0.078 A 
ATOM      6  C   UNL     1       0.002  -0.004   0.002  0.00  0.00    +0.017 A 
ENDROOT
BRANCH   5   7
ATOM      7  C   UNL     1       1.250  -2.159  -0.022  0.00  0.00    +0.248 C 
ATOM      8  O   UNL     1       2.314  -2.748  -0.036  0.00  0.00    -0.270 OA
ATOM      9  N   UNL     1       0.095  -2.855  -0.014  0.00  0.00    -0.304 N 
ATOM     10  H   UNL     1      -0.754  -2.385  -0.003  0.00  0.00    +0.149 HD
BRANCH   9  11
ATOM     11  C   UNL     1       0.122  -4.319  -0.023  0.00  0.00    +0.179 C 
BRANCH  11  12
ATOM     12  C   UNL     1      -1.289  -4.848  -0.012  0.00  0.00    +0.122 A 
ATOM     13  C   UNL     1      -2.035  -5.123  -1.097  0.00  0.00    +0.046 A 
ATOM     14  C   UNL     1      -3.283  -5.592  -0.628  0.00  0.00    +0.041 A 
ATOM     15  C   UNL     1      -3.225  -5.576   0.716  0.00  0.00    +0.195 A 
ATOM     16  O   UNL     1      -2.013  -5.130   1.084  0.00  0.00    -0.466 OA
ENDBRANCH  11  12
ENDBRANCH   9  11
ENDBRANCH   5   7
BRANCH   4  17
ATOM     17  O   UNL     1       3.611  -0.606  -0.037  0.00  0.00    -0.482 OA
BRANCH  17  18
ATOM     18  C   UNL     1       4.790   0.201  -0.045  0.00  0.00    +0.324 C 
BRANCH  18  19
ATOM     19  C   UNL     1       6.008  -0.687  -0.062  0.00  0.00    +0.253 C 
ATOM     20  O   UNL     1       5.878  -1.893  -0.067  0.00  0.00    -0.272 OA
ATOM     21  N   UNL     1       7.240  -0.142  -0.072  0.00  0.00    -0.299 N 
ATOM     22  C   UNL     1       7.360   1.299  -0.060  0.00  0.00    +0.108 C 
ATOM     23  C   UNL     1       7.367   1.832  -1.514  0.00  0.00    +0.019 C 
ATOM     24  C   UNL     1       8.632   1.486  -2.179  0.00  0.00    +0.002 C 
ATOM     25  C   UNL     1       8.875  -0.013  -2.325  0.00  0.00    +0.002 C 
ATOM     26  C   UNL     1       9.503  -0.544  -1.060  0.00  0.00    +0.019 C 
ATOM     27  C   UNL     1       8.411  -1.040  -0.089  0.00  0.00    +0.108 C 
ENDBRANCH  18  19
ENDBRANCH  17  18
ENDBRANCH   4  17
TORSDOF 6
