REMARK  Name = ZINC51991392
REMARK  6 active torsions:
REMARK  status: ('A' for Active; 'I' for Inactive)
REMARK    1  A    between atoms: C_1  and  C_2
REMARK    2  A    between atoms: C_2  and  C_4
REMARK    3  A    between atoms: C_2  and  N_15
REMARK    4  A    between atoms: C_13  and  O_14
REMARK    5  A    between atoms: N_15  and  C_16
REMARK    6  A    between atoms: C_22  and  O_24
REMARK                            x       y       z     vdW  Elec       q    Type
REMARK                         _______ _______ _______ _____ _____    ______ ____
ROOT
ATOM      1  C   UNL     1      -0.235   1.424   0.013  0.00  0.00    -0.009 C 
ATOM      2  C   UNL     1      -0.040  -0.094  -0.002  0.00  0.00    -0.040 C 
ENDROOT
BRANCH   2   3
ATOM      3  C   UNL     1       0.617  -0.503  -1.296  0.00  0.00    -0.020 A 
ATOM      4  C   UNL     1       1.984  -0.762  -1.319  0.00  0.00    +0.006 A 
ATOM      5  C   UNL     1       2.609  -1.134  -2.471  0.00  0.00    +0.009 A 
ATOM      6  C   UNL     1       1.867  -1.259  -3.658  0.00  0.00    -0.014 A 
ATOM      7  C   UNL     1       2.479  -1.641  -4.864  0.00  0.00    +0.008 A 
ATOM      8  C   UNL     1       1.730  -1.753  -5.994  0.00  0.00    +0.001 A 
ATOM      9  C   UNL     1       0.360  -1.494  -5.975  0.00  0.00    +0.001 A 
ATOM     10  C   UNL     1      -0.266  -1.122  -4.825  0.00  0.00    +0.012 A 
ATOM     11  C   UNL     1       0.475  -0.996  -3.639  0.00  0.00    +0.024 A 
ATOM     12  C   UNL     1      -0.140  -0.619  -2.428  0.00  0.00    +0.126 A 
BRANCH  12  13
ATOM     13  O   UNL     1      -1.474  -0.367  -2.387  0.00  0.00    -0.506 OA
ATOM     14  H   UNL     1      -1.706   0.554  -2.566  0.00  0.00    +0.292 HD
ENDBRANCH  12  13
ENDBRANCH   2   3
BRANCH   2  15
ATOM     15  N   UNL     1       0.814  -0.489   1.126  0.00  0.00    +0.387 N 
ATOM     16  H   UNL     1       1.024  -1.474   1.060  0.00  0.00    -0.085 HD
ATOM     17  H   UNL     1       1.672   0.041   1.101  0.00  0.00    -0.085 HD
BRANCH  15  18
ATOM     18  C   UNL     1       0.111  -0.222   2.389  0.00  0.00    -0.042 C 
ATOM     19  C   UNL     1       1.052  -0.495   3.563  0.00  0.00    -0.013 C 
ATOM     20  C   UNL     1       0.321  -0.217   4.878  0.00  0.00    -0.001 C 
ATOM     21  C   UNL     1      -0.903  -1.128   4.983  0.00  0.00    +0.002 C 
ATOM     22  C   UNL     1      -1.845  -0.856   3.808  0.00  0.00    +0.030 C 
ATOM     23  C   UNL     1      -1.113  -1.134   2.494  0.00  0.00    +0.101 C 
BRANCH  23  24
ATOM     24  O   UNL     1      -0.694  -2.499   2.461  0.00  0.00    -0.393 OA
ATOM     25  H   UNL     1      -1.420  -3.135   2.524  0.00  0.00    +0.210 HD
ENDBRANCH  23  24
ENDBRANCH  15  18
ENDBRANCH   2  15
TORSDOF 5
