REMARK  Name = ZINC20528130
REMARK  8 active torsions:
REMARK  status: ('A' for Active; 'I' for Inactive)
REMARK    1  A    between atoms: C_5  and  C_7
REMARK    2  A    between atoms: N_8  and  N_9
REMARK    3  A    between atoms: C_13  and  S_16
REMARK    4  A    between atoms: N_14  and  N_15
REMARK    5  A    between atoms: S_16  and  C_17
REMARK    6  A    between atoms: C_17  and  C_18
REMARK    7  A    between atoms: N_20  and  C_21
REMARK    8  A    between atoms: C_26  and  N_27
REMARK                            x       y       z     vdW  Elec       q    Type
REMARK                         _______ _______ _______ _____ _____    ______ ____
ROOT
ATOM      1  N   UNL     1     -11.227  -0.059   0.899  0.00  0.00    -0.204 N 
ATOM      2  C   UNL     1      -9.848   0.033   0.775  0.00  0.00    +0.254 A 
ATOM      3  N   UNL     1      -9.166   1.129   0.551  0.00  0.00    -0.109 NA
ATOM      4  N   UNL     1      -7.807   0.791   0.501  0.00  0.00    -0.119 NA
ATOM      5  C   UNL     1      -7.705  -0.503   0.687  0.00  0.00    +0.210 A 
ATOM      6  N   UNL     1      -8.963  -1.005   0.865  0.00  0.00    -0.211 N 
ATOM      7  H   UNL     1     -11.699  -1.035   1.087  0.00  0.00    +0.177 HD
ENDROOT
BRANCH   6   8
ATOM      8  N   UNL     1      -9.280  -2.314   1.091  0.00  0.00    -0.294 N 
ATOM      9  H   UNL     1      -8.485  -3.072   1.145  0.00  0.00    +0.163 HD
ATOM     10  H   UNL     1     -10.332  -2.611   1.221  0.00  0.00    +0.163 HD
ENDBRANCH   6   8
BRANCH   1  12
ATOM     11  C   UNL     1     -13.309   1.006   0.900  0.00  0.00    +0.141 C 
ATOM     12  N   UNL     1     -12.019   1.091   0.784  0.00  0.00    -0.187 NA
BRANCH  11  17
ATOM     13  C   UNL     1     -16.304   3.264   0.788  0.00  0.00    +0.001 A 
ATOM     14  C   UNL     1     -15.708   4.491   0.552  0.00  0.00    +0.003 A 
ATOM     15  C   UNL     1     -14.334   4.588   0.428  0.00  0.00    +0.039 A 
ATOM     16  C   UNL     1     -13.546   3.459   0.540  0.00  0.00    +0.132 A 
ATOM     17  C   UNL     1     -14.142   2.216   0.779  0.00  0.00    +0.030 A 
ATOM     18  C   UNL     1     -15.531   2.127   0.897  0.00  0.00    +0.012 A 
ATOM     19  F   UNL     1     -12.204   3.554   0.419  0.00  0.00    -0.205 F 
ENDBRANCH  11  17
ENDBRANCH   1  12
BRANCH   5  20
ATOM     20  S   UNL     1      -6.207  -1.431   0.711  0.00  0.00    -0.075 S 
BRANCH  20  21
ATOM     21  C   UNL     1      -4.918  -0.190   0.416  0.00  0.00    +0.173 C 
BRANCH  21  22
ATOM     22  C   UNL     1      -3.567  -0.859   0.412  0.00  0.00    +0.228 C 
ATOM     23  O   UNL     1      -3.483  -2.056   0.590  0.00  0.00    -0.275 OA
ATOM     24  N   UNL     1      -2.453  -0.128   0.210  0.00  0.00    -0.283 N 
ATOM     25  H   UNL     1      -2.520   0.967   0.135  0.00  0.00    +0.155 HD
BRANCH  24  26
ATOM     26  C   UNL     1      -1.211  -0.762   0.096  0.00  0.00    +0.064 A 
ATOM     27  C   UNL     1      -1.118  -2.005  -0.518  0.00  0.00    +0.025 A 
ATOM     28  C   UNL     1       0.109  -2.628  -0.629  0.00  0.00    +0.002 A 
ATOM     29  C   UNL     1       1.244  -2.017  -0.129  0.00  0.00    +0.002 A 
ATOM     30  C   UNL     1       1.156  -0.778   0.477  0.00  0.00    +0.034 A 
ATOM     31  C   UNL     1      -0.069  -0.151   0.596  0.00  0.00    +0.147 A 
BRANCH  31  32
ATOM     32  N   UNL     1      -0.164   1.173   1.251  0.00  0.00    +0.058 N 
ATOM     33  O   UNL     1       0.821   1.668   1.770  0.00  0.00    -0.126 OA
ATOM     34  O   UNL     1      -1.226   1.770   1.267  0.00  0.00    -0.126 OA
ENDBRANCH  31  32
ENDBRANCH  24  26
ENDBRANCH  21  22
ENDBRANCH  20  21
ENDBRANCH   5  20
TORSDOF 8
