REMARK  Name = ZINC13625061
REMARK  13 active torsions:
REMARK  status: ('A' for Active; 'I' for Inactive)
REMARK    1  A    between atoms: C_1  and  C_2
REMARK    2  A    between atoms: C_2  and  N_3
REMARK    3  A    between atoms: C_5  and  C_17
REMARK    4  A    between atoms: N_19  and  C_20
REMARK    5  A    between atoms: C_20  and  C_21
REMARK    6  A    between atoms: C_21  and  C_22
REMARK    7  A    between atoms: C_22  and  C_23
REMARK    8  A    between atoms: C_23  and  C_24
REMARK    9  A    between atoms: C_24  and  C_25
REMARK   10  A    between atoms: N_27  and  C_28
REMARK   11  A    between atoms: C_28  and  C_29
REMARK   12  A    between atoms: C_34  and  C_35
REMARK   13  A    between atoms: C_34  and  N_71
REMARK                            x       y       z     vdW  Elec       q    Type
REMARK                         _______ _______ _______ _____ _____    ______ ____
ROOT
ATOM      1  C   UNL     1       4.933  -2.969   0.606  0.00  0.00    +0.249 C 
ATOM      2  O   UNL     1       6.024  -2.435   0.671  0.00  0.00    -0.270 OA
ATOM      3  N   UNL     1       4.844  -4.310   0.507  0.00  0.00    -0.311 N 
ATOM      4  H   UNL     1       3.974  -4.736   0.456  0.00  0.00    +0.149 HD
ENDROOT
BRANCH   1   7
ATOM      5  N   UNL     1       1.333  -2.033   0.587  0.00  0.00    -0.346 N 
ATOM      6  C   UNL     1       2.468  -2.745   0.563  0.00  0.00    +0.103 A 
ATOM      7  C   UNL     1       3.710  -2.151   0.636  0.00  0.00    +0.100 A 
ATOM      8  C   UNL     1       3.793  -0.686   0.744  0.00  0.00    +0.202 A 
ATOM      9  O   UNL     1       4.868  -0.114   0.810  0.00  0.00    -0.286 OA
ATOM     10  C   UNL     1       2.524   0.061   0.769  0.00  0.00    +0.050 A 
ATOM     11  C   UNL     1       1.318  -0.657   0.687  0.00  0.00    +0.056 A 
ATOM     12  C   UNL     1       0.111   0.034   0.709  0.00  0.00    +0.076 A 
ATOM     13  C   UNL     1       0.102   1.413   0.812  0.00  0.00    +0.168 A 
ATOM     14  C   UNL     1       1.305   2.125   0.893  0.00  0.00    +0.167 A 
ATOM     15  C   UNL     1       2.509   1.454   0.872  0.00  0.00    +0.063 A 
ATOM     16  O   UNL     1       1.016   3.456   0.987  0.00  0.00    -0.453 OA
ATOM     17  C   UNL     1      -0.369   3.522   1.373  0.00  0.00    +0.466 C 
ATOM     18  O   UNL     1      -0.930   2.303   0.858  0.00  0.00    -0.453 OA
BRANCH   5  20
ATOM     19  C   UNL     1      -0.415  -2.778  -0.951  0.00  0.00    +0.027 C 
ATOM     20  C   UNL     1       0.056  -2.745   0.504  0.00  0.00    +0.118 C 
ENDBRANCH   5  20
ENDBRANCH   1   7
BRANCH   3  21
ATOM     21  C   UNL     1       6.061  -5.125   0.478  0.00  0.00    +0.104 C 
BRANCH  21  22
ATOM     22  C   UNL     1       5.683  -6.603   0.362  0.00  0.00    +0.019 C 
BRANCH  22  23
ATOM     23  C   UNL     1       6.955  -7.453   0.332  0.00  0.00    +0.002 C 
BRANCH  23  24
ATOM     24  C   UNL     1       6.577  -8.931   0.216  0.00  0.00    +0.009 C 
BRANCH  24  25
ATOM     25  C   UNL     1       7.848  -9.782   0.185  0.00  0.00    +0.096 C 
BRANCH  25  26
ATOM     26  C   UNL     1       7.476 -11.238   0.071  0.00  0.00    +0.213 C 
ATOM     27  O   UNL     1       6.308 -11.563   0.020  0.00  0.00    -0.276 OA
ATOM     28  N   UNL     1       8.440 -12.178   0.027  0.00  0.00    -0.317 N 
ATOM     29  H   UNL     1       9.373 -11.918   0.068  0.00  0.00    +0.149 HD
BRANCH  28  30
ATOM     30  C   UNL     1       8.078 -13.594  -0.084  0.00  0.00    +0.089 C 
BRANCH  30  31
ATOM     31  C   UNL     1       9.347 -14.434  -0.241  0.00  0.00    -0.051 C 
ATOM     32  C   UNL     1      10.031 -14.106  -1.585  0.00  0.00    -0.016 C 
ATOM     33  C   UNL     1      10.543 -15.490  -2.063  0.00  0.00    -0.020 C 
ATOM     34  C   UNL     1       9.416 -16.430  -1.567  0.00  0.00    -0.078 C 
ATOM     35  N   UNL     1       9.018 -15.869  -0.261  0.00  0.00    +0.382 N 
ATOM     36  H   UNL     1       9.537 -16.346   0.486  0.00  0.00    -0.081 HD
BRANCH  35  37
ATOM     37  C   UNL     1       7.562 -16.064  -0.041  0.00  0.00    -0.082 C 
ATOM     38  C   UNL     1       7.224 -17.550  -0.174  0.00  0.00    -0.017 C 
ENDBRANCH  35  37
ENDBRANCH  30  31
ENDBRANCH  28  30
ENDBRANCH  25  26
ENDBRANCH  24  25
ENDBRANCH  23  24
ENDBRANCH  22  23
ENDBRANCH  21  22
ENDBRANCH   3  21
TORSDOF 11
