REMARK  Name = ZINC23859477
REMARK  10 active torsions:
REMARK  status: ('A' for Active; 'I' for Inactive)
REMARK    1  A    between atoms: C_1  and  C_2
REMARK    2  A    between atoms: C_5  and  N_11
REMARK    3  A    between atoms: C_6  and  N_8
REMARK    4  A    between atoms: C_12  and  C_14
REMARK    5  A    between atoms: N_16  and  C_17
REMARK    6  A    between atoms: C_17  and  C_18
REMARK    7  A    between atoms: C_18  and  C_20
REMARK    8  A    between atoms: C_18  and  N_31
REMARK    9  A    between atoms: N_29  and  C_30
REMARK   10  A    between atoms: N_34  and  C_37
REMARK                            x       y       z     vdW  Elec       q    Type
REMARK                         _______ _______ _______ _____ _____    ______ ____
ROOT
ATOM      1  C   UNL     1       3.143  -1.355   5.356  0.00  0.00    +0.104 C 
ENDROOT
BRANCH   1   2
ATOM      2  C   UNL     1       2.379  -0.619   4.285  0.00  0.00    -0.028 A 
ATOM      3  C   UNL     1       1.329  -1.239   3.633  0.00  0.00    +0.007 A 
ATOM      4  C   UNL     1       0.634  -0.565   2.652  0.00  0.00    +0.024 A 
ATOM      5  C   UNL     1       0.983   0.743   2.311  0.00  0.00    +0.033 A 
ATOM      6  C   UNL     1       2.030   1.361   2.970  0.00  0.00    -0.026 A 
ATOM      7  C   UNL     1       2.726   0.676   3.954  0.00  0.00    +0.010 A 
ATOM      8  C   UNL     1       2.446   2.777   2.661  0.00  0.00    +0.038 C 
ATOM      9  C   UNL     1       1.837   3.212   1.326  0.00  0.00    +0.024 C 
ATOM     10  C   UNL     1       0.352   2.828   1.337  0.00  0.00    +0.105 C 
ATOM     11  N   UNL     1       0.246   1.368   1.305  0.00  0.00    -0.333 N 
ATOM     12  C   UNL     1      -1.159   0.942   1.340  0.00  0.00    +0.129 C 
ENDBRANCH   1   2
BRANCH   1  13
ATOM     13  N   UNL     1       2.207  -2.135   6.177  0.00  0.00    -0.297 NA
ATOM     14  C   UNL     1       1.222  -1.259   6.827  0.00  0.00    +0.066 C 
ATOM     15  C   UNL     1       0.220  -2.114   7.606  0.00  0.00    -0.064 C 
ATOM     16  N   UNL     1       0.939  -2.922   8.601  0.00  0.00    +0.379 N 
ATOM     17  C   UNL     1       1.925  -3.798   7.951  0.00  0.00    -0.064 C 
ATOM     18  C   UNL     1       2.926  -2.943   7.171  0.00  0.00    +0.066 C 
ATOM     19  C   UNL     1       0.003  -3.702   9.422  0.00  0.00    -0.096 C 
ATOM     20  H   UNL     1       1.482  -2.236   9.268  0.00  0.00    -0.082 HD
ENDBRANCH   1  13
BRANCH   1  21
ATOM     21  C   UNL     1       4.155  -2.298   4.702  0.00  0.00    +0.128 C 
BRANCH  21  24
ATOM     22  C   UNL     1       6.234  -2.130   3.442  0.00  0.00    +0.299 C 
ATOM     23  O   UNL     1       6.324  -3.340   3.486  0.00  0.00    -0.265 OA
ATOM     24  N   UNL     1       5.186  -1.511   4.020  0.00  0.00    -0.306 N 
ATOM     25  H   UNL     1       5.104  -0.414   3.981  0.00  0.00    +0.149 HD
BRANCH  22  27
ATOM     26  N   UNL     1       8.333  -1.947   2.168  0.00  0.00    -0.276 N 
ATOM     27  C   UNL     1       7.285  -1.328   2.747  0.00  0.00    +0.303 C 
ATOM     28  O   UNL     1       7.195  -0.118   2.703  0.00  0.00    -0.265 OA
ATOM     29  H   UNL     1       8.380  -3.046   2.147  0.00  0.00    +0.155 HD
BRANCH  26  34
ATOM     30  C   UNL     1      12.501   1.114  -0.160  0.00  0.00    +0.044 C 
ATOM     31  C   UNL     1      11.393   0.300   0.459  0.00  0.00    -0.048 A 
ATOM     32  C   UNL     1      10.075   0.671   0.266  0.00  0.00    +0.005 A 
ATOM     33  C   UNL     1       9.058  -0.072   0.831  0.00  0.00    +0.026 A 
ATOM     34  C   UNL     1       9.360  -1.193   1.594  0.00  0.00    +0.064 A 
ATOM     35  C   UNL     1      10.685  -1.560   1.790  0.00  0.00    +0.148 A 
ATOM     36  C   UNL     1      11.698  -0.815   1.217  0.00  0.00    +0.038 A 
BRANCH  35  37
ATOM     37  N   UNL     1      11.012  -2.750   2.607  0.00  0.00    +0.058 N 
ATOM     38  O   UNL     1      12.175  -3.048   2.811  0.00  0.00    -0.126 OA
ATOM     39  O   UNL     1      10.117  -3.432   3.075  0.00  0.00    -0.126 OA
ENDBRANCH  35  37
ENDBRANCH  26  34
ENDBRANCH  22  27
ENDBRANCH  21  24
ENDBRANCH   1  21
TORSDOF 7
