REMARK  Name = ZINC01269737
REMARK  9 active torsions:
REMARK  status: ('A' for Active; 'I' for Inactive)
REMARK    1  A    between atoms: C_1  and  C_2
REMARK    2  A    between atoms: C_2  and  N_3
REMARK    3  A    between atoms: C_4  and  C_20
REMARK    4  A    between atoms: C_7  and  S_8
REMARK    5  A    between atoms: S_8  and  C_9
REMARK    6  A    between atoms: C_9  and  C_10
REMARK    7  A    between atoms: C_10  and  C_12
REMARK    8  A    between atoms: C_15  and  O_19
REMARK    9  A    between atoms: C_16  and  O_18
REMARK                            x       y       z     vdW  Elec       q    Type
REMARK                         _______ _______ _______ _____ _____    ______ ____
ROOT
ATOM      1  N   UNL     1      -1.079  -0.836  -0.179  0.00  0.00    -0.302 N 
ATOM      2  C   UNL     1       0.003  -0.004  -0.002  0.00  0.00    +0.165 A 
ATOM      3  N   UNL     1       1.054  -0.771   0.170  0.00  0.00    -0.128 NA
ATOM      4  N   UNL     1       0.710  -2.008   0.107  0.00  0.00    -0.122 NA
ATOM      5  C   UNL     1      -0.583  -2.106  -0.107  0.00  0.00    +0.192 A 
ENDROOT
BRANCH   2   6
ATOM      6  C   UNL     1      -0.017   1.474   0.002  0.00  0.00    +0.019 A 
ATOM      7  C   UNL     1      -1.082   2.162  -0.582  0.00  0.00    +0.013 A 
ATOM      8  C   UNL     1      -1.096   3.542  -0.571  0.00  0.00    +0.021 A 
ATOM      9  C   UNL     1      -0.052   4.244   0.007  0.00  0.00    +0.041 A 
ATOM     10  C   UNL     1       1.010   3.566   0.583  0.00  0.00    +0.021 A 
ATOM     11  C   UNL     1       1.033   2.187   0.583  0.00  0.00    +0.013 A 
ATOM     12 CL   UNL     1      -0.075   5.979   0.011  0.00  0.00    -0.084 Cl
ENDBRANCH   2   6
BRANCH   1  14
ATOM     13  C   UNL     1      -2.762  -0.413  -1.903  0.00  0.00    +0.027 C 
ATOM     14  C   UNL     1      -2.472  -0.441  -0.401  0.00  0.00    +0.122 C 
ENDBRANCH   1  14
BRANCH   5  15
ATOM     15  S   UNL     1      -1.505  -3.599  -0.267  0.00  0.00    -0.078 S 
BRANCH  15  16
ATOM     16  C   UNL     1      -0.179  -4.812  -0.052  0.00  0.00    +0.157 C 
BRANCH  16  17
ATOM     17  C   UNL     1      -0.750  -6.203  -0.153  0.00  0.00    +0.173 C 
ATOM     18  O   UNL     1      -1.937  -6.359  -0.350  0.00  0.00    -0.291 OA
BRANCH  17  19
ATOM     19  C   UNL     1       0.130  -7.370  -0.011  0.00  0.00    +0.022 A 
ATOM     20  C   UNL     1       1.501  -7.192   0.211  0.00  0.00    +0.015 A 
ATOM     21  C   UNL     1       2.323  -8.288   0.350  0.00  0.00    +0.050 A 
ATOM     22  C   UNL     1       1.798  -9.571   0.257  0.00  0.00    +0.158 A 
ATOM     23  C   UNL     1       0.435  -9.756   0.029  0.00  0.00    +0.159 A 
ATOM     24  C   UNL     1      -0.398  -8.664  -0.105  0.00  0.00    +0.060 A 
BRANCH  23  25
ATOM     25  O   UNL     1      -0.075 -11.014  -0.061  0.00  0.00    -0.503 OA
ATOM     26  H   UNL     1      -0.077 -11.374  -0.959  0.00  0.00    +0.292 HD
ENDBRANCH  23  25
BRANCH  22  27
ATOM     27  O   UNL     1       2.615 -10.648   0.388  0.00  0.00    -0.503 OA
ATOM     28  H   UNL     1       2.997 -10.956  -0.445  0.00  0.00    +0.292 HD
ENDBRANCH  22  27
ENDBRANCH  17  19
ENDBRANCH  16  17
ENDBRANCH  15  16
ENDBRANCH   5  15
TORSDOF 8
