REMARK  Name = ZINC39674601
REMARK  7 active torsions:
REMARK  status: ('A' for Active; 'I' for Inactive)
REMARK    1  A    between atoms: C_1  and  C_2
REMARK    2  A    between atoms: C_4  and  C_14
REMARK    3  A    between atoms: C_7  and  C_12
REMARK    4  A    between atoms: C_14  and  C_15
REMARK    5  A    between atoms: C_15  and  N_16
REMARK    6  A    between atoms: C_17  and  C_19
REMARK    7  A    between atoms: C_30  and  C_32
REMARK                            x       y       z     vdW  Elec       q    Type
REMARK                         _______ _______ _______ _____ _____    ______ ____
ROOT
ATOM      1  C   UNL     1       1.517  -0.558  -7.784  0.00  0.00    +0.100 C 
ATOM      2  C   UNL     1       0.203  -1.361  -7.913  0.00  0.00    +0.121 C 
ATOM      3  N   UNL     1       0.315  -2.054  -9.218  0.00  0.00    -0.296 N 
ATOM      4  C   UNL     1       1.735  -2.475  -9.292  0.00  0.00    +0.115 C 
ATOM      5  C   UNL     1       2.520  -1.292  -8.689  0.00  0.00    -0.004 C 
ATOM      6  C   UNL     1       3.697  -1.806  -7.866  0.00  0.00    -0.010 C 
ATOM      7  C   UNL     1       4.709  -2.481  -8.797  0.00  0.00    -0.082 C 
ATOM      8  N   UNL     1       5.172  -1.516  -9.801  0.00  0.00    +0.379 N 
ATOM      9  C   UNL     1       4.049  -1.098 -10.649  0.00  0.00    -0.082 C 
ATOM     10  C   UNL     1       3.010  -0.364  -9.797  0.00  0.00    -0.010 C 
ATOM     11  C   UNL     1      -0.654  -2.256 -10.132  0.00  0.00    +0.249 C 
ATOM     12  O   UNL     1      -0.429  -2.928 -11.120  0.00  0.00    -0.270 OA
ATOM     13  H   UNL     1       5.560  -0.709  -9.337  0.00  0.00    -0.086 HD
ATOM     14  H   UNL     1       5.883  -1.945 -10.375  0.00  0.00    -0.086 HD
ENDROOT
BRANCH  11  15
ATOM     15  C   UNL     1      -1.992  -1.661  -9.934  0.00  0.00    +0.072 A 
ATOM     16  C   UNL     1      -2.525  -1.545  -8.648  0.00  0.00    +0.016 A 
ATOM     17  C   UNL     1      -3.773  -0.988  -8.470  0.00  0.00    +0.001 A 
ATOM     18  C   UNL     1      -4.500  -0.544  -9.561  0.00  0.00    +0.003 A 
ATOM     19  C   UNL     1      -3.982  -0.655 -10.838  0.00  0.00    +0.039 A 
ATOM     20  C   UNL     1      -2.728  -1.206 -11.032  0.00  0.00    +0.135 A 
ATOM     21  F   UNL     1      -2.219  -1.310 -12.279  0.00  0.00    -0.205 F 
ENDBRANCH  11  15
BRANCH   1  23
ATOM     22  N   UNL     1       2.722   0.470  -5.884  0.00  0.00    -0.315 N 
ATOM     23  C   UNL     1       1.997  -0.564  -6.355  0.00  0.00    +0.218 C 
ATOM     24  O   UNL     1       1.732  -1.500  -5.630  0.00  0.00    -0.275 OA
ATOM     25  H   UNL     1       2.934   1.218  -6.463  0.00  0.00    +0.149 HD
BRANCH  22  26
ATOM     26  C   UNL     1       3.189   0.464  -4.495  0.00  0.00    +0.108 C 
BRANCH  26  27
ATOM     27  C   UNL     1       3.981   1.743  -4.218  0.00  0.00    +0.052 C 
BRANCH  27  30
ATOM     28  C   UNL     1       6.625   2.978  -2.807  0.00  0.00    +0.035 C 
ATOM     29  C   UNL     1       5.279   2.806  -2.100  0.00  0.00    +0.103 C 
ATOM     30  C   UNL     1       4.462   1.736  -2.789  0.00  0.00    -0.037 C 
ATOM     31  C   UNL     1       4.249   0.769  -1.861  0.00  0.00    +0.000 A 
ATOM     32  C   UNL     1       3.553  -0.466  -1.923  0.00  0.00    +0.028 A 
ATOM     33  C   UNL     1       3.486  -1.277  -0.814  0.00  0.00    +0.052 A 
ATOM     34  C   UNL     1       4.121  -0.895   0.443  0.00  0.00    +0.021 A 
ATOM     35  C   UNL     1       4.796   0.267   0.561  0.00  0.00    +0.027 A 
ATOM     36  C   UNL     1       4.897   1.169  -0.592  0.00  0.00    +0.043 A 
ATOM     37  N   UNL     1       5.486   2.334  -0.727  0.00  0.00    -0.378 N 
ATOM     38  H   UNL     1       5.977   2.804  -0.036  0.00  0.00    +0.160 HD
BRANCH  33  39
ATOM     39  C   UNL     1       2.779  -2.520  -0.894  0.00  0.00    +0.099 C 
ATOM     40  N   UNL     1       2.219  -3.506  -0.958  0.00  0.00    -0.191 NA
ENDBRANCH  33  39
ENDBRANCH  27  30
ENDBRANCH  26  27
ENDBRANCH  22  26
ENDBRANCH   1  23
TORSDOF 6
