REMARK  Name = ZINC41006607
REMARK  13 active torsions:
REMARK  status: ('A' for Active; 'I' for Inactive)
REMARK    1  A    between atoms: C_1  and  C_2
REMARK    2  A    between atoms: C_7  and  N_8
REMARK    3  A    between atoms: C_9  and  C_11
REMARK    4  A    between atoms: C_13  and  C_33
REMARK    5  A    between atoms: C_15  and  C_23
REMARK    6  A    between atoms: C_17  and  C_21
REMARK    7  A    between atoms: C_17  and  O_22
REMARK    8  A    between atoms: N_25  and  C_26
REMARK    9  A    between atoms: C_31  and  C_32
REMARK   10  A    between atoms: C_36  and  O_39
REMARK   11  A    between atoms: O_39  and  C_40
REMARK   12  A    between atoms: C_40  and  C_41
REMARK   13  A    between atoms: C_40  and  C_42
REMARK                            x       y       z     vdW  Elec       q    Type
REMARK                         _______ _______ _______ _____ _____    ______ ____
ROOT
ATOM      1  C   UNL     1       0.185  -0.608   5.797  0.00  0.00    +0.149 C 
ATOM      2  C   UNL     1      -0.291  -1.904   6.462  0.00  0.00    +0.053 C 
ATOM      3  C   UNL     1      -1.451  -2.492   5.657  0.00  0.00    +0.115 C 
ATOM      4  C   UNL     1      -2.641  -1.532   5.685  0.00  0.00    +0.082 C 
ATOM      5  C   UNL     1      -2.254  -0.222   4.990  0.00  0.00    +0.110 C 
ATOM      6  C   UNL     1      -0.999   0.322   5.646  0.00  0.00    +0.148 C 
ATOM      7  O   UNL     1      -0.944   1.462   6.039  0.00  0.00    -0.296 OA
ATOM      8  C   UNL     1      -3.826  -2.166   4.954  0.00  0.00    +0.042 C 
ENDROOT
BRANCH   2   9
ATOM      9  C   UNL     1       0.845  -2.894   6.504  0.00  0.00    -0.042 A 
ATOM     10  C   UNL     1       1.234  -3.547   5.349  0.00  0.00    +0.007 A 
ATOM     11  C   UNL     1       2.274  -4.455   5.385  0.00  0.00    +0.046 A 
ATOM     12  C   UNL     1       2.930  -4.710   6.581  0.00  0.00    +0.121 A 
ATOM     13  C   UNL     1       2.538  -4.053   7.738  0.00  0.00    +0.046 A 
ATOM     14  C   UNL     1       1.500  -3.142   7.696  0.00  0.00    +0.007 A 
BRANCH  12  15
ATOM     15  O   UNL     1       3.953  -5.604   6.619  0.00  0.00    -0.489 OA
BRANCH  15  16
ATOM     16  C   UNL     1       4.579  -5.820   7.886  0.00  0.00    +0.167 C 
ATOM     17  C   UNL     1       3.806  -6.891   8.659  0.00  0.00    +0.051 C 
ATOM     18  C   UNL     1       6.020  -6.287   7.670  0.00  0.00    +0.051 C 
ENDBRANCH  15  16
ENDBRANCH  12  15
ENDBRANCH   2   9
BRANCH   1  20
ATOM     19  N   UNL     1       0.379  -0.200   3.365  0.00  0.00    -0.285 N 
ATOM     20  C   UNL     1       0.762  -0.918   4.440  0.00  0.00    +0.228 C 
ATOM     21  O   UNL     1       1.570  -1.813   4.314  0.00  0.00    -0.275 OA
ATOM     22  H   UNL     1      -0.216   0.558   3.475  0.00  0.00    +0.155 HD
BRANCH  19  29
ATOM     23  C   UNL     1      -1.181   0.571   1.114  0.00  0.00    +0.045 C 
ATOM     24  C   UNL     1       0.110  -0.193   0.965  0.00  0.00    -0.029 A 
ATOM     25  C   UNL     1       0.570  -0.533  -0.292  0.00  0.00    +0.005 A 
ATOM     26  C   UNL     1       1.754  -1.233  -0.429  0.00  0.00    +0.000 A 
ATOM     27  C   UNL     1       2.482  -1.594   0.690  0.00  0.00    +0.002 A 
ATOM     28  C   UNL     1       2.027  -1.256   1.949  0.00  0.00    +0.023 A 
ATOM     29  C   UNL     1       0.840  -0.549   2.091  0.00  0.00    +0.036 A 
ENDBRANCH  19  29
ENDBRANCH   1  20
BRANCH   3  30
ATOM     30  C   UNL     1      -1.014  -2.705   4.231  0.00  0.00    +0.224 C 
ATOM     31  O   UNL     1      -0.916  -1.759   3.479  0.00  0.00    -0.275 OA
ATOM     32  N   UNL     1      -0.731  -3.948   3.791  0.00  0.00    -0.285 N 
ATOM     33  H   UNL     1      -0.864  -4.711   4.375  0.00  0.00    +0.155 HD
BRANCH  32  34
ATOM     34  C   UNL     1      -0.246  -4.136   2.492  0.00  0.00    +0.036 A 
ATOM     35  C   UNL     1      -0.447  -3.159   1.526  0.00  0.00    +0.023 A 
ATOM     36  C   UNL     1       0.033  -3.349   0.244  0.00  0.00    +0.002 A 
ATOM     37  C   UNL     1       0.711  -4.510  -0.077  0.00  0.00    +0.000 A 
ATOM     38  C   UNL     1       0.912  -5.485   0.883  0.00  0.00    +0.005 A 
ATOM     39  C   UNL     1       0.441  -5.298   2.168  0.00  0.00    -0.029 A 
ATOM     40  C   UNL     1       0.667  -6.358   3.216  0.00  0.00    +0.045 C 
ENDBRANCH  32  34
ENDBRANCH   3  30
BRANCH   4  41
ATOM     41  O   UNL     1      -3.005  -1.263   7.040  0.00  0.00    -0.388 OA
ATOM     42  H   UNL     1      -3.755  -0.659   7.134  0.00  0.00    +0.210 HD
ENDBRANCH   4  41
TORSDOF 8
