REMARK  Name = ZINC22743729
REMARK  7 active torsions:
REMARK  status: ('A' for Active; 'I' for Inactive)
REMARK    1  A    between atoms: C_1  and  C_2
REMARK    2  A    between atoms: C_5  and  C_8
REMARK    3  A    between atoms: N_14  and  C_15
REMARK    4  A    between atoms: C_15  and  C_16
REMARK    5  A    between atoms: C_16  and  C_17
REMARK    6  A    between atoms: N_19  and  C_20
REMARK    7  A    between atoms: C_25  and  C_26
REMARK                            x       y       z     vdW  Elec       q    Type
REMARK                         _______ _______ _______ _____ _____    ______ ____
ROOT
ATOM      1  C   UNL     1      -2.550   0.987   0.019  0.00  0.00    +0.163 A 
ATOM      2  N   UNL     1      -2.714  -0.254  -0.348  0.00  0.00    -0.153 NA
ATOM      3  N   UNL     1      -4.066  -0.582  -0.177  0.00  0.00    -0.254 N 
ATOM      4  H   UNL     1      -4.422  -1.593  -0.424  0.00  0.00    +0.191 HD
ATOM      5  C   UNL     1      -4.693   0.515   0.295  0.00  0.00    +0.176 A 
ATOM      6  S   UNL     1      -6.359   0.645   0.667  0.00  0.00    -0.011 S 
ATOM      7  N   UNL     1      -3.771   1.490   0.421  0.00  0.00    -0.303 N 
ENDROOT
BRANCH   1  12
ATOM      8  C   UNL     1       2.423   3.883  -0.064  0.00  0.00    +0.044 C 
ATOM      9  C   UNL     1       1.121   3.125  -0.038  0.00  0.00    -0.050 A 
ATOM     10  C   UNL     1       1.130   1.742  -0.021  0.00  0.00    +0.004 A 
ATOM     11  C   UNL     1      -0.059   1.041   0.001  0.00  0.00    +0.012 A 
ATOM     12  C   UNL     1      -1.272   1.731   0.001  0.00  0.00    +0.019 A 
ATOM     13  C   UNL     1      -1.274   3.126  -0.011  0.00  0.00    +0.012 A 
ATOM     14  C   UNL     1      -0.078   3.815  -0.033  0.00  0.00    +0.004 A 
ENDBRANCH   1  12
BRANCH   7  15
ATOM     15  C   UNL     1      -4.022   2.851   0.902  0.00  0.00    +0.135 C 
BRANCH  15  16
ATOM     16  C   UNL     1      -4.486   3.727  -0.264  0.00  0.00    +0.118 C 
BRANCH  16  17
ATOM     17  C   UNL     1      -4.744   5.127   0.230  0.00  0.00    +0.219 C 
ATOM     18  O   UNL     1      -4.574   5.398   1.400  0.00  0.00    -0.275 OA
ATOM     19  N   UNL     1      -5.164   6.078  -0.627  0.00  0.00    -0.285 N 
ATOM     20  H   UNL     1      -5.388   5.816  -1.672  0.00  0.00    +0.155 HD
BRANCH  19  21
ATOM     21  C   UNL     1      -5.316   7.399  -0.189  0.00  0.00    +0.036 A 
ATOM     22  C   UNL     1      -5.746   7.656   1.107  0.00  0.00    +0.026 A 
ATOM     23  C   UNL     1      -5.895   8.959   1.538  0.00  0.00    +0.040 A 
ATOM     24  C   UNL     1      -5.616  10.010   0.679  0.00  0.00    +0.124 A 
ATOM     25  C   UNL     1      -5.188   9.755  -0.613  0.00  0.00    +0.043 A 
ATOM     26  C   UNL     1      -5.032   8.453  -1.046  0.00  0.00    -0.027 A 
ATOM     27  C   UNL     1      -4.560   8.177  -2.450  0.00  0.00    +0.046 C 
ATOM     28  F   UNL     1      -5.763  11.284   1.103  0.00  0.00    -0.205 F 
ENDBRANCH  19  21
ENDBRANCH  16  17
ENDBRANCH  15  16
ENDBRANCH   7  15
TORSDOF 5
