REMARK  Name = ZINC64026153
REMARK  10 active torsions:
REMARK  status: ('A' for Active; 'I' for Inactive)
REMARK    1  A    between atoms: C_1  and  C_2
REMARK    2  A    between atoms: C_5  and  C_38
REMARK    3  A    between atoms: N_13  and  C_14
REMARK    4  A    between atoms: C_14  and  C_15
REMARK    5  A    between atoms: N_17  and  C_18
REMARK    6  A    between atoms: C_18  and  C_19
REMARK    7  A    between atoms: C_19  and  C_21
REMARK    8  A    between atoms: C_19  and  C_29
REMARK    9  A    between atoms: C_24  and  O_27
REMARK   10  A    between atoms: O_27  and  C_28
REMARK                            x       y       z     vdW  Elec       q    Type
REMARK                         _______ _______ _______ _____ _____    ______ ____
ROOT
ATOM      1  C   UNL     1      -0.202   0.705   3.061  0.00  0.00    +0.230 C 
ATOM      2  O   UNL     1      -1.043  -0.166   2.992  0.00  0.00    -0.274 OA
ATOM      3  N   UNL     1      -0.210   1.569   4.096  0.00  0.00    -0.313 N 
ATOM      4  H   UNL     1       0.463   2.265   4.151  0.00  0.00    +0.149 HD
ENDROOT
BRANCH   1   5
ATOM      5  C   UNL     1       0.852   0.821   1.991  0.00  0.00    +0.201 C 
BRANCH   5  16
ATOM      6  C   UNL     1      -0.454   1.522  -0.340  0.00  0.00    +0.028 C 
ATOM      7  C   UNL     1      -0.211   0.020  -0.182  0.00  0.00    +0.072 C 
ATOM      8  C   UNL     1       0.515  -0.523  -1.420  0.00  0.00    +0.039 C 
ATOM      9  C   UNL     1       0.684  -2.034  -1.270  0.00  0.00    +0.108 C 
ATOM     10  C   UNL     1       1.305  -2.366   0.062  0.00  0.00    -0.014 A 
ATOM     11  C   UNL     1       1.929  -3.591   0.224  0.00  0.00    +0.006 A 
ATOM     12  C   UNL     1       2.505  -3.926   1.433  0.00  0.00    +0.000 A 
ATOM     13  C   UNL     1       2.462  -3.038   2.493  0.00  0.00    +0.002 A 
ATOM     14  C   UNL     1       1.842  -1.814   2.340  0.00  0.00    +0.023 A 
ATOM     15  C   UNL     1       1.262  -1.474   1.122  0.00  0.00    +0.034 A 
ATOM     16  N   UNL     1       0.646  -0.226   0.986  0.00  0.00    -0.318 N 
BRANCH   9  17
ATOM     17  C   UNL     1       1.575  -2.547  -2.372  0.00  0.00    +0.218 C 
ATOM     18  O   UNL     1       2.507  -1.875  -2.760  0.00  0.00    -0.275 OA
ATOM     19  N   UNL     1       1.337  -3.753  -2.925  0.00  0.00    -0.329 N 
ATOM     20  H   UNL     1       0.551  -4.259  -2.665  0.00  0.00    +0.145 HD
ATOM     21  H   UNL     1       1.952  -4.115  -3.582  0.00  0.00    +0.145 HD
ENDBRANCH   9  17
ENDBRANCH   5  16
ENDBRANCH   1   5
BRANCH   3  22
ATOM     22  C   UNL     1      -1.235   1.456   5.136  0.00  0.00    +0.116 C 
BRANCH  22  23
ATOM     23  C   UNL     1      -1.019   2.549   6.185  0.00  0.00    +0.064 C 
BRANCH  23  24
ATOM     24  C   UNL     1       0.292   2.316   6.890  0.00  0.00    -0.033 C 
ATOM     25  C   UNL     1       1.349   3.158   6.940  0.00  0.00    -0.000 A 
ATOM     26  C   UNL     1       1.585   4.492   6.374  0.00  0.00    +0.010 A 
ATOM     27  C   UNL     1       2.772   5.099   6.600  0.00  0.00    +0.001 A 
ATOM     28  C   UNL     1       3.780   4.489   7.359  0.00  0.00    +0.002 A 
ATOM     29  C   UNL     1       3.637   3.265   7.912  0.00  0.00    +0.026 A 
ATOM     30  C   UNL     1       2.429   2.535   7.739  0.00  0.00    +0.043 A 
ATOM     31  N   UNL     1       2.054   1.354   8.166  0.00  0.00    -0.380 N 
ATOM     32  C   UNL     1       0.690   1.096   7.691  0.00  0.00    +0.145 C 
ATOM     33  H   UNL     1       2.588   0.753   8.708  0.00  0.00    +0.160 HD
ENDBRANCH  23  24
BRANCH  23  34
ATOM     34  C   UNL     1      -2.143   2.510   7.189  0.00  0.00    -0.038 A 
ATOM     35  C   UNL     1      -2.359   1.370   7.940  0.00  0.00    +0.008 A 
ATOM     36  C   UNL     1      -3.389   1.332   8.860  0.00  0.00    +0.046 A 
ATOM     37  C   UNL     1      -4.206   2.441   9.030  0.00  0.00    +0.120 A 
ATOM     38  C   UNL     1      -3.987   3.584   8.276  0.00  0.00    +0.046 A 
ATOM     39  C   UNL     1      -2.953   3.618   7.361  0.00  0.00    +0.008 A 
BRANCH  37  40
ATOM     40  O   UNL     1      -5.220   2.406   9.935  0.00  0.00    -0.495 OA
ATOM     41  C   UNL     1      -6.021   3.583  10.057  0.00  0.00    +0.277 C 
ENDBRANCH  37  40
ENDBRANCH  23  34
ENDBRANCH  22  23
ENDBRANCH   3  22
TORSDOF 8
