REMARK  Name = ZINC13531495
REMARK  6 active torsions:
REMARK  status: ('A' for Active; 'I' for Inactive)
REMARK    1  A    between atoms: C_1  and  C_2
REMARK    2  A    between atoms: C_2  and  N_3
REMARK    3  A    between atoms: N_8  and  C_11
REMARK    4  A    between atoms: C_11  and  C_12
REMARK    5  A    between atoms: N_14  and  C_15
REMARK    6  A    between atoms: C_15  and  C_16
REMARK                            x       y       z     vdW  Elec       q    Type
REMARK                         _______ _______ _______ _____ _____    ______ ____
ROOT
ATOM      1  C   UNL     1       2.462   0.920  -0.017  0.00  0.00    +0.222 C 
ENDROOT
BRANCH   1   7
ATOM      2  N   UNL     1       6.633   4.582   0.042  0.00  0.00    -0.227 N 
ATOM      3  C   UNL     1       5.621   3.697  -0.178  0.00  0.00    +0.185 A 
ATOM      4  C   UNL     1       5.178   3.291   1.087  0.00  0.00    +0.196 A 
ATOM      5  C   UNL     1       4.079   2.325   1.149  0.00  0.00    +0.284 A 
ATOM      6  O   UNL     1       3.646   1.929   2.217  0.00  0.00    -0.265 OA
ATOM      7  N   UNL     1       3.562   1.887  -0.022  0.00  0.00    -0.288 N 
ATOM      8  C   UNL     1       4.062   2.334  -1.201  0.00  0.00    +0.205 A 
ATOM      9  N   UNL     1       5.034   3.196  -1.275  0.00  0.00    -0.216 NA
ATOM     10  N   UNL     1       5.916   3.926   2.009  0.00  0.00    -0.122 NA
ATOM     11  N   UNL     1       6.778   4.690   1.433  0.00  0.00    -0.063 NA
BRANCH   2  13
ATOM     12  C   UNL     1       6.740   6.612  -1.317  0.00  0.00    +0.029 C 
ATOM     13  C   UNL     1       7.418   5.284  -0.977  0.00  0.00    +0.144 C 
ENDBRANCH   2  13
ENDBRANCH   1   7
BRANCH   1  14
ATOM     14  C   UNL     1       1.147   1.655   0.000  0.00  0.00    +0.233 C 
ATOM     15  O   UNL     1       1.130   2.868   0.007  0.00  0.00    -0.274 OA
ATOM     16  N   UNL     1      -0.011   0.966   0.007  0.00  0.00    -0.310 N 
ATOM     17  H   UNL     1       0.002  -0.004   0.002  0.00  0.00    +0.149 HD
BRANCH  16  18
ATOM     18  C   UNL     1      -1.290   1.681   0.017  0.00  0.00    +0.139 C 
BRANCH  18  19
ATOM     19  C   UNL     1      -2.422   0.686   0.017  0.00  0.00    -0.030 A 
ATOM     20  C   UNL     1      -2.950   0.241  -1.180  0.00  0.00    +0.008 A 
ATOM     21  C   UNL     1      -3.985  -0.675  -1.181  0.00  0.00    +0.038 A 
ATOM     22  C   UNL     1      -4.500  -1.139   0.017  0.00  0.00    +0.123 A 
ATOM     23  C   UNL     1      -3.973  -0.688   1.216  0.00  0.00    +0.038 A 
ATOM     24  C   UNL     1      -2.935   0.224   1.215  0.00  0.00    +0.008 A 
ATOM     25  F   UNL     1      -5.514  -2.030   0.017  0.00  0.00    -0.205 F 
ENDBRANCH  18  19
ENDBRANCH  16  18
ENDBRANCH   1  14
TORSDOF 5
