REMARK  Name = ZINC36028033
REMARK  12 active torsions:
REMARK  status: ('A' for Active; 'I' for Inactive)
REMARK    1  A    between atoms: C_1  and  C_2
REMARK    2  A    between atoms: C_2  and  C_3
REMARK    3  A    between atoms: C_3  and  C_5
REMARK    4  A    between atoms: C_3  and  C_6
REMARK    5  A    between atoms: C_6  and  N_7
REMARK    6  A    between atoms: C_10  and  C_29
REMARK    7  A    between atoms: N_16  and  C_19
REMARK    8  A    between atoms: C_19  and  N_21
REMARK    9  A    between atoms: N_21  and  C_22
REMARK   10  A    between atoms: C_29  and  C_31
REMARK   11  A    between atoms: C_29  and  C_32
REMARK   12  A    between atoms: C_32  and  C_33
REMARK                            x       y       z     vdW  Elec       q    Type
REMARK                         _______ _______ _______ _____ _____    ______ ____
ROOT
ATOM      1  N   UNL     1      -2.896  -2.549  -0.153  0.00  0.00    -0.313 N 
ATOM      2  C   UNL     1      -3.638  -2.820   0.941  0.00  0.00    +0.201 C 
ATOM      3  O   UNL     1      -3.284  -2.671   2.091  0.00  0.00    -0.277 OA
ATOM      4  C   UNL     1      -4.986  -3.339   0.490  0.00  0.00    +0.022 C 
ATOM      5  N   UNL     1      -5.082  -2.950  -0.938  0.00  0.00    +0.401 N 
ATOM      6  C   UNL     1      -3.670  -2.858  -1.358  0.00  0.00    +0.006 C 
ATOM      7  C   UNL     1      -3.223  -4.195  -1.946  0.00  0.00    +0.025 C 
ATOM      8  C   UNL     1      -1.746  -4.106  -2.346  0.00  0.00    +0.107 C 
ATOM      9  N   UNL     1      -1.568  -2.954  -3.240  0.00  0.00    -0.312 N 
ATOM     10  C   UNL     1      -2.035  -1.634  -2.795  0.00  0.00    +0.107 C 
ATOM     11  C   UNL     1      -3.509  -1.744  -2.390  0.00  0.00    +0.025 C 
ATOM     12  H   UNL     1      -5.569  -3.658  -1.467  0.00  0.00    -0.082 HD
ATOM     13  H   UNL     1      -5.538  -2.055  -1.034  0.00  0.00    -0.082 HD
ENDROOT
BRANCH   9  14
ATOM     14  C   UNL     1      -0.987  -3.105  -4.447  0.00  0.00    +0.137 C 
ATOM     15  S   UNL     1      -0.568  -4.668  -5.005  0.00  0.00    -0.018 S 
BRANCH  14  16
ATOM     16  N   UNL     1      -0.735  -2.026  -5.213  0.00  0.00    -0.295 N 
ATOM     17  H   UNL     1      -1.257  -1.868  -6.015  0.00  0.00    +0.154 HD
BRANCH  16  18
ATOM     18  C   UNL     1       0.281  -1.132  -4.851  0.00  0.00    +0.068 A 
ATOM     19  C   UNL     1       1.104  -1.414  -3.770  0.00  0.00    +0.026 A 
ATOM     20  C   UNL     1       2.105  -0.531  -3.416  0.00  0.00    +0.002 A 
ATOM     21  C   UNL     1       2.288   0.635  -4.137  0.00  0.00    +0.003 A 
ATOM     22  C   UNL     1       1.471   0.921  -5.214  0.00  0.00    +0.040 A 
ATOM     23  C   UNL     1       0.470   0.039  -5.578  0.00  0.00    +0.144 A 
ATOM     24  F   UNL     1      -0.326   0.316  -6.634  0.00  0.00    -0.204 F 
ENDBRANCH  16  18
ENDBRANCH  14  16
ENDBRANCH   9  14
BRANCH   4  25
ATOM     25  C   UNL     1      -6.107  -2.684   1.300  0.00  0.00    -0.020 C 
ATOM     26  C   UNL     1      -7.461  -3.195   0.803  0.00  0.00    +0.006 C 
BRANCH  25  27
ATOM     27  C   UNL     1      -5.940  -3.036   2.779  0.00  0.00    -0.001 C 
ATOM     28  C   UNL     1      -6.985  -2.281   3.604  0.00  0.00    +0.004 C 
ENDBRANCH  25  27
ENDBRANCH   4  25
BRANCH   1  29
ATOM     29  C   UNL     1      -1.529  -2.022  -0.139  0.00  0.00    +0.109 C 
BRANCH  29  30
ATOM     30  C   UNL     1      -1.572  -0.493  -0.119  0.00  0.00    +0.003 C 
ATOM     31  C   UNL     1      -2.264  -0.018   1.160  0.00  0.00    +0.009 C 
BRANCH  30  33
ATOM     32  C   UNL     1      -0.192   1.584  -0.269  0.00  0.00    +0.004 C 
ATOM     33  C   UNL     1      -0.146   0.059  -0.162  0.00  0.00    +0.001 C 
ENDBRANCH  30  33
ENDBRANCH  29  30
ENDBRANCH   1  29
TORSDOF 8
