REMARK  Name = ZINC30587274
REMARK  8 active torsions:
REMARK  status: ('A' for Active; 'I' for Inactive)
REMARK    1  A    between atoms: C_1  and  C_2
REMARK    2  A    between atoms: N_5  and  S_11
REMARK    3  A    between atoms: C_7  and  C_10
REMARK    4  A    between atoms: S_11  and  N_14
REMARK    5  A    between atoms: N_17  and  C_20
REMARK    6  A    between atoms: C_20  and  N_21
REMARK    7  A    between atoms: N_24  and  C_27
REMARK    8  A    between atoms: C_27  and  C_28
REMARK                            x       y       z     vdW  Elec       q    Type
REMARK                         _______ _______ _______ _____ _____    ______ ____
ROOT
ATOM      1  N   UNL     1      -2.927  -3.771  -5.350  0.00  0.00    -0.170 NA
ATOM      2  C   UNL     1      -3.729  -4.180  -4.186  0.00  0.00    +0.092 C 
ATOM      3  C   UNL     1      -4.562  -2.981  -3.723  0.00  0.00    -0.059 C 
ATOM      4  N   UNL     1      -3.675  -1.832  -3.493  0.00  0.00    +0.394 N 
ATOM      5  C   UNL     1      -3.013  -1.413  -4.736  0.00  0.00    -0.059 C 
ATOM      6  C   UNL     1      -2.116  -2.549  -5.241  0.00  0.00    +0.092 C 
ATOM      7  H   UNL     1      -2.893  -2.150  -2.788  0.00  0.00    -0.079 HD
ENDROOT
BRANCH   1   8
ATOM      8  S   UNL     1      -2.937  -4.663  -6.745  0.00  0.00    +0.100 S 
ATOM      9  O   UNL     1      -1.775  -4.291  -7.474  0.00  0.00    -0.141 OA
ATOM     10  O   UNL     1      -3.200  -6.007  -6.366  0.00  0.00    -0.141 OA
BRANCH   8  14
ATOM     11  C   UNL     1      -5.341  -6.358  -9.293  0.00  0.00    +0.039 C 
ATOM     12  C   UNL     1      -6.148  -5.171  -8.763  0.00  0.00    +0.131 C 
ATOM     13  C   UNL     1      -5.577  -4.726  -7.412  0.00  0.00    +0.142 C 
ATOM     14  N   UNL     1      -4.237  -4.160  -7.639  0.00  0.00    -0.162 NA
ATOM     15  C   UNL     1      -4.089  -3.129  -8.678  0.00  0.00    +0.142 C 
ATOM     16  C   UNL     1      -4.732  -3.656  -9.971  0.00  0.00    +0.131 C 
ATOM     17  O   UNL     1      -6.066  -4.086  -9.690  0.00  0.00    -0.371 OA
ATOM     18  C   UNL     1      -4.764  -2.539 -11.016  0.00  0.00    +0.039 C 
ENDBRANCH   8  14
ENDBRANCH   1   8
BRANCH   4  19
ATOM     19  C   UNL     1      -4.408  -0.714  -2.885  0.00  0.00    +0.072 C 
BRANCH  19  20
ATOM     20  N   UNL     1      -3.459   0.315  -2.452  0.00  0.00    -0.258 N 
ATOM     21  C   UNL     1      -2.859   0.394  -1.246  0.00  0.00    +0.176 A 
ATOM     22  S   UNL     1      -3.067  -0.690   0.063  0.00  0.00    -0.011 S 
ATOM     23  N   UNL     1      -2.069   1.486  -1.260  0.00  0.00    -0.306 N 
ATOM     24  C   UNL     1      -2.176   2.081  -2.493  0.00  0.00    +0.223 A 
ATOM     25  N   UNL     1      -3.000   1.396  -3.217  0.00  0.00    -0.161 NA
BRANCH  23  26
ATOM     26  C   UNL     1      -1.234   1.954  -0.151  0.00  0.00    +0.152 C 
BRANCH  26  27
ATOM     27  C   UNL     1       0.087   1.230  -0.176  0.00  0.00    -0.013 C 
ATOM     28  C   UNL     1       1.206   1.910  -0.212  0.00  0.00    +0.005 C 
ENDBRANCH  26  27
ENDBRANCH  23  26
ENDBRANCH  19  20
ENDBRANCH   4  19
TORSDOF 6
