REMARK  Name = ZINC09714944
REMARK  7 active torsions:
REMARK  status: ('A' for Active; 'I' for Inactive)
REMARK    1  A    between atoms: C_1  and  C_2
REMARK    2  A    between atoms: C_9  and  N_14
REMARK    3  A    between atoms: C_10  and  C_11
REMARK    4  A    between atoms: C_15  and  C_17
REMARK    5  A    between atoms: C_20  and  N_23
REMARK    6  A    between atoms: N_23  and  S_24
REMARK    7  A    between atoms: S_24  and  C_27
REMARK                            x       y       z     vdW  Elec       q    Type
REMARK                         _______ _______ _______ _____ _____    ______ ____
ROOT
ATOM      1  N   UNL     1      -0.776  -1.596  -0.051  0.00  0.00    -0.275 N 
ATOM      2  C   UNL     1      -1.972  -0.976   0.005  0.00  0.00    +0.249 C 
ATOM      3  O   UNL     1      -2.026   0.238   0.045  0.00  0.00    -0.270 OA
ATOM      4  H   UNL     1      -0.732  -2.564  -0.082  0.00  0.00    +0.156 HD
ENDROOT
BRANCH   1  12
ATOM      5  C   UNL     1       5.564   2.982  -0.206  0.00  0.00    +0.008 C 
ATOM      6  C   UNL     1       4.604   1.826  -0.495  0.00  0.00    -0.009 C 
ATOM      7  C   UNL     1       5.039   0.586   0.292  0.00  0.00    +0.008 C 
ATOM      8  C   UNL     1       4.242  -0.633  -0.177  0.00  0.00    +0.037 C 
ATOM      9  C   UNL     1       2.757  -0.299  -0.121  0.00  0.00    -0.023 A 
ATOM     10  C   UNL     1       2.333   0.983  -0.069  0.00  0.00    -0.004 A 
ATOM     11  S   UNL     1       0.567   0.874  -0.017  0.00  0.00    -0.077 S 
ATOM     12  C   UNL     1       0.391  -0.849  -0.064  0.00  0.00    +0.085 A 
ATOM     13  C   UNL     1       1.703  -1.299  -0.119  0.00  0.00    +0.068 A 
ATOM     14  C   UNL     1       3.184   2.215  -0.060  0.00  0.00    +0.046 C 
BRANCH  13  15
ATOM     15  C   UNL     1       2.013  -2.731  -0.173  0.00  0.00    +0.244 C 
ATOM     16  O   UNL     1       2.109  -3.293  -1.248  0.00  0.00    -0.270 OA
ATOM     17  N   UNL     1       2.193  -3.425   0.968  0.00  0.00    -0.325 N 
ATOM     18  H   UNL     1       2.116  -2.978   1.825  0.00  0.00    +0.145 HD
ATOM     19  H   UNL     1       2.398  -4.373   0.932  0.00  0.00    +0.145 HD
ENDBRANCH  13  15
ENDBRANCH   1  12
BRANCH   2  20
ATOM     20  C   UNL     1      -3.214  -1.771   0.020  0.00  0.00    +0.037 A 
ATOM     21  C   UNL     1      -3.153  -3.167  -0.031  0.00  0.00    +0.015 A 
ATOM     22  C   UNL     1      -4.314  -3.906  -0.013  0.00  0.00    +0.025 A 
ATOM     23  C   UNL     1      -5.548  -3.265   0.045  0.00  0.00    +0.048 A 
ATOM     24  C   UNL     1      -5.612  -1.875   0.091  0.00  0.00    +0.025 A 
ATOM     25  C   UNL     1      -4.455  -1.130   0.078  0.00  0.00    +0.015 A 
BRANCH  23  26
ATOM     26  N   UNL     1      -6.719  -4.014   0.059  0.00  0.00    -0.216 N 
ATOM     27  H   UNL     1      -6.982  -4.488   0.863  0.00  0.00    +0.174 HD
BRANCH  26  28
ATOM     28  S   UNL     1      -7.664  -4.098  -1.298  0.00  0.00    +0.072 S 
ATOM     29  O   UNL     1      -8.742  -4.971  -0.990  0.00  0.00    -0.150 OA
ATOM     30  O   UNL     1      -7.867  -2.761  -1.735  0.00  0.00    -0.150 OA
BRANCH  28  31
ATOM     31  C   UNL     1      -6.712  -4.896  -2.548  0.00  0.00    +0.109 A 
ATOM     32  C   UNL     1      -5.877  -4.152  -3.360  0.00  0.00    +0.031 A 
ATOM     33  C   UNL     1      -5.126  -4.778  -4.338  0.00  0.00    +0.040 A 
ATOM     34  C   UNL     1      -5.218  -6.149  -4.510  0.00  0.00    +0.124 A 
ATOM     35  C   UNL     1      -6.059  -6.892  -3.699  0.00  0.00    +0.040 A 
ATOM     36  C   UNL     1      -6.805  -6.265  -2.719  0.00  0.00    +0.031 A 
ATOM     37  F   UNL     1      -4.488  -6.761  -5.468  0.00  0.00    -0.205 F 
ENDBRANCH  28  31
ENDBRANCH  26  28
ENDBRANCH  23  26
ENDBRANCH   2  20
TORSDOF 6
