REMARK  Name = ZINC09113474
REMARK  10 active torsions:
REMARK  status: ('A' for Active; 'I' for Inactive)
REMARK    1  A    between atoms: C_1  and  C_2
REMARK    2  A    between atoms: C_2  and  O_3
REMARK    3  A    between atoms: O_3  and  C_4
REMARK    4  A    between atoms: C_7  and  C_12
REMARK    5  A    between atoms: C_9  and  O_10
REMARK    6  A    between atoms: O_10  and  C_11
REMARK    7  A    between atoms: C_25  and  C_31
REMARK    8  A    between atoms: C_26  and  C_27
REMARK    9  A    between atoms: C_27  and  O_29
REMARK   10  A    between atoms: O_29  and  C_30
REMARK                            x       y       z     vdW  Elec       q    Type
REMARK                         _______ _______ _______ _____ _____    ______ ____
ROOT
ATOM      1  C   UNL     1       2.471   6.707   0.006  0.00  0.00    +0.094 C 
ATOM      2  C   UNL     1       1.655   5.437   0.012  0.00  0.00    +0.034 C 
ATOM      3  C   UNL     1       2.230   4.196   0.004  0.00  0.00    +0.047 C 
ATOM      4  C   UNL     1       1.169   3.168   0.008  0.00  0.00    +0.007 A 
ATOM      5  C   UNL     1       1.184   1.784   0.000  0.00  0.00    +0.010 A 
ATOM      6  C   UNL     1      -0.013   1.076   0.008  0.00  0.00    +0.001 A 
ATOM      7  C   UNL     1      -1.217   1.745   0.017  0.00  0.00    +0.001 A 
ATOM      8  C   UNL     1      -1.246   3.136   0.032  0.00  0.00    +0.012 A 
ATOM      9  C   UNL     1      -0.064   3.848   0.023  0.00  0.00    +0.031 A 
ATOM     10  C   UNL     1       0.253   5.306   0.026  0.00  0.00    +0.193 C 
ATOM     11  O   UNL     1      -0.554   6.215   0.039  0.00  0.00    -0.287 OA
ATOM     12  N   UNL     1       3.597   4.024  -0.004  0.00  0.00    -0.317 N 
ATOM     13  C   UNL     1       4.383   5.113   0.269  0.00  0.00    +0.016 C 
ATOM     14  C   UNL     1       3.909   6.366   0.291  0.00  0.00    +0.065 C 
ATOM     15  C   UNL     1       5.846   4.891   0.558  0.00  0.00    +0.061 C 
ATOM     16  H   UNL     1       4.025   3.035  -0.225  0.00  0.00    +0.152 HD
ENDROOT
BRANCH   1  20
ATOM     17  C   UNL     1       2.174   8.585  -3.825  0.00  0.00    +0.163 A 
ATOM     18  C   UNL     1       1.762   9.259  -2.687  0.00  0.00    +0.065 A 
ATOM     19  C   UNL     1       1.854   8.648  -1.450  0.00  0.00    +0.026 A 
ATOM     20  C   UNL     1       2.367   7.367  -1.345  0.00  0.00    -0.018 A 
ATOM     21  C   UNL     1       2.779   6.690  -2.477  0.00  0.00    +0.055 A 
ATOM     22  C   UNL     1       2.685   7.295  -3.720  0.00  0.00    +0.162 A 
ATOM     23 BR   UNL     1       1.284   9.566   0.102  0.00  0.00    -0.050 Br
BRANCH  22  24
ATOM     24  O   UNL     1       3.091   6.630  -4.835  0.00  0.00    -0.491 OA
ATOM     25  C   UNL     1       3.605   5.309  -4.651  0.00  0.00    +0.277 C 
ENDBRANCH  22  24
BRANCH  17  26
ATOM     26  O   UNL     1       2.080   9.183  -5.043  0.00  0.00    -0.489 OA
BRANCH  26  28
ATOM     27  C   UNL     1       1.518  11.012  -6.520  0.00  0.00    +0.048 C 
ATOM     28  C   UNL     1       1.546  10.508  -5.075  0.00  0.00    +0.226 C 
ENDBRANCH  26  28
ENDBRANCH  17  26
ENDBRANCH   1  20
BRANCH  14  29
ATOM     29  C   UNL     1       4.804   7.419   0.595  0.00  0.00    +0.337 C 
ATOM     30  O   UNL     1       5.973   7.176   0.829  0.00  0.00    -0.245 OA
BRANCH  29  31
ATOM     31  O   UNL     1       4.360   8.693   0.625  0.00  0.00    -0.465 OA
ATOM     32  C   UNL     1       5.318   9.706   0.940  0.00  0.00    +0.280 C 
ENDBRANCH  29  31
ENDBRANCH  14  29
TORSDOF 6
