REMARK  Name = ZINC51277066
REMARK  7 active torsions:
REMARK  status: ('A' for Active; 'I' for Inactive)
REMARK    1  A    between atoms: C_1  and  N_2
REMARK    2  A    between atoms: N_2  and  C_3
REMARK    3  A    between atoms: C_3  and  C_4
REMARK    4  A    between atoms: C_3  and  C_7
REMARK    5  A    between atoms: N_12  and  C_13
REMARK    6  A    between atoms: C_13  and  C_14
REMARK    7  A    between atoms: C_17  and  C_20
REMARK                            x       y       z     vdW  Elec       q    Type
REMARK                         _______ _______ _______ _____ _____    ______ ____
ROOT
ATOM      1  C   UNL     1      -0.460   0.378  -4.705  0.00  0.00    -0.030 A 
ATOM      2  C   UNL     1      -1.707   0.893  -5.009  0.00  0.00    +0.006 A 
ATOM      3  C   UNL     1      -1.851   1.793  -6.045  0.00  0.00    +0.013 A 
ATOM      4  C   UNL     1      -0.735   2.183  -6.787  0.00  0.00    +0.037 A 
ATOM      5  C   UNL     1       0.520   1.660  -6.475  0.00  0.00    +0.013 A 
ATOM      6  C   UNL     1       0.652   0.765  -5.433  0.00  0.00    +0.006 A 
ENDROOT
BRANCH   4   7
ATOM      7  C   UNL     1      -0.883   3.146  -7.899  0.00  0.00    +0.247 C 
ATOM      8  O   UNL     1      -0.072   4.041  -8.039  0.00  0.00    -0.270 OA
ATOM      9  N   UNL     1      -1.916   3.032  -8.757  0.00  0.00    -0.287 N 
ATOM     10  C   UNL     1      -2.038   3.913  -9.931  0.00  0.00    +0.127 C 
ATOM     11  C   UNL     1      -1.994   3.042 -11.188  0.00  0.00    +0.123 C 
ATOM     12  N   UNL     1      -2.876   1.891 -11.049  0.00  0.00    -0.313 N 
ATOM     13  C   UNL     1      -3.292   1.391  -9.884  0.00  0.00    +0.230 C 
ATOM     14  O   UNL     1      -3.961   0.380  -9.895  0.00  0.00    -0.274 OA
ATOM     15  C   UNL     1      -2.964   2.020  -8.562  0.00  0.00    +0.203 C 
ATOM     16  H   UNL     1      -3.183   1.458 -11.861  0.00  0.00    +0.149 HD
ENDBRANCH   4   7
BRANCH   1  17
ATOM     17  C   UNL     1      -0.309  -0.604  -3.572  0.00  0.00    +0.141 C 
BRANCH  17  22
ATOM     18  C   UNL     1       0.434   1.576  -0.036  0.00  0.00    +0.134 C 
ATOM     19  N   UNL     1       0.359   0.113  -0.029  0.00  0.00    -0.285 N 
ATOM     20  C   UNL     1       0.120  -0.555  -1.174  0.00  0.00    +0.302 C 
ATOM     21  O   UNL     1       0.058  -1.769  -1.168  0.00  0.00    -0.253 OA
ATOM     22  N   UNL     1      -0.050   0.122  -2.327  0.00  0.00    -0.295 N 
ATOM     23  H   UNL     1       0.000   1.091  -2.332  0.00  0.00    +0.151 HD
BRANCH  19  24
ATOM     24  C   UNL     1       0.543  -0.623   1.224  0.00  0.00    +0.083 C 
BRANCH  24  25
ATOM     25  C   UNL     1       1.903  -0.268   1.829  0.00  0.00    +0.010 C 
ATOM     26  C   UNL     1       3.003  -1.330   1.766  0.00  0.00    +0.006 C 
ATOM     27  C   UNL     1       2.326  -1.008   3.099  0.00  0.00    +0.006 C 
ENDBRANCH  24  25
BRANCH  24  28
ATOM     28  C   UNL     1      -0.566  -0.243   2.207  0.00  0.00    +0.010 C 
ATOM     29  C   UNL     1      -1.350  -1.383   2.862  0.00  0.00    +0.006 C 
ATOM     30  C   UNL     1      -2.010  -0.521   1.784  0.00  0.00    +0.006 C 
ENDBRANCH  24  28
ENDBRANCH  19  24
ENDBRANCH  17  22
ENDBRANCH   1  17
TORSDOF 6
