REMARK  Name = ZINC19531685
REMARK  10 active torsions:
REMARK  status: ('A' for Active; 'I' for Inactive)
REMARK    1  A    between atoms: C_1  and  C_2
REMARK    2  A    between atoms: C_2  and  O_3
REMARK    3  A    between atoms: O_3  and  C_4
REMARK    4  A    between atoms: C_5  and  C_13
REMARK    5  A    between atoms: C_8  and  O_10
REMARK    6  A    between atoms: O_10  and  C_11
REMARK    7  A    between atoms: C_11  and  C_12
REMARK    8  A    between atoms: C_13  and  O_34
REMARK    9  A    between atoms: N_21  and  C_23
REMARK   10  A    between atoms: C_23  and  C_24
REMARK                            x       y       z     vdW  Elec       q    Type
REMARK                         _______ _______ _______ _____ _____    ______ ____
ROOT
ATOM      1  C   UNL     1       8.017  -0.452   3.201  0.00  0.00    +0.099 C 
ATOM      2  C   UNL     1       7.081  -0.385   4.419  0.00  0.00    +0.040 C 
ATOM      3  C   UNL     1       6.021   0.688   4.103  0.00  0.00    +0.005 C 
ATOM      4  C   UNL     1       6.690   1.615   3.036  0.00  0.00    -0.023 C 
ATOM      5  C   UNL     1       7.517   0.595   2.189  0.00  0.00    +0.010 C 
ATOM      6  C   UNL     1       6.450  -0.052   1.284  0.00  0.00    -0.072 C 
ATOM      7  N   UNL     1       5.296   0.864   1.230  0.00  0.00    +0.384 N 
ATOM      8  C   UNL     1       5.622   2.073   2.016  0.00  0.00    -0.075 C 
ATOM      9  H   UNL     1       4.410   0.370   1.654  0.00  0.00    -0.081 HD
ENDROOT
BRANCH   1  11
ATOM     10  C   UNL     1       8.571  -2.083   1.358  0.00  0.00    +0.227 A 
ATOM     11  C   UNL     1       7.963  -1.827   2.587  0.00  0.00    +0.064 A 
ATOM     12  C   UNL     1       7.316  -2.864   3.230  0.00  0.00    +0.128 A 
ATOM     13  N   UNL     1       7.283  -4.059   2.661  0.00  0.00    -0.203 NA
ATOM     14  C   UNL     1       7.869  -4.272   1.494  0.00  0.00    +0.321 A 
ATOM     15  N   UNL     1       8.503  -3.307   0.849  0.00  0.00    -0.159 NA
BRANCH  10  16
ATOM     16  O   UNL     1       9.221  -1.097   0.694  0.00  0.00    -0.476 OA
BRANCH  16  18
ATOM     17  C   UNL     1      10.499  -0.210  -1.155  0.00  0.00    +0.048 C 
ATOM     18  C   UNL     1       9.816  -1.442  -0.559  0.00  0.00    +0.227 C 
ENDBRANCH  16  18
ENDBRANCH  10  16
BRANCH  14  19
ATOM     19  O   UNL     1       7.817  -5.510   0.946  0.00  0.00    -0.463 OA
BRANCH  19  20
ATOM     20  C   UNL     1       7.121  -6.517   1.682  0.00  0.00    +0.229 C 
ATOM     21  C   UNL     1       7.170  -7.838   0.911  0.00  0.00    +0.048 C 
ENDBRANCH  19  20
ENDBRANCH  14  19
ENDBRANCH   1  11
BRANCH   1  22
ATOM     22  O   UNL     1       9.356  -0.147   3.595  0.00  0.00    -0.384 OA
ATOM     23  H   UNL     1       9.584   0.822   4.064  0.00  0.00    +0.211 HD
ENDBRANCH   1  22
BRANCH   7  24
ATOM     24  C   UNL     1       4.965   1.212  -0.158  0.00  0.00    -0.021 C 
BRANCH  24  25
ATOM     25  C   UNL     1       3.647   1.943  -0.192  0.00  0.00    +0.044 A 
ATOM     26  C   UNL     1       3.631   3.339  -0.187  0.00  0.00    +0.132 A 
ATOM     27  N   UNL     1       2.494   3.997  -0.215  0.00  0.00    -0.252 NA
ATOM     28  C   UNL     1       1.339   3.323  -0.249  0.00  0.00    +0.089 A 
ATOM     29  C   UNL     1       0.106   3.998  -0.281  0.00  0.00    +0.030 A 
ATOM     30  C   UNL     1      -1.052   3.284  -0.316  0.00  0.00    +0.002 A 
ATOM     31  C   UNL     1      -1.036   1.890  -0.327  0.00  0.00    +0.002 A 
ATOM     32  C   UNL     1       0.139   1.204  -0.291  0.00  0.00    +0.030 A 
ATOM     33  C   UNL     1       1.356   1.906  -0.254  0.00  0.00    +0.089 A 
ATOM     34  N   UNL     1       2.526   1.259  -0.225  0.00  0.00    -0.250 NA
ENDBRANCH  24  25
ENDBRANCH   7  24
TORSDOF 8
