REMARK  Name = ZINC36814594
REMARK  9 active torsions:
REMARK  status: ('A' for Active; 'I' for Inactive)
REMARK    1  A    between atoms: C_1  and  C_2
REMARK    2  A    between atoms: C_2  and  C_3
REMARK    3  A    between atoms: C_3  and  N_4
REMARK    4  A    between atoms: N_4  and  C_5
REMARK    5  A    between atoms: C_5  and  C_6
REMARK    6  A    between atoms: C_7  and  C_21
REMARK    7  A    between atoms: N_9  and  C_20
REMARK    8  A    between atoms: C_10  and  O_11
REMARK    9  A    between atoms: O_11  and  C_12
REMARK                            x       y       z     vdW  Elec       q    Type
REMARK                         _______ _______ _______ _____ _____    ______ ____
ROOT
ATOM      1  C   UNL     1      -2.883  -4.018   0.010  0.00  0.00    +0.020 A 
ATOM      2  C   UNL     1      -2.832  -4.829  -1.127  0.00  0.00    +0.065 A 
ATOM      3  N   UNL     1      -2.678  -6.069  -0.740  0.00  0.00    -0.173 NA
ATOM      4  N   UNL     1      -2.625  -6.091   0.660  0.00  0.00    -0.236 N 
ATOM      5  C   UNL     1      -2.748  -4.819   1.100  0.00  0.00    +0.220 A 
ATOM      6  C   UNL     1      -2.460  -7.281   1.498  0.00  0.00    +0.176 C 
ATOM      7  C   UNL     1      -2.937  -4.357  -2.554  0.00  0.00    +0.068 C 
ENDROOT
BRANCH   1   8
ATOM      8  C   UNL     1      -3.052  -2.520   0.025  0.00  0.00    -0.040 C 
BRANCH   8   9
ATOM      9  N   UNL     1      -1.732  -1.878  -0.027  0.00  0.00    +0.382 N 
ATOM     10  H   UNL     1      -1.256  -2.155  -0.873  0.00  0.00    -0.085 HD
ATOM     11  H   UNL     1      -1.187  -2.163   0.773  0.00  0.00    -0.085 HD
BRANCH   9  12
ATOM     12  C   UNL     1      -1.896  -0.419  -0.013  0.00  0.00    -0.082 C 
BRANCH  12  14
ATOM     13  C   UNL     1      -0.692   1.770  -0.052  0.00  0.00    +0.002 C 
ATOM     14  C   UNL     1      -0.521   0.250  -0.067  0.00  0.00    -0.022 C 
ENDBRANCH  12  14
ENDBRANCH   9  12
ENDBRANCH   8   9
ENDBRANCH   1   8
BRANCH   5  15
ATOM     15  O   UNL     1      -2.740  -4.415   2.396  0.00  0.00    -0.438 OA
BRANCH  15  16
ATOM     16  C   UNL     1      -3.916  -4.435   3.077  0.00  0.00    +0.133 A 
ATOM     17  C   UNL     1      -5.053  -4.964   2.485  0.00  0.00    +0.066 A 
ATOM     18  C   UNL     1      -6.248  -4.983   3.180  0.00  0.00    +0.046 A 
ATOM     19  C   UNL     1      -6.311  -4.474   4.465  0.00  0.00    +0.040 A 
ATOM     20  C   UNL     1      -5.178  -3.946   5.058  0.00  0.00    +0.046 A 
ATOM     21  C   UNL     1      -3.979  -3.931   4.369  0.00  0.00    +0.066 A 
ATOM     22 CL   UNL     1      -5.259  -3.308   6.670  0.00  0.00    -0.083 Cl
ATOM     23 CL   UNL     1      -7.672  -5.645   2.439  0.00  0.00    -0.083 Cl
ENDBRANCH  15  16
ENDBRANCH   5  15
TORSDOF 6
