REMARK  Name = ZINC39981241
REMARK  4 active torsions:
REMARK  status: ('A' for Active; 'I' for Inactive)
REMARK    1  A    between atoms: C_14  and  S_16
REMARK    2  A    between atoms: S_16  and  C_17
REMARK    3  A    between atoms: C_17  and  C_18
REMARK    4  A    between atoms: N_20  and  C_21
REMARK                            x       y       z     vdW  Elec       q    Type
REMARK                         _______ _______ _______ _____ _____    ______ ____
ROOT
ATOM      1  S   UNL     1       7.245  -0.625  -2.562  0.00  0.00    -0.075 S 
ENDROOT
BRANCH   1  14
ATOM      2  C   UNL     1      -0.017   1.401   0.010  0.00  0.00    +0.040 A 
ATOM      3  C   UNL     1       1.122   2.127   0.003  0.00  0.00    +0.029 A 
ATOM      4  C   UNL     1       2.417   1.433  -0.013  0.00  0.00    +0.046 A 
ATOM      5  N   UNL     1       3.648   1.882  -0.054  0.00  0.00    -0.358 N 
ATOM      6  C   UNL     1       4.562   0.760   0.074  0.00  0.00    +0.252 C 
ATOM      7  C   UNL     1       3.708  -0.488  -0.065  0.00  0.00    +0.117 C 
ATOM      8  C   UNL     1       2.404  -0.052  -0.033  0.00  0.00    +0.028 A 
ATOM      9  C   UNL     1       1.157  -0.714  -0.019  0.00  0.00    +0.050 A 
ATOM     10  C   UNL     1       0.002  -0.004   0.002  0.00  0.00    +0.124 A 
ATOM     11  F   UNL     1      -1.173  -0.671   0.016  0.00  0.00    -0.205 F 
ATOM     12  N   UNL     1       4.246  -1.683  -0.311  0.00  0.00    -0.147 NA
ATOM     13  N   UNL     1       5.382  -1.666  -0.940  0.00  0.00    -0.122 NA
ATOM     14  C   UNL     1       5.947  -0.514  -1.376  0.00  0.00    +0.208 C 
ATOM     15  N   UNL     1       5.587   0.680  -0.965  0.00  0.00    -0.227 NA
ATOM     16  H   UNL     1       3.906   2.812  -0.155  0.00  0.00    +0.162 HD
ENDBRANCH   1  14
BRANCH   1  17
ATOM     17  C   UNL     1       7.709   1.102  -2.868  0.00  0.00    +0.173 C 
BRANCH  17  18
ATOM     18  C   UNL     1       8.826   1.151  -3.878  0.00  0.00    +0.224 C 
ATOM     19  O   UNL     1       9.266   0.122  -4.346  0.00  0.00    -0.275 OA
ATOM     20  N   UNL     1       9.336   2.338  -4.262  0.00  0.00    -0.309 N 
ATOM     21  H   UNL     1       8.983   3.161  -3.888  0.00  0.00    +0.149 HD
BRANCH  20  22
ATOM     22  C   UNL     1      10.422   2.386  -5.244  0.00  0.00    +0.035 C 
ATOM     23  C   UNL     1      11.632   1.621  -4.704  0.00  0.00    +0.029 C 
ATOM     24  C   UNL     1      12.766   1.671  -5.730  0.00  0.00    -0.008 C 
ATOM     25  C   UNL     1      13.156   3.128  -5.988  0.00  0.00    +0.007 C 
ATOM     26  C   UNL     1      11.946   3.892  -6.528  0.00  0.00    -0.008 C 
ATOM     27  C   UNL     1      10.812   3.842  -5.502  0.00  0.00    +0.029 C 
ATOM     28  C   UNL     1      11.480   3.250  -7.836  0.00  0.00    +0.007 C 
ATOM     29  C   UNL     1      11.089   1.794  -7.578  0.00  0.00    -0.008 C 
ATOM     30  C   UNL     1      12.299   1.029  -7.038  0.00  0.00    +0.007 C 
ATOM     31  C   UNL     1       9.955   1.744  -6.552  0.00  0.00    +0.029 C 
ENDBRANCH  20  22
ENDBRANCH  17  18
ENDBRANCH   1  17
TORSDOF 4
