REMARK  Name = ZINC67128883
REMARK  7 active torsions:
REMARK  status: ('A' for Active; 'I' for Inactive)
REMARK    1  A    between atoms: C_1  and  C_2
REMARK    2  A    between atoms: C_2  and  C_4
REMARK    3  A    between atoms: C_2  and  N_12
REMARK    4  A    between atoms: C_13  and  C_15
REMARK    5  A    between atoms: C_15  and  N_16
REMARK    6  A    between atoms: C_18  and  O_26
REMARK    7  A    between atoms: C_21  and  C_23
REMARK                            x       y       z     vdW  Elec       q    Type
REMARK                         _______ _______ _______ _____ _____    ______ ____
ROOT
ATOM      1  N   UNL     1       0.977   0.214   1.483  0.00  0.00    -0.310 N 
ATOM      2  C   UNL     1       0.261  -0.077   2.588  0.00  0.00    +0.197 C 
ATOM      3  O   UNL     1      -0.899   0.270   2.668  0.00  0.00    -0.278 OA
ATOM      4  H   UNL     1       1.904  -0.063   1.419  0.00  0.00    +0.149 HD
ENDROOT
BRANCH   1   6
ATOM      5  C   UNL     1       0.442   2.452   0.655  0.00  0.00    +0.033 C 
ATOM      6  C   UNL     1       0.354   0.950   0.380  0.00  0.00    +0.100 C 
BRANCH   6   7
ATOM      7  C   UNL     1       1.074   0.632  -0.905  0.00  0.00    -0.026 A 
ATOM      8  C   UNL     1       2.451   0.513  -0.914  0.00  0.00    +0.007 A 
ATOM      9  C   UNL     1       3.113   0.221  -2.092  0.00  0.00    +0.022 A 
ATOM     10  C   UNL     1       2.396   0.048  -3.263  0.00  0.00    +0.059 A 
ATOM     11  C   UNL     1       1.017   0.167  -3.254  0.00  0.00    +0.060 A 
ATOM     12  C   UNL     1       0.356   0.453  -2.073  0.00  0.00    +0.027 A 
ATOM     13 CL   UNL     1       0.117  -0.050  -4.722  0.00  0.00    -0.082 Cl
ATOM     14 CL   UNL     1       3.227  -0.318  -4.743  0.00  0.00    -0.082 Cl
ENDBRANCH   6   7
ENDBRANCH   1   6
BRANCH   2  15
ATOM     15  C   UNL     1       0.901  -0.834   3.723  0.00  0.00    +0.020 C 
BRANCH  15  16
ATOM     16  N   UNL     1      -0.080  -1.024   4.800  0.00  0.00    +0.395 N 
ATOM     17  C   UNL     1      -0.399   0.281   5.418  0.00  0.00    -0.045 C 
ATOM     18  C   UNL     1      -0.592  -0.032   6.923  0.00  0.00    +0.097 C 
ATOM     19  C   UNL     1       0.491  -1.117   7.159  0.00  0.00    +0.023 C 
ATOM     20  C   UNL     1       0.485  -1.909   5.835  0.00  0.00    +0.022 C 
ATOM     21  H   UNL     1      -0.921  -1.434   4.424  0.00  0.00    -0.080 HD
BRANCH  20  22
ATOM     22  C   UNL     1       1.893  -2.298   5.464  0.00  0.00    +0.197 C 
ATOM     23  O   UNL     1       2.725  -1.440   5.256  0.00  0.00    -0.278 OA
ATOM     24  N   UNL     1       2.228  -3.600   5.363  0.00  0.00    -0.331 N 
ATOM     25  H   UNL     1       1.563  -4.286   5.530  0.00  0.00    +0.145 HD
ATOM     26  H   UNL     1       3.134  -3.851   5.125  0.00  0.00    +0.145 HD
ENDBRANCH  20  22
BRANCH  18  27
ATOM     27  O   UNL     1      -0.341   1.125   7.723  0.00  0.00    -0.394 OA
ATOM     28  H   UNL     1      -0.450   0.978   8.672  0.00  0.00    +0.210 HD
ENDBRANCH  18  27
ENDBRANCH  15  16
ENDBRANCH   2  15
TORSDOF 6
