REMARK  Name = ZINC54296982
REMARK  4 active torsions:
REMARK  status: ('A' for Active; 'I' for Inactive)
REMARK    1  A    between atoms: C_4  and  S_8
REMARK    2  A    between atoms: S_8  and  N_11
REMARK    3  A    between atoms: C_15  and  C_18
REMARK    4  A    between atoms: C_18  and  C_19
REMARK                            x       y       z     vdW  Elec       q    Type
REMARK                         _______ _______ _______ _____ _____    ______ ____
ROOT
ATOM      1  S   UNL     1       3.936  -0.832  -0.042  0.00  0.00    +0.064 S 
ATOM      2  O   UNL     1       3.677  -2.114  -0.597  0.00  0.00    -0.153 OA
ATOM      3  O   UNL     1       4.892   0.060  -0.597  0.00  0.00    -0.153 OA
ENDROOT
BRANCH   1   7
ATOM      4  C   UNL     1      -0.017   1.378   0.010  0.00  0.00    +0.003 A 
ATOM      5  C   UNL     1       1.171   2.086   0.002  0.00  0.00    +0.022 A 
ATOM      6  C   UNL     1       2.378   1.411  -0.013  0.00  0.00    +0.069 A 
ATOM      7  C   UNL     1       2.398   0.028  -0.021  0.00  0.00    +0.142 A 
ATOM      8  C   UNL     1       1.209  -0.680  -0.013  0.00  0.00    +0.069 A 
ATOM      9  C   UNL     1       0.002  -0.004   0.002  0.00  0.00    +0.022 A 
ATOM     10 CL   UNL     1       1.233  -2.416  -0.023  0.00  0.00    -0.081 Cl
ATOM     11 CL   UNL     1       3.869   2.300  -0.024  0.00  0.00    -0.081 Cl
ENDBRANCH   1   7
BRANCH   1  12
ATOM     12  N   UNL     1       4.379  -1.079   1.535  0.00  0.00    -0.176 NA
ATOM     13  C   UNL     1       5.192  -0.084   2.249  0.00  0.00    +0.109 C 
ATOM     14  C   UNL     1       6.423  -0.782   2.835  0.00  0.00    +0.017 C 
ATOM     15  C   UNL     1       5.972  -1.963   3.699  0.00  0.00    +0.006 C 
ATOM     16  C   UNL     1       5.213  -2.970   2.832  0.00  0.00    +0.016 C 
ATOM     17  C   UNL     1       3.963  -2.294   2.248  0.00  0.00    +0.113 C 
BRANCH  16  18
ATOM     18  C   UNL     1       4.792  -4.166   3.689  0.00  0.00    +0.130 C 
BRANCH  18  19
ATOM     19  C   UNL     1       6.019  -4.897   4.168  0.00  0.00    +0.356 C 
ATOM     20  O   UNL     1       7.128  -4.500   3.853  0.00  0.00    -0.246 OA
ATOM     21  O   UNL     1       5.903  -5.887   4.870  0.00  0.00    -0.246 OA
ENDBRANCH  18  19
ENDBRANCH  16  18
ENDBRANCH   1  12
TORSDOF 4
