REMARK  Name = ZINC67562274
REMARK  5 active torsions:
REMARK  status: ('A' for Active; 'I' for Inactive)
REMARK    1  A    between atoms: C_3  and  C_8
REMARK    2  A    between atoms: C_11  and  N_13
REMARK    3  A    between atoms: N_16  and  C_17
REMARK    4  A    between atoms: C_17  and  C_18
REMARK    5  A    between atoms: C_21  and  N_24
REMARK                            x       y       z     vdW  Elec       q    Type
REMARK                         _______ _______ _______ _____ _____    ______ ____
ROOT
ATOM      1  N   UNL     1       5.377   3.129   1.623  0.00  0.00    -0.296 N 
ATOM      2  C   UNL     1       5.856   3.152   2.883  0.00  0.00    +0.300 C 
ATOM      3  O   UNL     1       5.638   2.221   3.634  0.00  0.00    -0.253 OA
ATOM      4  N   UNL     1       6.578   4.207   3.311  0.00  0.00    -0.295 N 
ATOM      5  H   UNL     1       5.552   3.872   1.025  0.00  0.00    +0.151 HD
ATOM      6  H   UNL     1       6.752   4.950   2.712  0.00  0.00    +0.151 HD
ENDROOT
BRANCH   1   9
ATOM      7  C   UNL     1       3.609   2.217   0.011  0.00  0.00    +0.041 C 
ATOM      8  C   UNL     1       4.901   1.435  -0.237  0.00  0.00    +0.033 C 
ATOM      9  C   UNL     1       4.593   1.982   1.159  0.00  0.00    +0.082 C 
BRANCH   7  12
ATOM     10  C   UNL     1      -0.076   1.399   0.088  0.00  0.00    +0.003 A 
ATOM     11  C   UNL     1       1.110   2.111   0.069  0.00  0.00    +0.004 A 
ATOM     12  C   UNL     1       2.318   1.441   0.031  0.00  0.00    -0.040 A 
ATOM     13  C   UNL     1       2.343   0.059   0.011  0.00  0.00    +0.042 A 
ATOM     14  C   UNL     1       1.156  -0.654   0.029  0.00  0.00    +0.124 A 
ATOM     15  C   UNL     1      -0.054   0.018   0.068  0.00  0.00    +0.038 A 
ATOM     16  F   UNL     1       1.179  -2.005   0.009  0.00  0.00    -0.205 F 
ENDBRANCH   7  12
ENDBRANCH   1   9
BRANCH   4  17
ATOM     17  C   UNL     1       7.098   4.232   4.680  0.00  0.00    +0.141 C 
BRANCH  17  18
ATOM     18  C   UNL     1       7.864   5.511   4.903  0.00  0.00    -0.030 A 
ATOM     19  C   UNL     1       9.218   5.562   4.627  0.00  0.00    +0.007 A 
ATOM     20  C   UNL     1       9.922   6.732   4.830  0.00  0.00    +0.023 A 
ATOM     21  C   UNL     1       9.268   7.860   5.312  0.00  0.00    +0.030 A 
ATOM     22  C   UNL     1       7.908   7.805   5.588  0.00  0.00    +0.023 A 
ATOM     23  C   UNL     1       7.209   6.633   5.377  0.00  0.00    +0.007 A 
BRANCH  21  24
ATOM     24  N   UNL     1       9.978   9.045   5.520  0.00  0.00    -0.328 N 
ATOM     25  C   UNL     1       9.259  10.259   5.907  0.00  0.00    +0.116 C 
ATOM     26  C   UNL     1       9.673  10.667   7.326  0.00  0.00    +0.088 C 
ATOM     27  S   UNL     1      11.476  10.894   7.363  0.00  0.00    -0.158 S 
ATOM     28  C   UNL     1      12.104   9.322   6.699  0.00  0.00    +0.088 C 
ATOM     29  C   UNL     1      11.432   9.056   5.352  0.00  0.00    +0.116 C 
ENDBRANCH  21  24
ENDBRANCH  17  18
ENDBRANCH   4  17
TORSDOF 5
