REMARK  Name = ZINC39431144
REMARK  6 active torsions:
REMARK  status: ('A' for Active; 'I' for Inactive)
REMARK    1  A    between atoms: C_1  and  C_2
REMARK    2  A    between atoms: C_2  and  C_4
REMARK    3  A    between atoms: C_2  and  S_16
REMARK    4  A    between atoms: S_16  and  C_17
REMARK    5  A    between atoms: N_28  and  C_29
REMARK    6  A    between atoms: C_29  and  C_30
REMARK                            x       y       z     vdW  Elec       q    Type
REMARK                         _______ _______ _______ _____ _____    ______ ____
ROOT
ATOM      1  C   UNL     1       2.369   0.100  -1.271  0.00  0.00    +0.223 C 
ATOM      2  N   UNL     1       3.074  -0.550  -0.160  0.00  0.00    -0.317 N 
ATOM      3  C   UNL     1       2.743  -0.194   1.142  0.00  0.00    +0.043 A 
ATOM      4  C   UNL     1       2.872  -1.082   2.196  0.00  0.00    +0.043 A 
ATOM      5  C   UNL     1       2.545  -0.677   3.477  0.00  0.00    +0.043 A 
ATOM      6  C   UNL     1       2.090   0.613   3.714  0.00  0.00    +0.021 A 
ATOM      7  C   UNL     1       1.950   1.507   2.674  0.00  0.00    +0.016 A 
ATOM      8  C   UNL     1       2.269   1.109   1.377  0.00  0.00    +0.058 A 
ATOM      9  C   UNL     1       2.109   2.019   0.229  0.00  0.00    +0.251 C 
ATOM     10  O   UNL     1       1.858   3.195   0.409  0.00  0.00    -0.270 OA
ATOM     11  N   UNL     1       2.244   1.536  -1.018  0.00  0.00    -0.266 N 
ATOM     12 CL   UNL     1       2.705  -1.790   4.800  0.00  0.00    -0.083 Cl
ATOM     13  H   UNL     1       3.758  -1.216  -0.331  0.00  0.00    +0.149 HD
ENDROOT
BRANCH   1  14
ATOM     14  S   UNL     1       0.716  -0.626  -1.440  0.00  0.00    -0.108 S 
BRANCH  14  16
ATOM     15  C   UNL     1       1.753  -3.149  -1.242  0.00  0.00    +0.027 C 
ATOM     16  C   UNL     1       1.020  -2.233  -2.224  0.00  0.00    +0.112 C 
BRANCH  16  17
ATOM     17  C   UNL     1      -0.294  -2.861  -2.611  0.00  0.00    +0.123 A 
ATOM     18  N   UNL     1      -0.282  -4.122  -3.116  0.00  0.00    -0.309 N 
ATOM     19  H   UNL     1       0.560  -4.591  -3.218  0.00  0.00    +0.170 HD
ATOM     20  C   UNL     1      -1.436  -4.730  -3.478  0.00  0.00    +0.259 A 
ATOM     21  O   UNL     1      -1.440  -5.860  -3.931  0.00  0.00    -0.267 OA
ATOM     22  C   UNL     1      -2.684  -3.973  -3.302  0.00  0.00    +0.065 A 
ATOM     23  C   UNL     1      -3.925  -4.507  -3.644  0.00  0.00    +0.015 A 
ATOM     24  C   UNL     1      -5.063  -3.753  -3.458  0.00  0.00    +0.001 A 
ATOM     25  C   UNL     1      -4.982  -2.469  -2.935  0.00  0.00    +0.002 A 
ATOM     26  C   UNL     1      -3.767  -1.923  -2.592  0.00  0.00    +0.028 A 
ATOM     27  C   UNL     1      -2.599  -2.667  -2.770  0.00  0.00    +0.078 A 
ATOM     28  N   UNL     1      -1.380  -2.170  -2.439  0.00  0.00    -0.233 NA
ENDBRANCH  16  17
ENDBRANCH  14  16
ENDBRANCH   1  14
BRANCH  11  29
ATOM     29  C   UNL     1       2.265   2.469  -2.147  0.00  0.00    +0.137 C 
BRANCH  29  30
ATOM     30  C   UNL     1       0.860   2.686  -2.646  0.00  0.00    -0.016 C 
ATOM     31  C   UNL     1       0.375   3.900  -2.730  0.00  0.00    +0.005 C 
ENDBRANCH  29  30
ENDBRANCH  11  29
TORSDOF 5
