REMARK  Name = ZINC09681407
REMARK  6 active torsions:
REMARK  status: ('A' for Active; 'I' for Inactive)
REMARK    1  A    between atoms: C_1  and  C_2
REMARK    2  A    between atoms: C_6  and  N_9
REMARK    3  A    between atoms: C_7  and  C_8
REMARK    4  A    between atoms: C_15  and  C_17
REMARK    5  A    between atoms: C_20  and  N_23
REMARK    6  A    between atoms: C_30  and  C_38
REMARK                            x       y       z     vdW  Elec       q    Type
REMARK                         _______ _______ _______ _____ _____    ______ ____
ROOT
ATOM      1  C   UNL     1       2.464   0.367  -0.087  0.00  0.00    +0.037 A 
ATOM      2  C   UNL     1       1.224  -0.170   0.270  0.00  0.00    +0.015 A 
ATOM      3  C   UNL     1       0.099   0.622   0.242  0.00  0.00    +0.024 A 
ATOM      4  C   UNL     1       0.194   1.956  -0.140  0.00  0.00    +0.042 A 
ATOM      5  C   UNL     1       1.427   2.495  -0.495  0.00  0.00    +0.024 A 
ATOM      6  C   UNL     1       2.557   1.708  -0.470  0.00  0.00    +0.015 A 
ENDROOT
BRANCH   4   7
ATOM      7  N   UNL     1      -0.948   2.755  -0.172  0.00  0.00    -0.216 N 
ATOM      8  C   UNL     1      -1.337   3.287  -1.341  0.00  0.00    +0.310 C 
ATOM      9  O   UNL     1      -0.639   3.118  -2.322  0.00  0.00    -0.252 OA
ATOM     10  N   UNL     1      -2.473   3.994  -1.467  0.00  0.00    -0.292 N 
ATOM     11  C   UNL     1      -3.368   4.151  -0.309  0.00  0.00    +0.114 C 
ATOM     12  C   UNL     1      -2.487   4.292   0.943  0.00  0.00    +0.096 C 
ATOM     13  C   UNL     1      -1.682   2.990   1.068  0.00  0.00    +0.185 C 
ATOM     14  O   UNL     1      -2.583   1.920   1.338  0.00  0.00    -0.468 OA
ATOM     15  C   UNL     1      -3.733   1.838   0.621  0.00  0.00    +0.128 A 
ATOM     16  C   UNL     1      -4.170   2.875  -0.184  0.00  0.00    +0.015 A 
ATOM     17  C   UNL     1      -5.354   2.756  -0.888  0.00  0.00    +0.009 A 
ATOM     18  C   UNL     1      -6.104   1.598  -0.796  0.00  0.00    +0.001 A 
ATOM     19  C   UNL     1      -5.668   0.556   0.001  0.00  0.00    +0.004 A 
ATOM     20  C   UNL     1      -4.489   0.673   0.708  0.00  0.00    +0.046 A 
ATOM     21  C   UNL     1      -0.692   3.116   2.228  0.00  0.00    +0.079 C 
ATOM     22  H   UNL     1      -2.699   4.403  -2.317  0.00  0.00    +0.151 HD
ENDBRANCH   4   7
BRANCH   1  29
ATOM     23  N   UNL     1       7.162   0.941   1.492  0.00  0.00    -0.327 N 
ATOM     24  C   UNL     1       6.950  -0.499   1.295  0.00  0.00    +0.124 C 
ATOM     25  C   UNL     1       6.111  -0.721   0.032  0.00  0.00    +0.127 C 
ATOM     26  N   UNL     1       4.883   0.080   0.140  0.00  0.00    -0.295 N 
ATOM     27  C   UNL     1       5.009   1.509   0.467  0.00  0.00    +0.127 C 
ATOM     28  C   UNL     1       5.891   1.641   1.718  0.00  0.00    +0.124 C 
ATOM     29  C   UNL     1       3.672  -0.479  -0.059  0.00  0.00    +0.247 C 
ATOM     30  O   UNL     1       3.577  -1.681  -0.216  0.00  0.00    -0.270 OA
BRANCH  23  36
ATOM     31  C   UNL     1      11.461   2.733   3.059  0.00  0.00    +0.044 C 
ATOM     32  C   UNL     1      10.149   2.043   3.327  0.00  0.00    -0.046 A 
ATOM     33  C   UNL     1       9.829   1.642   4.612  0.00  0.00    +0.004 A 
ATOM     34  C   UNL     1       8.626   1.009   4.862  0.00  0.00    +0.002 A 
ATOM     35  C   UNL     1       7.739   0.775   3.830  0.00  0.00    +0.023 A 
ATOM     36  C   UNL     1       8.057   1.176   2.539  0.00  0.00    +0.033 A 
ATOM     37  C   UNL     1       9.269   1.807   2.289  0.00  0.00    -0.027 A 
ATOM     38  C   UNL     1       9.621   2.239   0.889  0.00  0.00    +0.046 C 
ENDBRANCH  23  36
ENDBRANCH   1  29
TORSDOF 3
