REMARK  Name = ZINC59022273
REMARK  8 active torsions:
REMARK  status: ('A' for Active; 'I' for Inactive)
REMARK    1  A    between atoms: C_1  and  C_2
REMARK    2  A    between atoms: C_4  and  C_30
REMARK    3  A    between atoms: C_7  and  C_9
REMARK    4  A    between atoms: C_9  and  S_10
REMARK    5  A    between atoms: S_10  and  C_11
REMARK    6  A    between atoms: N_16  and  N_17
REMARK    7  A    between atoms: C_18  and  C_19
REMARK    8  A    between atoms: C_18  and  C_20
REMARK                            x       y       z     vdW  Elec       q    Type
REMARK                         _______ _______ _______ _____ _____    ______ ____
ROOT
ATOM      1  C   UNL     1      -2.747  -5.118   6.011  0.00  0.00    +0.211 A 
ATOM      2  N   UNL     1      -1.983  -5.832   6.845  0.00  0.00    -0.186 NA
ATOM      3  C   UNL     1      -1.679  -5.105   7.899  0.00  0.00    +0.232 A 
ATOM      4  N   UNL     1      -2.256  -3.893   7.750  0.00  0.00    -0.245 N 
ATOM      5  N   UNL     1      -2.935  -3.925   6.521  0.00  0.00    -0.144 NA
ATOM      6  N   UNL     1      -0.906  -5.511   8.971  0.00  0.00    -0.205 N 
ATOM      7  H   UNL     1      -0.737  -4.901   9.706  0.00  0.00    +0.177 HD
ATOM      8  H   UNL     1      -2.207  -3.147   8.368  0.00  0.00    +0.192 HD
ENDROOT
BRANCH   6   9
ATOM      9  N   UNL     1      -0.367  -6.804   8.997  0.00  0.00    -0.184 NA
ATOM     10  C   UNL     1       0.261  -7.225  10.052  0.00  0.00    +0.063 C 
ATOM     11  C   UNL     1       0.998  -8.539  10.016  0.00  0.00    +0.068 C 
BRANCH  10  12
ATOM     12  C   UNL     1       0.253  -6.418  11.285  0.00  0.00    -0.002 A 
ATOM     13  C   UNL     1      -0.908  -5.710  11.650  0.00  0.00    +0.010 A 
ATOM     14  C   UNL     1      -0.939  -4.960  12.780  0.00  0.00    +0.009 A 
ATOM     15  C   UNL     1       0.199  -4.882  13.606  0.00  0.00    -0.018 A 
ATOM     16  C   UNL     1       0.189  -4.112  14.781  0.00  0.00    +0.008 A 
ATOM     17  C   UNL     1       1.305  -4.056  15.559  0.00  0.00    +0.001 A 
ATOM     18  C   UNL     1       2.461  -4.752  15.210  0.00  0.00    +0.001 A 
ATOM     19  C   UNL     1       2.508  -5.507  14.079  0.00  0.00    +0.008 A 
ATOM     20  C   UNL     1       1.375  -5.590  13.250  0.00  0.00    -0.017 A 
ATOM     21  C   UNL     1       1.388  -6.365  12.080  0.00  0.00    +0.018 A 
ENDBRANCH  10  12
ENDBRANCH   6   9
BRANCH   1  22
ATOM     22  S   UNL     1      -3.390  -5.686   4.472  0.00  0.00    -0.075 S 
BRANCH  22  23
ATOM     23  C   UNL     1      -4.319  -4.266   3.833  0.00  0.00    +0.178 C 
BRANCH  23  30
ATOM     24  C   UNL     1      -7.227  -0.426   1.405  0.00  0.00    +0.067 C 
ATOM     25  C   UNL     1      -6.696  -1.835   1.349  0.00  0.00    +0.061 A 
ATOM     26  C   UNL     1      -6.915  -2.754   0.312  0.00  0.00    +0.048 A 
ATOM     27  C   UNL     1      -6.277  -3.901   0.629  0.00  0.00    +0.045 A 
ATOM     28  N   UNL     1      -5.670  -3.713   1.836  0.00  0.00    -0.204 N 
ATOM     29  N   UNL     1      -5.948  -2.406   2.255  0.00  0.00    -0.169 NA
ATOM     30  C   UNL     1      -4.930  -4.622   2.502  0.00  0.00    +0.258 C 
ATOM     31  O   UNL     1      -4.756  -5.721   2.033  0.00  0.00    -0.270 OA
ATOM     32  C   UNL     1      -6.243  -5.159  -0.199  0.00  0.00    +0.066 C 
ENDBRANCH  23  30
ENDBRANCH  22  23
ENDBRANCH   1  22
TORSDOF 5
