REMARK  Name = ZINC20673940
REMARK  2 active torsions:
REMARK  status: ('A' for Active; 'I' for Inactive)
REMARK    1  A    between atoms: C_3  and  C_8
REMARK    2  A    between atoms: C_5  and  O_7
REMARK                            x       y       z     vdW  Elec       q    Type
REMARK                         _______ _______ _______ _____ _____    ______ ____
ROOT
ATOM      1  C   UNL     1       1.230  -2.184  -0.021  0.00  0.00    +0.092 C 
ATOM      2  C   UNL     1       1.917  -2.672   1.220  0.00  0.00    +0.069 A 
ATOM      3  C   UNL     1       1.248  -2.663   2.450  0.00  0.00    +0.259 A 
ATOM      4  O   UNL     1       0.098  -2.261   2.529  0.00  0.00    -0.267 OA
ATOM      5  N   UNL     1       1.899  -3.106   3.546  0.00  0.00    -0.295 N 
ATOM      6  H   UNL     1       1.393  -3.110   4.522  0.00  0.00    +0.172 HD
ATOM      7  C   UNL     1       3.182  -3.549   3.446  0.00  0.00    +0.200 A 
ATOM      8  N   UNL     1       3.815  -3.562   2.292  0.00  0.00    -0.200 NA
ATOM      9  C   UNL     1       3.219  -3.138   1.172  0.00  0.00    +0.136 A 
ATOM     10  N   UNL     1       3.893  -3.162  -0.033  0.00  0.00    -0.302 N 
ATOM     11  C   UNL     1       3.208  -3.111  -1.217  0.00  0.00    +0.017 C 
ATOM     12  C   UNL     1       1.937  -2.661  -1.264  0.00  0.00    +0.024 C 
ATOM     13  C   UNL     1       1.228  -2.623  -2.478  0.00  0.00    +0.162 C 
ATOM     14  O   UNL     1       0.088  -2.202  -2.488  0.00  0.00    -0.292 OA
ATOM     15  C   UNL     1       1.852  -3.093  -3.763  0.00  0.00    +0.080 C 
ATOM     16  C   UNL     1       2.898  -4.166  -3.445  0.00  0.00    +0.014 C 
ATOM     17  C   UNL     1       3.916  -3.574  -2.467  0.00  0.00    +0.051 C 
ATOM     18  N   UNL     1       3.828  -3.991   4.570  0.00  0.00    -0.301 N 
ATOM     19  C   UNL     1       3.724  -3.010   5.657  0.00  0.00    +0.108 C 
ATOM     20  C   UNL     1       4.327  -3.597   6.935  0.00  0.00    +0.019 C 
ATOM     21  C   UNL     1       5.795  -3.953   6.683  0.00  0.00    +0.003 C 
ATOM     22  C   UNL     1       5.880  -4.939   5.515  0.00  0.00    +0.019 C 
ATOM     23  C   UNL     1       5.231  -4.314   4.278  0.00  0.00    +0.108 C 
ATOM     24  H   UNL     1       4.991  -3.222  -0.048  0.00  0.00    +0.153 HD
ENDROOT
BRANCH   1  27
ATOM     25  C   UNL     1       2.380   1.413  -0.013  0.00  0.00    +0.004 A 
ATOM     26  C   UNL     1       2.396   0.030  -0.021  0.00  0.00    +0.005 A 
ATOM     27  C   UNL     1       1.208  -0.677  -0.013  0.00  0.00    -0.032 A 
ATOM     28  C   UNL     1       0.002  -0.004   0.002  0.00  0.00    +0.050 A 
ATOM     29  C   UNL     1      -0.017   1.383   0.010  0.00  0.00    +0.117 A 
ATOM     30  C   UNL     1       1.177   2.091   0.002  0.00  0.00    +0.045 A 
BRANCH  29  31
ATOM     31  O   UNL     1      -1.202   2.047   0.019  0.00  0.00    -0.507 OA
ATOM     32  H   UNL     1      -1.216   3.147   0.025  0.00  0.00    +0.292 HD
ENDBRANCH  29  31
ENDBRANCH   1  27
TORSDOF 2
