REMARK  Name = ZINC02918624
REMARK  2 active torsions:
REMARK  status: ('A' for Active; 'I' for Inactive)
REMARK    1  A    between atoms: C_6  and  C_7
REMARK    2  A    between atoms: C_10  and  C_18
REMARK                            x       y       z     vdW  Elec       q    Type
REMARK                         _______ _______ _______ _____ _____    ______ ____
ROOT
ATOM      1  C   UNL     1      -1.293  -0.775   0.010  0.00  0.00    +0.144 C 
ATOM      2  C   UNL     1      -1.374  -1.658  -1.242  0.00  0.00    +0.059 C 
ATOM      3  C   UNL     1      -2.539  -2.644  -1.107  0.00  0.00    +0.106 C 
ATOM      4  N   UNL     1      -2.281  -3.526   0.048  0.00  0.00    -0.305 N 
ATOM      5  C   UNL     1      -1.805  -2.908   1.196  0.00  0.00    +0.236 A 
ATOM      6  N   UNL     1      -1.347  -1.628   1.194  0.00  0.00    -0.206 N 
ATOM      7  N   UNL     1      -0.969  -1.362   2.510  0.00  0.00    -0.042 NA
ATOM      8  N   UNL     1      -1.208  -2.439   3.187  0.00  0.00    -0.021 NA
ATOM      9  N   UNL     1      -1.698  -3.355   2.415  0.00  0.00    -0.092 NA
ATOM     10  H   UNL     1      -2.435  -4.483   0.008  0.00  0.00    +0.150 HD
ENDROOT
BRANCH   1  16
ATOM     11  C   UNL     1      -0.017   1.378   0.010  0.00  0.00    +0.007 A 
ATOM     12  C   UNL     1       1.171   2.086   0.002  0.00  0.00    +0.015 A 
ATOM     13  C   UNL     1       2.378   1.411  -0.013  0.00  0.00    +0.018 A 
ATOM     14  C   UNL     1       2.396   0.027  -0.021  0.00  0.00    +0.015 A 
ATOM     15  C   UNL     1       1.208  -0.679  -0.013  0.00  0.00    +0.007 A 
ATOM     16  C   UNL     1       0.002  -0.004   0.002  0.00  0.00    -0.023 A 
ATOM     17 BR   UNL     1       4.003   2.378  -0.024  0.00  0.00    -0.050 Br
ENDBRANCH   1  16
BRANCH   3  18
ATOM     18  C   UNL     1      -2.651  -3.470  -2.363  0.00  0.00    -0.027 A 
ATOM     19  C   UNL     1      -1.812  -4.551  -2.555  0.00  0.00    +0.006 A 
ATOM     20  C   UNL     1      -1.915  -5.309  -3.707  0.00  0.00    +0.015 A 
ATOM     21  C   UNL     1      -2.856  -4.985  -4.667  0.00  0.00    +0.013 A 
ATOM     22  C   UNL     1      -3.695  -3.902  -4.474  0.00  0.00    +0.015 A 
ATOM     23  C   UNL     1      -3.596  -3.148  -3.319  0.00  0.00    +0.006 A 
ATOM     24  I   UNL     1      -3.011  -6.132  -6.412  0.00  0.00    -0.044 I 
ENDBRANCH   3  18
TORSDOF 2
