REMARK  Name = ZINC06017154
REMARK  4 active torsions:
REMARK  status: ('A' for Active; 'I' for Inactive)
REMARK    1  A    between atoms: C_3  and  O_18
REMARK    2  A    between atoms: C_6  and  N_7
REMARK    3  A    between atoms: N_7  and  N_8
REMARK    4  A    between atoms: O_18  and  C_19
REMARK                            x       y       z     vdW  Elec       q    Type
REMARK                         _______ _______ _______ _____ _____    ______ ____
ROOT
ATOM      1  N   UNL     1      -1.206  -0.740  -0.233  0.00  0.00    -0.237 N 
ATOM      2  H   UNL     1      -2.051  -0.299  -0.412  0.00  0.00    +0.174 HD
ENDROOT
BRANCH   1   3
ATOM      3  N   UNL     1      -1.178  -2.009   0.003  0.00  0.00    -0.172 NA
ATOM      4  C   UNL     1      -2.308  -2.686   0.110  0.00  0.00    +0.207 C 
ATOM      5  C   UNL     1      -3.614  -2.007   0.123  0.00  0.00    +0.294 C 
ATOM      6  O   UNL     1      -3.695  -0.663   0.025  0.00  0.00    -0.266 OA
ATOM      7  N   UNL     1      -4.706  -2.744   0.233  0.00  0.00    -0.152 NA
ATOM      8  C   UNL     1      -4.657  -4.070   0.330  0.00  0.00    +0.164 C 
ATOM      9  S   UNL     1      -6.134  -4.925   0.468  0.00  0.00    -0.016 S 
ATOM     10  N   UNL     1      -3.516  -4.774   0.326  0.00  0.00    -0.261 N 
ATOM     11  C   UNL     1      -2.318  -4.159   0.215  0.00  0.00    +0.275 C 
ATOM     12  O   UNL     1      -1.282  -4.797   0.206  0.00  0.00    -0.268 OA
ATOM     13  H   UNL     1      -3.551  -5.740   0.401  0.00  0.00    +0.157 HD
ENDBRANCH   1   3
BRANCH   1  19
ATOM     14  C   UNL     1      -0.051   1.363  -0.483  0.00  0.00    +0.028 A 
ATOM     15  C   UNL     1       1.122   2.090  -0.479  0.00  0.00    +0.048 A 
ATOM     16  C   UNL     1       2.331   1.458  -0.222  0.00  0.00    +0.127 A 
ATOM     17  C   UNL     1       2.361   0.093   0.031  0.00  0.00    +0.048 A 
ATOM     18  C   UNL     1       1.190  -0.636   0.027  0.00  0.00    +0.028 A 
ATOM     19  C   UNL     1      -0.021  -0.004  -0.229  0.00  0.00    +0.049 A 
BRANCH  16  20
ATOM     20  O   UNL     1       3.485   2.175  -0.219  0.00  0.00    -0.434 OA
BRANCH  20  21
ATOM     21  C   UNL     1       4.692   1.460   0.052  0.00  0.00    +0.541 C 
ATOM     22  F   UNL     1       4.612   0.873   1.319  0.00  0.00    -0.166 F 
ATOM     23  F   UNL     1       4.872   0.464  -0.913  0.00  0.00    -0.166 F 
ENDBRANCH  20  21
ENDBRANCH  16  20
ENDBRANCH   1  19
TORSDOF 4
