REMARK  Name = ZINC17066465
REMARK  3 active torsions:
REMARK  status: ('A' for Active; 'I' for Inactive)
REMARK    1  A    between atoms: C_1  and  C_2
REMARK    2  A    between atoms: C_16  and  C_21
REMARK    3  A    between atoms: C_26  and  O_27
REMARK                            x       y       z     vdW  Elec       q    Type
REMARK                         _______ _______ _______ _____ _____    ______ ____
ROOT
ATOM      1  C   UNL     1      -0.018   1.503   0.010  0.00  0.00    +0.061 C 
ATOM      2  C   UNL     1       0.002  -0.004   0.002  0.00  0.00    +0.013 C 
ATOM      3  C   UNL     1      -1.229  -0.573   0.114  0.00  0.00    +0.055 C 
ATOM      4  C   UNL     1      -1.473  -2.016   0.155  0.00  0.00    +0.049 C 
ATOM      5  N   UNL     1      -0.623  -2.898   0.546  0.00  0.00    -0.282 NA
ATOM      6  C   UNL     1       0.678  -2.569   1.091  0.00  0.00    +0.126 C 
ATOM      7  C   UNL     1       0.618  -1.648   2.302  0.00  0.00    +0.028 C 
ATOM      8  C   UNL     1       2.025  -1.545   2.904  0.00  0.00    +0.002 C 
ATOM      9  C   UNL     1       3.011  -1.036   1.853  0.00  0.00    +0.002 C 
ATOM     10  C   UNL     1       3.014  -1.953   0.627  0.00  0.00    +0.024 C 
ATOM     11  C   UNL     1       1.581  -1.923   0.031  0.00  0.00    +0.094 C 
ATOM     12  N   UNL     1       1.202  -0.518  -0.117  0.00  0.00    -0.342 N 
ATOM     13  C   UNL     1      -2.855  -2.481  -0.278  0.00  0.00    +0.064 C 
ATOM     14  C   UNL     1      -3.881  -1.706   0.546  0.00  0.00    +0.036 C 
ATOM     15  C   UNL     1      -3.764  -0.210   0.325  0.00  0.00    +0.088 C 
ATOM     16  C   UNL     1      -2.365   0.283   0.184  0.00  0.00    +0.167 C 
ATOM     17  O   UNL     1      -2.183   1.482   0.127  0.00  0.00    -0.292 OA
ATOM     18  H   UNL     1       1.918   0.103  -0.322  0.00  0.00    +0.146 HD
ENDROOT
BRANCH  14  19
ATOM     19  C   UNL     1      -5.266  -2.152   0.153  0.00  0.00    -0.002 A 
ATOM     20  C   UNL     1      -5.694  -2.009  -1.153  0.00  0.00    +0.007 A 
ATOM     21  C   UNL     1      -6.964  -2.418  -1.514  0.00  0.00    +0.001 A 
ATOM     22  C   UNL     1      -7.809  -2.971  -0.570  0.00  0.00    +0.004 A 
ATOM     23  C   UNL     1      -7.386  -3.117   0.737  0.00  0.00    +0.046 A 
ATOM     24  C   UNL     1      -6.110  -2.712   1.101  0.00  0.00    +0.120 A 
BRANCH  24  25
ATOM     25  O   UNL     1      -5.689  -2.860   2.385  0.00  0.00    -0.506 OA
ATOM     26  H   UNL     1      -5.881  -2.100   2.951  0.00  0.00    +0.292 HD
ENDBRANCH  24  25
ENDBRANCH  14  19
TORSDOF 2
