REMARK  Name = ZINC67447344
REMARK  8 active torsions:
REMARK  status: ('A' for Active; 'I' for Inactive)
REMARK    1  A    between atoms: C_1  and  C_2
REMARK    2  A    between atoms: C_7  and  C_11
REMARK    3  A    between atoms: C_11  and  N_12
REMARK    4  A    between atoms: N_12  and  C_13
REMARK    5  A    between atoms: C_13  and  C_14
REMARK    6  A    between atoms: C_14  and  O_29
REMARK    7  A    between atoms: N_18  and  C_21
REMARK    8  A    between atoms: C_21  and  C_22
REMARK                            x       y       z     vdW  Elec       q    Type
REMARK                         _______ _______ _______ _____ _____    ______ ____
ROOT
ATOM      1  C   UNL     1       2.991  -7.704   3.324  0.00  0.00    +0.154 C 
ATOM      2  C   UNL     1       3.050  -9.043   4.062  0.00  0.00    +0.047 C 
ATOM      3  C   UNL     1       4.514  -9.342   4.408  0.00  0.00    +0.022 C 
ATOM      4  C   UNL     1       4.989  -8.325   5.447  0.00  0.00    +0.108 C 
ATOM      5  N   UNL     1       4.683  -6.969   5.011  0.00  0.00    -0.295 N 
ATOM      6  C   UNL     1       3.777  -6.670   4.078  0.00  0.00    +0.249 C 
ATOM      7  O   UNL     1       3.579  -5.500   3.825  0.00  0.00    -0.272 OA
ENDROOT
BRANCH   1   8
ATOM      8  O   UNL     1       3.544  -7.859   2.016  0.00  0.00    -0.378 OA
ATOM      9  H   UNL     1       3.537  -7.050   1.487  0.00  0.00    +0.211 HD
ENDBRANCH   1   8
BRANCH   1  10
ATOM     10  C   UNL     1       1.534  -7.250   3.210  0.00  0.00    +0.125 C 
BRANCH  10  11
ATOM     11  N   UNL     1       1.475  -5.970   2.493  0.00  0.00    -0.307 NA
ATOM     12  H   UNL     1       1.918  -6.040   1.589  0.00  0.00    +0.122 HD
BRANCH  11  13
ATOM     13  C   UNL     1       0.088  -5.503   2.364  0.00  0.00    +0.136 C 
BRANCH  13  20
ATOM     14  C   UNL     1      -0.018   1.503   0.010  0.00  0.00    +0.045 C 
ATOM     15  C   UNL     1       0.002  -0.004   0.002  0.00  0.00    -0.034 A 
ATOM     16  C   UNL     1       0.006  -0.697  -1.220  0.00  0.00    +0.008 A 
ATOM     17  C   UNL     1       0.025  -2.057  -1.224  0.00  0.00    +0.045 A 
ATOM     18  C   UNL     1       0.040  -2.750   0.003  0.00  0.00    +0.115 A 
ATOM     19  N   UNL     1       0.059  -4.043   0.297  0.00  0.00    -0.342 N 
ATOM     20  C   UNL     1       0.067  -4.189   1.625  0.00  0.00    +0.048 A 
ATOM     21  C   UNL     1       0.053  -2.964   2.194  0.00  0.00    +0.115 A 
ATOM     22  N   UNL     1       0.036  -2.047   1.179  0.00  0.00    -0.308 N 
ATOM     23  C   UNL     1       0.022  -0.682   1.169  0.00  0.00    +0.096 A 
ATOM     24  H   UNL     1       0.066  -4.766  -0.348  0.00  0.00    +0.167 HD
ENDBRANCH  13  20
ENDBRANCH  11  13
ENDBRANCH  10  11
ENDBRANCH   1  10
BRANCH   5  25
ATOM     25  C   UNL     1       5.415  -5.864   5.636  0.00  0.00    +0.143 C 
BRANCH  25  26
ATOM     26  C   UNL     1       6.668  -5.582   4.847  0.00  0.00    -0.030 A 
ATOM     27  C   UNL     1       7.843  -6.240   5.159  0.00  0.00    +0.008 A 
ATOM     28  C   UNL     1       8.992  -5.982   4.436  0.00  0.00    +0.038 A 
ATOM     29  C   UNL     1       8.966  -5.065   3.400  0.00  0.00    +0.123 A 
ATOM     30  C   UNL     1       7.789  -4.407   3.088  0.00  0.00    +0.038 A 
ATOM     31  C   UNL     1       6.639  -4.670   3.809  0.00  0.00    +0.008 A 
ATOM     32  F   UNL     1      10.090  -4.812   2.693  0.00  0.00    -0.205 F 
ENDBRANCH  25  26
ENDBRANCH   5  25
TORSDOF 7
