REMARK  Name = ZINC42652085
REMARK  4 active torsions:
REMARK  status: ('A' for Active; 'I' for Inactive)
REMARK    1  A    between atoms: C_1  and  C_2
REMARK    2  A    between atoms: C_5  and  C_7
REMARK    3  A    between atoms: C_13  and  S_20
REMARK    4  A    between atoms: S_20  and  N_23
REMARK                            x       y       z     vdW  Elec       q    Type
REMARK                         _______ _______ _______ _____ _____    ______ ____
ROOT
ATOM      1  C   UNL     1       1.684  -3.245  -0.023  0.00  0.00    +0.227 C 
ATOM      2  N   UNL     1       1.060  -4.367  -0.720  0.00  0.00    -0.320 N 
ATOM      3  C   UNL     1       0.830  -4.382  -2.093  0.00  0.00    +0.057 A 
ATOM      4  C   UNL     1      -0.146  -5.237  -2.602  0.00  0.00    +0.047 A 
ATOM      5  C   UNL     1      -0.385  -5.288  -3.960  0.00  0.00    +0.069 A 
ATOM      6  C   UNL     1       0.343  -4.491  -4.827  0.00  0.00    +0.125 A 
ATOM      7  C   UNL     1       1.308  -3.635  -4.328  0.00  0.00    +0.060 A 
ATOM      8  C   UNL     1       1.544  -3.576  -2.970  0.00  0.00    +0.128 A 
ATOM      9  S   UNL     1       2.751  -2.452  -2.335  0.00  0.00    +0.062 S 
ATOM     10  O   UNL     1       3.980  -2.753  -2.982  0.00  0.00    -0.153 OA
ATOM     11  O   UNL     1       2.166  -1.157  -2.360  0.00  0.00    -0.153 OA
ATOM     12  N   UNL     1       2.928  -2.878  -0.729  0.00  0.00    -0.163 NA
ATOM     13 CL   UNL     1      -1.603  -6.356  -4.584  0.00  0.00    -0.081 Cl
ATOM     14  H   UNL     1       0.791  -5.140  -0.200  0.00  0.00    +0.148 HD
ATOM     15  H   UNL     1       3.792  -2.886  -0.288  0.00  0.00    +0.151 HD
ENDROOT
BRANCH   1  20
ATOM     16  C   UNL     1      -0.018   1.503   0.010  0.00  0.00    +0.086 C 
ATOM     17  C   UNL     1       0.002  -0.004   0.002  0.00  0.00    +0.102 A 
ATOM     18  C   UNL     1      -1.078  -0.805   0.003  0.00  0.00    +0.045 A 
ATOM     19  C   UNL     1      -0.601  -2.136  -0.007  0.00  0.00    +0.048 A 
ATOM     20  C   UNL     1       0.742  -2.069  -0.013  0.00  0.00    +0.141 A 
ATOM     21  O   UNL     1       1.102  -0.775  -0.013  0.00  0.00    -0.462 OA
ENDBRANCH   1  20
BRANCH   6  22
ATOM     22  S   UNL     1       0.040  -4.567  -6.561  0.00  0.00    +0.057 S 
ATOM     23  O   UNL     1      -1.367  -4.463  -6.733  0.00  0.00    -0.153 OA
ATOM     24  O   UNL     1       0.951  -3.664  -7.172  0.00  0.00    -0.153 OA
BRANCH  22  25
ATOM     25  N   UNL     1       0.468  -6.085  -7.067  0.00  0.00    -0.203 NA
ATOM     26  H   UNL     1       0.013  -6.490  -7.821  0.00  0.00    +0.144 HD
ATOM     27  H   UNL     1       1.172  -6.568  -6.608  0.00  0.00    +0.144 HD
ENDBRANCH  22  25
ENDBRANCH   6  22
TORSDOF 3
