REMARK  Name = ZINC15134368
REMARK  15 active torsions:
REMARK  status: ('A' for Active; 'I' for Inactive)
REMARK    1  A    between atoms: C_1  and  C_2
REMARK    2  A    between atoms: C_3  and  C_12
REMARK    3  A    between atoms: C_4  and  O_11
REMARK    4  A    between atoms: C_5  and  C_10
REMARK    5  A    between atoms: C_6  and  O_9
REMARK    6  A    between atoms: N_13  and  N_14
REMARK    7  A    between atoms: C_15  and  C_17
REMARK    8  A    between atoms: C_17  and  N_18
REMARK    9  A    between atoms: C_19  and  C_21
REMARK   10  A    between atoms: C_23  and  O_31
REMARK   11  A    between atoms: C_24  and  O_29
REMARK   12  A    between atoms: C_25  and  O_27
REMARK   13  A    between atoms: O_27  and  C_28
REMARK   14  A    between atoms: O_29  and  C_30
REMARK   15  A    between atoms: O_31  and  C_32
REMARK                            x       y       z     vdW  Elec       q    Type
REMARK                         _______ _______ _______ _____ _____    ______ ____
ROOT
ATOM      1  N   UNL     1       0.825  10.725  -1.653  0.00  0.00    -0.206 N 
ATOM      2  C   UNL     1       0.396   9.711  -0.876  0.00  0.00    +0.249 C 
ATOM      3  O   UNL     1      -0.192   9.947   0.159  0.00  0.00    -0.272 OA
ATOM      4  H   UNL     1       1.295  10.537  -2.481  0.00  0.00    +0.177 HD
ENDROOT
BRANCH   1   6
ATOM      5  C   UNL     1       1.005  13.028  -2.015  0.00  0.00    +0.142 C 
ATOM      6  N   UNL     1       0.592  12.051  -1.267  0.00  0.00    -0.188 NA
BRANCH   5   9
ATOM      7  C   UNL     1       1.944  15.188  -3.693  0.00  0.00    +0.046 C 
ATOM      8  C   UNL     1       1.208  15.476  -2.410  0.00  0.00    -0.021 A 
ATOM      9  C   UNL     1       0.760  14.423  -1.609  0.00  0.00    +0.040 A 
ATOM     10  C   UNL     1       0.081  14.698  -0.413  0.00  0.00    +0.132 A 
ATOM     11  C   UNL     1      -0.146  16.011  -0.038  0.00  0.00    +0.034 A 
ATOM     12  C   UNL     1       0.297  17.050  -0.843  0.00  0.00    +0.137 A 
ATOM     13  C   UNL     1       0.971  16.779  -2.029  0.00  0.00    +0.063 A 
ATOM     14 BR   UNL     1       1.571  18.204  -3.118  0.00  0.00    -0.046 Br
ATOM     15  C   UNL     1      -0.875  16.311   1.246  0.00  0.00    +0.051 C 
BRANCH  12  16
ATOM     16  O   UNL     1       0.073  18.337  -0.471  0.00  0.00    -0.505 OA
ATOM     17  H   UNL     1       0.776  18.718   0.072  0.00  0.00    +0.292 HD
ENDBRANCH  12  16
BRANCH  10  18
ATOM     18  O   UNL     1      -0.354  13.680   0.373  0.00  0.00    -0.506 OA
ATOM     19  H   UNL     1       0.289  13.393   1.036  0.00  0.00    +0.292 HD
ENDBRANCH  10  18
ENDBRANCH   5   9
ENDBRANCH   1   6
BRANCH   2  20
ATOM     20  C   UNL     1       0.646   8.285  -1.292  0.00  0.00    +0.202 C 
BRANCH  20  21
ATOM     21  N   UNL     1       0.088   7.377  -0.287  0.00  0.00    -0.303 N 
ATOM     22  C   UNL     1       0.194   6.044  -0.450  0.00  0.00    +0.245 C 
ATOM     23  O   UNL     1       0.754   5.593  -1.431  0.00  0.00    -0.270 OA
ATOM     24  H   UNL     1      -0.359   7.736   0.496  0.00  0.00    +0.150 HD
BRANCH  22  25
ATOM     25  C   UNL     1      -0.369   5.129   0.563  0.00  0.00    +0.044 A 
ATOM     26  C   UNL     1      -1.012   5.645   1.691  0.00  0.00    +0.062 A 
ATOM     27  C   UNL     1      -1.538   4.787   2.639  0.00  0.00    +0.166 A 
ATOM     28  C   UNL     1      -1.432   3.409   2.467  0.00  0.00    +0.204 A 
ATOM     29  C   UNL     1      -0.787   2.893   1.346  0.00  0.00    +0.166 A 
ATOM     30  C   UNL     1      -0.260   3.747   0.396  0.00  0.00    +0.062 A 
BRANCH  29  31
ATOM     31  O   UNL     1      -0.682   1.547   1.184  0.00  0.00    -0.491 OA
ATOM     32  C   UNL     1      -0.013   1.086   0.008  0.00  0.00    +0.277 C 
ENDBRANCH  29  31
BRANCH  28  33
ATOM     33  O   UNL     1      -1.955   2.568   3.397  0.00  0.00    -0.488 OA
ATOM     34  C   UNL     1      -1.099   2.177   4.472  0.00  0.00    +0.277 C 
ENDBRANCH  28  33
BRANCH  27  35
ATOM     35  O   UNL     1      -2.164   5.289   3.737  0.00  0.00    -0.491 OA
ATOM     36  C   UNL     1      -2.242   6.711   3.846  0.00  0.00    +0.277 C 
ENDBRANCH  27  35
ENDBRANCH  22  25
ENDBRANCH  20  21
ENDBRANCH   2  20
TORSDOF 10
