REMARK  Name = ZINC04034890
REMARK  7 active torsions:
REMARK  status: ('A' for Active; 'I' for Inactive)
REMARK    1  A    between atoms: C_1  and  C_2
REMARK    2  A    between atoms: C_5  and  C_8
REMARK    3  A    between atoms: C_8  and  N_9
REMARK    4  A    between atoms: N_14  and  C_17
REMARK    5  A    between atoms: C_17  and  C_18
REMARK    6  A    between atoms: N_20  and  C_21
REMARK    7  A    between atoms: C_21  and  C_22
REMARK                            x       y       z     vdW  Elec       q    Type
REMARK                         _______ _______ _______ _____ _____    ______ ____
ROOT
ATOM      1  N   UNL     1       1.447  -4.746  -0.032  0.00  0.00    -0.222 N 
ATOM      2  C   UNL     1       2.213  -4.996  -1.130  0.00  0.00    +0.186 A 
ATOM      3  C   UNL     1       3.457  -5.421  -0.647  0.00  0.00    +0.196 A 
ATOM      4  C   UNL     1       4.490  -5.763  -1.628  0.00  0.00    +0.284 A 
ATOM      5  O   UNL     1       5.594  -6.140  -1.276  0.00  0.00    -0.265 OA
ATOM      6  N   UNL     1       4.174  -5.645  -2.938  0.00  0.00    -0.288 N 
ATOM      7  C   UNL     1       2.940  -5.224  -3.310  0.00  0.00    +0.205 A 
ATOM      8  N   UNL     1       2.010  -4.916  -2.453  0.00  0.00    -0.216 NA
ATOM      9  N   UNL     1       3.407  -5.415   0.692  0.00  0.00    -0.122 NA
ATOM     10  N   UNL     1       2.247  -5.020   1.088  0.00  0.00    -0.063 NA
ENDROOT
BRANCH   1  11
ATOM     11  C   UNL     1       0.059  -4.275  -0.021  0.00  0.00    +0.182 C 
BRANCH  11  16
ATOM     12  C   UNL     1      -0.018   1.503   0.010  0.00  0.00    +0.044 C 
ATOM     13  C   UNL     1       0.002  -0.004   0.002  0.00  0.00    -0.050 A 
ATOM     14  C   UNL     1       0.006  -0.689  -1.199  0.00  0.00    +0.004 A 
ATOM     15  C   UNL     1       0.025  -2.071  -1.206  0.00  0.00    +0.006 A 
ATOM     16  C   UNL     1       0.040  -2.768  -0.013  0.00  0.00    -0.026 A 
ATOM     17  C   UNL     1       0.037  -2.084   1.188  0.00  0.00    +0.006 A 
ATOM     18  C   UNL     1       0.023  -0.702   1.195  0.00  0.00    +0.004 A 
ENDBRANCH  11  16
ENDBRANCH   1  11
BRANCH   6  19
ATOM     19  C   UNL     1       5.171  -5.974  -3.960  0.00  0.00    +0.222 C 
BRANCH  19  20
ATOM     20  C   UNL     1       5.057  -7.433  -4.322  0.00  0.00    +0.233 C 
ATOM     21  O   UNL     1       4.226  -8.129  -3.779  0.00  0.00    -0.274 OA
ATOM     22  N   UNL     1       5.880  -7.963  -5.248  0.00  0.00    -0.311 N 
ATOM     23  H   UNL     1       6.545  -7.406  -5.682  0.00  0.00    +0.149 HD
BRANCH  22  24
ATOM     24  C   UNL     1       5.770  -9.381  -5.600  0.00  0.00    +0.135 C 
BRANCH  24  25
ATOM     25  C   UNL     1       6.811  -9.725  -6.667  0.00  0.00    +0.135 C 
ATOM     26  C   UNL     1       6.623 -11.185  -7.131  0.00  0.00    +0.035 C 
ATOM     27  C   UNL     1       8.089 -11.671  -7.293  0.00  0.00    +0.031 C 
ATOM     28  C   UNL     1       8.786 -10.888  -6.151  0.00  0.00    +0.160 C 
ATOM     29  O   UNL     1       8.128  -9.609  -6.116  0.00  0.00    -0.375 OA
ENDBRANCH  24  25
ENDBRANCH  22  24
ENDBRANCH  19  20
ENDBRANCH   6  19
TORSDOF 6
