REMARK  Name = ZINC28502279
REMARK  5 active torsions:
REMARK  status: ('A' for Active; 'I' for Inactive)
REMARK    1  A    between atoms: C_3  and  S_10
REMARK    2  A    between atoms: C_6  and  N_7
REMARK    3  A    between atoms: S_10  and  N_13
REMARK    4  A    between atoms: C_18  and  C_20
REMARK    5  A    between atoms: N_22  and  C_23
REMARK                            x       y       z     vdW  Elec       q    Type
REMARK                         _______ _______ _______ _____ _____    ______ ____
ROOT
ATOM      1  N   UNL     1       3.921   2.526   1.641  0.00  0.00    -0.165 NA
ATOM      2  C   UNL     1       3.326   3.656   2.368  0.00  0.00    +0.110 C 
ATOM      3  C   UNL     1       3.004   3.207   3.797  0.00  0.00    +0.017 C 
ATOM      4  C   UNL     1       4.268   2.637   4.446  0.00  0.00    +0.003 C 
ATOM      5  C   UNL     1       4.745   1.418   3.653  0.00  0.00    +0.030 C 
ATOM      6  C   UNL     1       5.083   1.843   2.225  0.00  0.00    +0.166 C 
ENDROOT
BRANCH   6   7
ATOM      7  C   UNL     1       5.418   0.625   1.404  0.00  0.00    +0.236 C 
ATOM      8  O   UNL     1       4.612  -0.276   1.298  0.00  0.00    -0.274 OA
ATOM      9  N   UNL     1       6.613   0.536   0.787  0.00  0.00    -0.284 N 
ATOM     10  H   UNL     1       7.223   1.290   0.799  0.00  0.00    +0.155 HD
BRANCH   9  11
ATOM     11  C   UNL     1       6.974  -0.645   0.129  0.00  0.00    +0.039 A 
ATOM     12  C   UNL     1       7.782  -0.593  -0.999  0.00  0.00    +0.061 A 
ATOM     13  C   UNL     1       8.139  -1.761  -1.649  0.00  0.00    +0.128 A 
ATOM     14  C   UNL     1       7.689  -2.982  -1.175  0.00  0.00    +0.076 A 
ATOM     15  C   UNL     1       6.883  -3.037  -0.050  0.00  0.00    +0.128 A 
ATOM     16  C   UNL     1       6.530  -1.871   0.606  0.00  0.00    +0.061 A 
ATOM     17  F   UNL     1       6.445  -4.229   0.410  0.00  0.00    -0.205 F 
ATOM     18  F   UNL     1       8.925  -1.711  -2.746  0.00  0.00    -0.205 F 
ENDBRANCH   9  11
ENDBRANCH   6   7
BRANCH   1  19
ATOM     19  S   UNL     1       3.289   2.029   0.193  0.00  0.00    +0.062 S 
ATOM     20  O   UNL     1       4.324   1.327  -0.482  0.00  0.00    -0.153 OA
ATOM     21  O   UNL     1       2.639   3.157  -0.376  0.00  0.00    -0.153 OA
BRANCH  19  24
ATOM     22  C   UNL     1      -0.168   0.341   1.352  0.00  0.00    +0.034 A 
ATOM     23  C   UNL     1       0.820   1.266   1.071  0.00  0.00    +0.031 A 
ATOM     24  C   UNL     1       2.031   0.849   0.551  0.00  0.00    +0.106 A 
ATOM     25  C   UNL     1       2.254  -0.494   0.312  0.00  0.00    +0.031 A 
ATOM     26  C   UNL     1       1.267  -1.420   0.593  0.00  0.00    +0.034 A 
ATOM     27  C   UNL     1       0.055  -1.002   1.112  0.00  0.00    +0.126 A 
BRANCH  27  28
ATOM     28  N   UNL     1      -1.002  -1.993   1.412  0.00  0.00    +0.056 N 
ATOM     29  O   UNL     1      -2.061  -1.628   1.868  0.00  0.00    -0.126 OA
ATOM     30  O   UNL     1      -0.807  -3.168   1.202  0.00  0.00    -0.126 OA
ENDBRANCH  27  28
ENDBRANCH  19  24
ENDBRANCH   1  19
TORSDOF 5
