REMARK  Name = ZINC35155531
REMARK  9 active torsions:
REMARK  status: ('A' for Active; 'I' for Inactive)
REMARK    1  A    between atoms: C_1  and  C_2
REMARK    2  A    between atoms: C_2  and  C_3
REMARK    3  A    between atoms: C_3  and  C_5
REMARK    4  A    between atoms: C_3  and  C_6
REMARK    5  A    between atoms: C_6  and  C_8
REMARK    6  A    between atoms: C_6  and  N_27
REMARK    7  A    between atoms: C_14  and  C_17
REMARK    8  A    between atoms: N_20  and  C_21
REMARK    9  A    between atoms: C_28  and  C_30
REMARK                            x       y       z     vdW  Elec       q    Type
REMARK                         _______ _______ _______ _____ _____    ______ ____
ROOT
ATOM      1  C   UNL     1       1.538  -1.850  -0.229  0.00  0.00    +0.236 C 
ATOM      2  O   UNL     1       0.982  -2.162   0.803  0.00  0.00    -0.274 OA
ATOM      3  N   UNL     1       2.749  -1.260  -0.190  0.00  0.00    -0.297 N 
ATOM      4  C   UNL     1       3.385  -0.775  -1.423  0.00  0.00    +0.127 C 
ATOM      5  C   UNL     1       4.773  -1.416  -1.544  0.00  0.00    +0.128 C 
ATOM      6  N   UNL     1       5.481  -1.246  -0.268  0.00  0.00    -0.280 N 
ATOM      7  C   UNL     1       4.846  -1.732   0.965  0.00  0.00    +0.092 C 
ATOM      8  C   UNL     1       3.455  -1.086   1.087  0.00  0.00    +0.130 C 
ATOM      9  C   UNL     1       4.709  -3.255   0.907  0.00  0.00    +0.030 C 
ATOM     10  C   UNL     1       6.693  -0.657  -0.228  0.00  0.00    +0.307 C 
ATOM     11  O   UNL     1       7.225  -0.432   0.841  0.00  0.00    -0.252 OA
ATOM     12  N   UNL     1       7.314  -0.316  -1.375  0.00  0.00    -0.269 N 
ATOM     13  H   UNL     1       6.849  -0.402  -2.222  0.00  0.00    +0.156 HD
ENDROOT
BRANCH  12  14
ATOM     14  C   UNL     1       8.629   0.162  -1.343  0.00  0.00    +0.035 A 
ATOM     15  C   UNL     1       9.523  -0.326  -0.400  0.00  0.00    +0.023 A 
ATOM     16  C   UNL     1      10.821   0.148  -0.372  0.00  0.00    +0.002 A 
ATOM     17  C   UNL     1      11.229   1.105  -1.282  0.00  0.00    +0.000 A 
ATOM     18  C   UNL     1      10.340   1.593  -2.222  0.00  0.00    +0.002 A 
ATOM     19  C   UNL     1       9.043   1.120  -2.259  0.00  0.00    +0.023 A 
ENDBRANCH  12  14
BRANCH   1  20
ATOM     20  C   UNL     1       0.875  -2.123  -1.555  0.00  0.00    +0.162 C 
BRANCH  20  21
ATOM     21  N   UNL     1      -0.130  -3.176  -1.391  0.00  0.00    -0.299 N 
ATOM     22  C   UNL     1      -0.488  -3.935  -2.445  0.00  0.00    +0.251 C 
ATOM     23  O   UNL     1       0.024  -3.747  -3.533  0.00  0.00    -0.270 OA
ATOM     24  H   UNL     1      -0.538  -3.326  -0.524  0.00  0.00    +0.150 HD
BRANCH  22  25
ATOM     25  C   UNL     1      -1.494  -4.989  -2.281  0.00  0.00    +0.074 A 
ATOM     26  C   UNL     1      -1.993  -5.875  -3.223  0.00  0.00    +0.021 A 
ATOM     27  C   UNL     1      -2.940  -6.760  -2.767  0.00  0.00    +0.008 A 
ATOM     28  C   UNL     1      -3.315  -6.713  -1.465  0.00  0.00    +0.046 A 
ATOM     29  S   UNL     1      -2.388  -5.471  -0.816  0.00  0.00    -0.092 S 
ENDBRANCH  22  25
ENDBRANCH  20  21
BRANCH  20  30
ATOM     30  C   UNL     1       0.199  -0.846  -2.058  0.00  0.00    +0.015 C 
ATOM     31  C   UNL     1      -0.352  -1.082  -3.466  0.00  0.00    +0.010 C 
BRANCH  30  33
ATOM     32  C   UNL     1      -1.545   0.870  -1.550  0.00  0.00    +0.004 C 
ATOM     33  C   UNL     1      -0.949  -0.471  -1.118  0.00  0.00    +0.002 C 
ENDBRANCH  30  33
ENDBRANCH  20  30
ENDBRANCH   1  20
TORSDOF 6
