REMARK  Name = ZINC04574726
REMARK  8 active torsions:
REMARK  status: ('A' for Active; 'I' for Inactive)
REMARK    1  A    between atoms: C_1  and  C_2
REMARK    2  A    between atoms: C_3  and  C_21
REMARK    3  A    between atoms: C_4  and  C_10
REMARK    4  A    between atoms: C_13  and  O_16
REMARK    5  A    between atoms: O_16  and  C_17
REMARK    6  A    between atoms: C_17  and  C_18
REMARK    7  A    between atoms: C_18  and  C_19
REMARK    8  A    between atoms: C_18  and  C_20
REMARK                            x       y       z     vdW  Elec       q    Type
REMARK                         _______ _______ _______ _____ _____    ______ ____
ROOT
ATOM      1  C   UNL     1       3.418   2.707   0.344  0.00  0.00    +0.061 C 
ATOM      2  C   UNL     1       2.342   1.675   0.126  0.00  0.00    +0.017 C 
ATOM      3  C   UNL     1       2.688   0.416  -0.212  0.00  0.00    +0.055 C 
ATOM      4  C   UNL     1       1.575  -0.590  -0.422  0.00  0.00    +0.139 C 
ATOM      5  N   UNL     1       0.196  -0.107  -0.238  0.00  0.00    -0.315 N 
ATOM      6  C   UNL     1       0.009   1.184   0.101  0.00  0.00    +0.135 C 
ATOM      7  S   UNL     1      -1.589   1.762   0.311  0.00  0.00    -0.019 S 
ATOM      8  N   UNL     1       1.032   2.030   0.274  0.00  0.00    -0.300 N 
ATOM      9  H   UNL     1      -0.651  -0.795  -0.378  0.00  0.00    +0.149 HD
ATOM     10  H   UNL     1       0.769   3.062   0.550  0.00  0.00    +0.154 HD
ENDROOT
BRANCH   4  11
ATOM     11  C   UNL     1       1.695  -1.130  -1.824  0.00  0.00    -0.022 A 
ATOM     12  C   UNL     1       1.136  -0.435  -2.881  0.00  0.00    +0.009 A 
ATOM     13  C   UNL     1       1.250  -0.925  -4.168  0.00  0.00    +0.046 A 
ATOM     14  C   UNL     1       1.915  -2.120  -4.398  0.00  0.00    +0.121 A 
ATOM     15  C   UNL     1       2.471  -2.818  -3.335  0.00  0.00    +0.046 A 
ATOM     16  C   UNL     1       2.359  -2.321  -2.051  0.00  0.00    +0.009 A 
BRANCH  14  17
ATOM     17  O   UNL     1       2.024  -2.606  -5.662  0.00  0.00    -0.492 OA
BRANCH  17  18
ATOM     18  C   UNL     1       1.429  -1.835  -6.707  0.00  0.00    +0.232 C 
BRANCH  18  19
ATOM     19  C   UNL     1       1.652  -2.536  -8.049  0.00  0.00    +0.020 C 
ATOM     20  C   UNL     1       0.907  -3.872  -8.057  0.00  0.00    +0.010 C 
ATOM     21  C   UNL     1       1.125  -1.651  -9.180  0.00  0.00    +0.010 C 
ENDBRANCH  18  19
ENDBRANCH  17  18
ENDBRANCH  14  17
ENDBRANCH   4  11
BRANCH   3  22
ATOM     22  C   UNL     1       4.047   0.046  -0.366  0.00  0.00    +0.241 C 
ATOM     23  O   UNL     1       4.624  -0.540   0.532  0.00  0.00    -0.271 OA
ATOM     24  N   UNL     1       4.702   0.344  -1.505  0.00  0.00    -0.326 N 
ATOM     25  H   UNL     1       5.757   0.057  -1.624  0.00  0.00    +0.145 HD
ATOM     26  H   UNL     1       4.181   0.873  -2.317  0.00  0.00    +0.145 HD
ENDBRANCH   3  22
TORSDOF 5
