REMARK  Name = ZINC58465585
REMARK  6 active torsions:
REMARK  status: ('A' for Active; 'I' for Inactive)
REMARK    1  A    between atoms: C_6  and  C_7
REMARK    2  A    between atoms: C_7  and  O_8
REMARK    3  A    between atoms: O_8  and  C_9
REMARK    4  A    between atoms: C_9  and  C_11
REMARK    5  A    between atoms: C_13  and  S_17
REMARK    6  A    between atoms: S_17  and  N_20
REMARK                            x       y       z     vdW  Elec       q    Type
REMARK                         _______ _______ _______ _____ _____    ______ ____
ROOT
ATOM      1  C   UNL     1      -3.360  -1.974  -2.854  0.00  0.00    +0.126 A 
ATOM      2  C   UNL     1      -4.517  -2.653  -3.176  0.00  0.00    +0.062 A 
ATOM      3  C   UNL     1      -4.596  -2.687  -4.571  0.00  0.00    +0.123 A 
ATOM      4  C   UNL     1      -3.510  -2.043  -5.064  0.00  0.00    +0.112 A 
ATOM      5  N   UNL     1      -2.757  -1.601  -4.035  0.00  0.00    -0.354 N 
ATOM      6  H   UNL     1      -1.927  -1.106  -4.114  0.00  0.00    +0.166 HD
ENDROOT
BRANCH   3   7
ATOM      7  S   UNL     1      -5.878  -3.435  -5.520  0.00  0.00    +0.062 S 
ATOM      8  O   UNL     1      -5.321  -3.734  -6.792  0.00  0.00    -0.153 OA
ATOM      9  O   UNL     1      -6.468  -4.429  -4.694  0.00  0.00    -0.153 OA
BRANCH   7  10
ATOM     10  N   UNL     1      -7.038  -2.280  -5.772  0.00  0.00    -0.172 NA
ATOM     11  C   UNL     1      -8.147  -2.100  -4.821  0.00  0.00    +0.137 C 
ATOM     12  C   UNL     1      -8.233  -0.614  -4.455  0.00  0.00    +0.177 C 
ATOM     13  O   UNL     1      -8.292   0.164  -5.653  0.00  0.00    -0.377 OA
ATOM     14  C   UNL     1      -7.133   0.049  -6.483  0.00  0.00    +0.177 C 
ATOM     15  C   UNL     1      -6.988  -1.400  -6.950  0.00  0.00    +0.137 C 
ENDBRANCH   7  10
ENDBRANCH   3   7
BRANCH   1  16
ATOM     16  C   UNL     1      -2.866  -1.695  -1.504  0.00  0.00    +0.356 C 
ATOM     17  O   UNL     1      -3.493  -2.079  -0.535  0.00  0.00    -0.243 OA
BRANCH  16  18
ATOM     18  O   UNL     1      -1.715  -1.012  -1.334  0.00  0.00    -0.455 OA
BRANCH  18  19
ATOM     19  C   UNL     1      -1.293  -0.775   0.010  0.00  0.00    +0.268 C 
BRANCH  19  25
ATOM     20  C   UNL     1      -0.017   1.378   0.010  0.00  0.00    +0.008 A 
ATOM     21  C   UNL     1       1.171   2.086   0.002  0.00  0.00    +0.015 A 
ATOM     22  C   UNL     1       2.378   1.411  -0.013  0.00  0.00    +0.018 A 
ATOM     23  C   UNL     1       2.396   0.027  -0.021  0.00  0.00    +0.015 A 
ATOM     24  C   UNL     1       1.208  -0.679  -0.013  0.00  0.00    +0.008 A 
ATOM     25  C   UNL     1       0.002  -0.004   0.002  0.00  0.00    -0.010 A 
ATOM     26 BR   UNL     1       4.003   2.378  -0.024  0.00  0.00    -0.050 Br
ENDBRANCH  19  25
ENDBRANCH  18  19
ENDBRANCH  16  18
ENDBRANCH   1  16
TORSDOF 6
