REMARK  Name = ZINC00531442
REMARK  6 active torsions:
REMARK  status: ('A' for Active; 'I' for Inactive)
REMARK    1  A    between atoms: C_1  and  C_2
REMARK    2  A    between atoms: C_2  and  C_3
REMARK    3  A    between atoms: C_6  and  C_9
REMARK    4  A    between atoms: C_12  and  C_21
REMARK    5  A    between atoms: C_26  and  O_27
REMARK    6  A    between atoms: O_27  and  C_28
REMARK                            x       y       z     vdW  Elec       q    Type
REMARK                         _______ _______ _______ _____ _____    ______ ____
ROOT
ATOM      1  C   UNL     1       2.707  -1.868  -4.752  0.00  0.00    +0.106 C 
ATOM      2  C   UNL     1       2.953  -3.377  -4.645  0.00  0.00    +0.059 C 
ATOM      3  C   UNL     1       3.767  -3.680  -3.381  0.00  0.00    +0.146 C 
ATOM      4  N   UNL     1       4.922  -2.784  -3.337  0.00  0.00    -0.224 N 
ATOM      5  C   UNL     1       5.021  -1.631  -4.041  0.00  0.00    +0.216 A 
ATOM      6  N   UNL     1       6.177  -1.087  -3.771  0.00  0.00    -0.180 NA
ATOM      7  C   UNL     1       6.842  -1.859  -2.899  0.00  0.00    +0.233 A 
ATOM      8  N   UNL     1       6.106  -2.909  -2.608  0.00  0.00    -0.132 NA
ATOM      9  N   UNL     1       8.111  -1.592  -2.383  0.00  0.00    -0.326 N 
ATOM     10  N   UNL     1       4.007  -1.183  -4.884  0.00  0.00    -0.307 N 
ATOM     11  H   UNL     1       8.585  -0.789  -2.653  0.00  0.00    +0.145 HD
ATOM     12  H   UNL     1       8.519  -2.208  -1.755  0.00  0.00    +0.145 HD
ATOM     13  H   UNL     1       4.146  -0.465  -5.521  0.00  0.00    +0.149 HD
ENDROOT
BRANCH   1  17
ATOM     14  C   UNL     1       0.707  -0.490  -1.238  0.00  0.00    -0.048 A 
ATOM     15  C   UNL     1      -0.011  -0.719  -2.397  0.00  0.00    +0.004 A 
ATOM     16  C   UNL     1       0.636  -1.164  -3.534  0.00  0.00    +0.006 A 
ATOM     17  C   UNL     1       2.002  -1.381  -3.513  0.00  0.00    -0.027 A 
ATOM     18  C   UNL     1       2.720  -1.152  -2.354  0.00  0.00    +0.006 A 
ATOM     19  C   UNL     1       2.073  -0.702  -1.218  0.00  0.00    +0.004 A 
BRANCH  14  21
ATOM     20  C   UNL     1      -0.019   1.526   0.010  0.00  0.00    +0.009 C 
ATOM     21  C   UNL     1       0.002  -0.004   0.002  0.00  0.00    +0.032 C 
ENDBRANCH  14  21
ENDBRANCH   1  17
BRANCH   3  22
ATOM     22  C   UNL     1       4.236  -5.112  -3.413  0.00  0.00    +0.019 A 
ATOM     23  C   UNL     1       5.051  -5.550  -4.439  0.00  0.00    +0.009 A 
ATOM     24  C   UNL     1       5.481  -6.864  -4.469  0.00  0.00    +0.001 A 
ATOM     25  C   UNL     1       5.097  -7.742  -3.473  0.00  0.00    +0.004 A 
ATOM     26  C   UNL     1       4.283  -7.309  -2.444  0.00  0.00    +0.046 A 
ATOM     27  C   UNL     1       3.854  -5.990  -2.409  0.00  0.00    +0.125 A 
BRANCH  27  28
ATOM     28  O   UNL     1       3.058  -5.560  -1.395  0.00  0.00    -0.495 OA
ATOM     29  C   UNL     1       2.704  -6.519  -0.396  0.00  0.00    +0.277 C 
ENDBRANCH  27  28
ENDBRANCH   3  22
TORSDOF 4
