REMARK  Name = ZINC35396659
REMARK  10 active torsions:
REMARK  status: ('A' for Active; 'I' for Inactive)
REMARK    1  A    between atoms: C_1  and  C_2
REMARK    2  A    between atoms: C_2  and  C_3
REMARK    3  A    between atoms: C_10  and  C_37
REMARK    4  A    between atoms: C_11  and  S_15
REMARK    5  A    between atoms: S_15  and  N_18
REMARK    6  A    between atoms: C_22  and  C_25
REMARK    7  A    between atoms: N_27  and  C_28
REMARK    8  A    between atoms: C_28  and  C_29
REMARK    9  A    between atoms: N_34  and  C_35
REMARK   10  A    between atoms: C_35  and  C_36
REMARK                            x       y       z     vdW  Elec       q    Type
REMARK                         _______ _______ _______ _____ _____    ______ ____
ROOT
ATOM      1  N   UNL     1       1.055   0.351  -7.089  0.00  0.00    -0.176 NA
ATOM      2  C   UNL     1       2.025   1.345  -6.608  0.00  0.00    +0.109 C 
ATOM      3  C   UNL     1       3.151   0.616  -5.867  0.00  0.00    +0.018 C 
ATOM      4  C   UNL     1       3.749  -0.454  -6.783  0.00  0.00    +0.015 C 
ATOM      5  C   UNL     1       2.671  -1.476  -7.149  0.00  0.00    +0.091 C 
ATOM      6  C   UNL     1       1.540  -0.775  -7.899  0.00  0.00    +0.122 C 
ENDROOT
BRANCH   5   7
ATOM      7  C   UNL     1       3.270  -2.548  -8.023  0.00  0.00    +0.217 C 
ATOM      8  O   UNL     1       2.834  -2.733  -9.140  0.00  0.00    -0.275 OA
ATOM      9  N   UNL     1       4.289  -3.300  -7.565  0.00  0.00    -0.317 N 
ATOM     10  H   UNL     1       4.638  -3.152  -6.672  0.00  0.00    +0.149 HD
BRANCH   9  11
ATOM     11  C   UNL     1       4.871  -4.342  -8.415  0.00  0.00    +0.089 C 
BRANCH  11  12
ATOM     12  C   UNL     1       6.083  -4.956  -7.712  0.00  0.00    -0.051 C 
ATOM     13  C   UNL     1       7.180  -3.887  -7.525  0.00  0.00    -0.016 C 
ATOM     14  C   UNL     1       8.488  -4.678  -7.786  0.00  0.00    -0.020 C 
ATOM     15  C   UNL     1       8.043  -5.659  -8.900  0.00  0.00    -0.078 C 
ATOM     16  N   UNL     1       6.654  -6.031  -8.544  0.00  0.00    +0.382 N 
ATOM     17  H   UNL     1       6.654  -6.897  -8.026  0.00  0.00    -0.081 HD
BRANCH  16  18
ATOM     18  C   UNL     1       5.854  -6.188  -9.766  0.00  0.00    -0.082 C 
ATOM     19  C   UNL     1       6.402  -7.357 -10.587  0.00  0.00    -0.017 C 
ENDBRANCH  16  18
ENDBRANCH  11  12
ENDBRANCH   9  11
ENDBRANCH   5   7
BRANCH   1  20
ATOM     20  S   UNL     1      -0.553   0.494  -6.721  0.00  0.00    +0.061 S 
ATOM     21  O   UNL     1      -1.270  -0.105  -7.792  0.00  0.00    -0.153 OA
ATOM     22  O   UNL     1      -0.761   1.843  -6.326  0.00  0.00    -0.153 OA
BRANCH  20  30
ATOM     23  C   UNL     1      -3.344  -3.961  -3.249  0.00  0.00    +0.259 C 
ATOM     24  C   UNL     1      -2.511  -3.816  -2.000  0.00  0.00    +0.258 C 
ATOM     25  O   UNL     1      -2.672  -4.576  -1.069  0.00  0.00    -0.271 OA
ATOM     26  N   UNL     1      -1.586  -2.836  -1.923  0.00  0.00    -0.280 N 
ATOM     27  C   UNL     1      -1.327  -2.050  -3.054  0.00  0.00    +0.076 A 
ATOM     28  C   UNL     1      -0.559  -0.901  -2.952  0.00  0.00    +0.032 A 
ATOM     29  C   UNL     1      -0.323  -0.129  -4.075  0.00  0.00    -0.022 A 
ATOM     30  C   UNL     1      -0.852  -0.500  -5.297  0.00  0.00    +0.112 A 
ATOM     31  C   UNL     1      -1.615  -1.648  -5.407  0.00  0.00    +0.076 A 
ATOM     32  C   UNL     1      -1.850  -2.429  -4.288  0.00  0.00    +0.145 A 
ATOM     33  O   UNL     1      -2.572  -3.577  -4.388  0.00  0.00    -0.478 OA
ATOM     34  C   UNL     1       0.512   1.121  -3.966  0.00  0.00    +0.046 C 
ATOM     35  H   UNL     1      -1.106  -2.679  -1.095  0.00  0.00    +0.155 HD
BRANCH  23  37
ATOM     36  C   UNL     1      -5.488  -3.304  -4.351  0.00  0.00    +0.008 C 
ATOM     37  C   UNL     1      -4.579  -3.063  -3.144  0.00  0.00    +0.051 C 
ENDBRANCH  23  37
ENDBRANCH  20  30
ENDBRANCH   1  20
TORSDOF 7
