REMARK  Name = ZINC63845834
REMARK  5 active torsions:
REMARK  status: ('A' for Active; 'I' for Inactive)
REMARK    1  A    between atoms: C_1  and  C_2
REMARK    2  A    between atoms: C_5  and  C_11
REMARK    3  A    between atoms: N_13  and  C_14
REMARK    4  A    between atoms: C_15  and  C_23
REMARK    5  A    between atoms: N_25  and  C_26
REMARK                            x       y       z     vdW  Elec       q    Type
REMARK                         _______ _______ _______ _____ _____    ______ ____
ROOT
ATOM      1  C   UNL     1      -3.472  -0.730   1.422  0.00  0.00    +0.238 C 
ATOM      2  O   UNL     1      -3.653  -1.733   2.080  0.00  0.00    -0.273 OA
ATOM      3  N   UNL     1      -4.502  -0.158   0.769  0.00  0.00    -0.278 N 
ATOM      4  H   UNL     1      -4.357   0.644   0.243  0.00  0.00    +0.155 HD
ENDROOT
BRANCH   1   8
ATOM      5  C   UNL     1      -0.019   1.526   0.010  0.00  0.00    +0.028 C 
ATOM      6  C   UNL     1       0.002  -0.004   0.002  0.00  0.00    +0.071 C 
ATOM      7  C   UNL     1      -1.435  -0.536   0.016  0.00  0.00    +0.053 C 
ATOM      8  C   UNL     1      -2.095  -0.124   1.337  0.00  0.00    +0.160 C 
ATOM      9  N   UNL     1      -1.277  -0.604   2.452  0.00  0.00    -0.315 N 
ATOM     10  C   UNL     1       0.050  -0.754   2.330  0.00  0.00    +0.131 C 
ATOM     11  S   UNL     1       0.943  -1.306   3.683  0.00  0.00    -0.019 S 
ATOM     12  N   UNL     1       0.707  -0.490   1.189  0.00  0.00    -0.324 N 
ATOM     13  H   UNL     1      -1.704  -0.817   3.297  0.00  0.00    +0.148 HD
ATOM     14  H   UNL     1       1.667  -0.624   1.150  0.00  0.00    +0.148 HD
ENDBRANCH   1   8
BRANCH   3  15
ATOM     15  C   UNL     1      -5.769  -0.716   0.848  0.00  0.00    +0.084 A 
ATOM     16  C   UNL     1      -6.935  -0.272   0.244  0.00  0.00    +0.069 A 
ATOM     17  C   UNL     1      -8.143  -1.040   0.486  0.00  0.00    -0.023 A 
ATOM     18  C   UNL     1      -7.964  -2.112   1.289  0.00  0.00    -0.004 A 
ATOM     19  S   UNL     1      -6.242  -2.089   1.691  0.00  0.00    -0.077 S 
ATOM     20  C   UNL     1      -9.008  -3.093   1.725  0.00  0.00    +0.043 C 
ATOM     21  C   UNL     1     -10.389  -2.490   1.432  0.00  0.00    +0.005 C 
ATOM     22  C   UNL     1     -10.399  -1.947   0.000  0.00  0.00    +0.005 C 
ATOM     23  C   UNL     1      -9.510  -0.705  -0.092  0.00  0.00    +0.037 C 
BRANCH  16  24
ATOM     24  C   UNL     1      -6.948   0.924  -0.605  0.00  0.00    +0.246 C 
ATOM     25  O   UNL     1      -6.744   0.825  -1.800  0.00  0.00    -0.270 OA
ATOM     26  N   UNL     1      -7.186   2.134  -0.060  0.00  0.00    -0.314 N 
ATOM     27  C   UNL     1      -7.199   3.329  -0.908  0.00  0.00    +0.128 C 
ATOM     28  H   UNL     1      -7.349   2.213   0.893  0.00  0.00    +0.149 HD
ENDBRANCH  16  24
ENDBRANCH   3  15
TORSDOF 3
