REMARK  Name = ZINC52208589
REMARK  10 active torsions:
REMARK  status: ('A' for Active; 'I' for Inactive)
REMARK    1  A    between atoms: C_1  and  C_2
REMARK    2  A    between atoms: C_2  and  C_3
REMARK    3  A    between atoms: C_3  and  C_4
REMARK    4  A    between atoms: C_4  and  N_5
REMARK    5  A    between atoms: N_5  and  C_6
REMARK    6  A    between atoms: N_5  and  C_7
REMARK    7  A    between atoms: C_7  and  C_8
REMARK    8  A    between atoms: N_11  and  C_14
REMARK    9  A    between atoms: C_14  and  C_15
REMARK   10  A    between atoms: N_19  and  C_20
REMARK                            x       y       z     vdW  Elec       q    Type
REMARK                         _______ _______ _______ _____ _____    ______ ____
ROOT
ATOM      1  C   UNL     1       2.377  -4.446  -3.619  0.00  0.00    -0.031 C 
ATOM      2  C   UNL     1       3.810  -3.921  -3.498  0.00  0.00    -0.017 C 
ATOM      3  C   UNL     1       4.649  -4.471  -4.654  0.00  0.00    -0.078 C 
ATOM      4  N   UNL     1       4.657  -5.938  -4.601  0.00  0.00    +0.384 N 
ATOM      5  C   UNL     1       3.295  -6.451  -4.789  0.00  0.00    -0.078 C 
ATOM      6  C   UNL     1       2.404  -5.977  -3.639  0.00  0.00    -0.017 C 
ATOM      7  H   UNL     1       5.008  -6.240  -3.705  0.00  0.00    -0.081 HD
ENDROOT
BRANCH   1   8
ATOM      8  C   UNL     1       1.552  -3.964  -2.424  0.00  0.00    -0.076 C 
BRANCH   8   9
ATOM      9  N   UNL     1       1.427  -2.501  -2.474  0.00  0.00    +0.378 N 
ATOM     10  C   UNL     1       0.651  -2.116  -3.661  0.00  0.00    -0.096 C 
ATOM     11  H   UNL     1       2.345  -2.086  -2.523  0.00  0.00    -0.082 HD
BRANCH   9  12
ATOM     12  C   UNL     1       0.739  -2.027  -1.265  0.00  0.00    -0.079 C 
BRANCH  12  13
ATOM     13  C   UNL     1       0.718  -0.497  -1.257  0.00  0.00    -0.019 C 
BRANCH  13  15
ATOM     14  C   UNL     1      -0.019   1.526   0.010  0.00  0.00    +0.004 C 
ATOM     15  C   UNL     1       0.002  -0.004   0.002  0.00  0.00    -0.005 C 
ENDBRANCH  13  15
ENDBRANCH  12  13
ENDBRANCH   9  12
ENDBRANCH   8   9
ENDBRANCH   1   8
BRANCH   4  16
ATOM     16  C   UNL     1       5.526  -6.460  -5.665  0.00  0.00    +0.000 C 
BRANCH  16  17
ATOM     17  C   UNL     1       5.633  -7.957  -5.537  0.00  0.00    +0.135 A 
ATOM     18  N   UNL     1       6.522  -8.621  -4.839  0.00  0.00    -0.115 NA
ATOM     19  N   UNL     1       6.282  -9.879  -4.982  0.00  0.00    -0.023 NA
ATOM     20  N   UNL     1       5.263 -10.034  -5.754  0.00  0.00    -0.044 NA
ATOM     21  N   UNL     1       4.832  -8.873  -6.113  0.00  0.00    -0.228 N 
BRANCH  21  22
ATOM     22  C   UNL     1       3.687  -8.601  -6.986  0.00  0.00    +0.111 C 
ATOM     23  C   UNL     1       2.794  -9.783  -7.367  0.00  0.00    +0.029 C 
ATOM     24  C   UNL     1       3.732  -9.166  -8.406  0.00  0.00    +0.029 C 
ENDBRANCH  21  22
ENDBRANCH  16  17
ENDBRANCH   4  16
TORSDOF 8
