REMARK  Name = ZINC60940748
REMARK  7 active torsions:
REMARK  status: ('A' for Active; 'I' for Inactive)
REMARK    1  A    between atoms: C_1  and  C_2
REMARK    2  A    between atoms: C_6  and  N_9
REMARK    3  A    between atoms: C_7  and  C_8
REMARK    4  A    between atoms: N_12  and  C_13
REMARK    5  A    between atoms: N_16  and  C_19
REMARK    6  A    between atoms: C_19  and  C_20
REMARK    7  A    between atoms: N_22  and  C_23
REMARK                            x       y       z     vdW  Elec       q    Type
REMARK                         _______ _______ _______ _____ _____    ______ ____
ROOT
ATOM      1  N   UNL     1      -0.612  -2.548   1.244  0.00  0.00    -0.296 N 
ATOM      2  C   UNL     1      -0.873  -3.776   1.733  0.00  0.00    +0.300 C 
ATOM      3  O   UNL     1       0.032  -4.463   2.165  0.00  0.00    -0.253 OA
ATOM      4  N   UNL     1      -2.137  -4.243   1.742  0.00  0.00    -0.297 N 
ATOM      5  H   UNL     1      -1.333  -2.000   0.898  0.00  0.00    +0.151 HD
ATOM      6  H   UNL     1      -2.859  -3.694   1.397  0.00  0.00    +0.151 HD
ENDROOT
BRANCH   1  12
ATOM      7  C   UNL     1      -0.019   1.526   0.010  0.00  0.00    +0.008 C 
ATOM      8  C   UNL     1       0.002  -0.004   0.002  0.00  0.00    -0.009 C 
ATOM      9  C   UNL     1       0.718  -0.497  -1.257  0.00  0.00    +0.003 C 
ATOM     10  C   UNL     1       0.739  -2.027  -1.265  0.00  0.00    +0.002 C 
ATOM     11  C   UNL     1       1.479  -2.534  -0.026  0.00  0.00    +0.022 C 
ATOM     12  C   UNL     1       0.763  -2.041   1.233  0.00  0.00    +0.078 C 
ATOM     13  C   UNL     1       0.742  -0.511   1.242  0.00  0.00    +0.009 C 
ATOM     14  C   UNL     1       0.026  -0.018   2.500  0.00  0.00    +0.009 C 
ENDBRANCH   1  12
BRANCH   4  15
ATOM     15  C   UNL     1      -2.422  -5.578   2.274  0.00  0.00    +0.071 C 
ATOM     16  C   UNL     1      -2.210  -6.623   1.175  0.00  0.00    +0.004 C 
ATOM     17  C   UNL     1      -2.585  -8.005   1.713  0.00  0.00    -0.076 C 
ATOM     18  N   UNL     1      -3.993  -8.007   2.128  0.00  0.00    +0.385 N 
ATOM     19  C   UNL     1      -4.188  -7.059   3.232  0.00  0.00    -0.076 C 
ATOM     20  C   UNL     1      -3.875  -5.640   2.752  0.00  0.00    +0.004 C 
ATOM     21  H   UNL     1      -4.573  -7.738   1.348  0.00  0.00    -0.081 HD
BRANCH  18  22
ATOM     22  C   UNL     1      -4.369  -9.356   2.572  0.00  0.00    +0.019 C 
BRANCH  22  23
ATOM     23  C   UNL     1      -5.843  -9.390   2.882  0.00  0.00    +0.196 C 
ATOM     24  O   UNL     1      -6.515  -8.389   2.747  0.00  0.00    -0.278 OA
ATOM     25  N   UNL     1      -6.416 -10.533   3.309  0.00  0.00    -0.320 N 
ATOM     26  C   UNL     1      -7.849 -10.566   3.611  0.00  0.00    +0.128 C 
ATOM     27  H   UNL     1      -5.879 -11.334   3.417  0.00  0.00    +0.148 HD
ENDBRANCH  22  23
ENDBRANCH  18  22
ENDBRANCH   4  15
TORSDOF 4
