REMARK  Name = ZINC08994632
REMARK  6 active torsions:
REMARK  status: ('A' for Active; 'I' for Inactive)
REMARK    1  A    between atoms: C_1  and  C_2
REMARK    2  A    between atoms: C_5  and  N_9
REMARK    3  A    between atoms: C_6  and  C_8
REMARK    4  A    between atoms: C_24  and  C_30
REMARK    5  A    between atoms: C_30  and  C_32
REMARK    6  A    between atoms: C_36  and  N_38
REMARK                            x       y       z     vdW  Elec       q    Type
REMARK                         _______ _______ _______ _____ _____    ______ ____
ROOT
ATOM      1  N   UNL     1      -2.951   7.140  -1.542  0.00  0.00    -0.210 N 
ATOM      2  C   UNL     1      -2.296   6.538  -0.492  0.00  0.00    +0.232 C 
ATOM      3  O   UNL     1      -1.632   7.063   0.376  0.00  0.00    -0.274 OA
ATOM      4  C   UNL     1      -2.586   5.127  -0.668  0.00  0.00    +0.113 C 
ATOM      5  C   UNL     1      -2.553   3.891   0.136  0.00  0.00    +0.100 C 
ATOM      6  C   UNL     1      -1.229   3.157   0.051  0.00  0.00    -0.021 A 
ATOM      7  C   UNL     1      -0.043   3.853   0.032  0.00  0.00    +0.006 A 
ATOM      8  C   UNL     1       1.160   3.167   0.008  0.00  0.00    +0.000 A 
ATOM      9  C   UNL     1       1.172   1.783   0.000  0.00  0.00    +0.001 A 
ATOM     10  C   UNL     1      -0.013   1.076   0.008  0.00  0.00    +0.008 A 
ATOM     11  C   UNL     1      -1.231   1.759   0.017  0.00  0.00    -0.019 A 
ATOM     12  C   UNL     1      -2.501   1.005   0.010  0.00  0.00    +0.022 C 
ATOM     13  C   UNL     1      -3.647   1.651  -0.291  0.00  0.00    +0.054 C 
ATOM     14  C   UNL     1      -4.184   3.763  -1.666  0.00  0.00    +0.141 C 
ATOM     15  C   UNL     1      -4.101   5.204  -1.127  0.00  0.00    +0.116 C 
ATOM     16  C   UNL     1      -3.890   6.325  -2.111  0.00  0.00    +0.232 C 
ATOM     17  O   UNL     1      -4.437   6.473  -3.183  0.00  0.00    -0.274 OA
ATOM     18  N   UNL     1      -3.719   3.167  -0.347  0.00  0.00    -0.384 NA
ATOM     19  H   UNL     1      -4.460   3.400   0.326  0.00  0.00    +0.127 HD
ENDROOT
BRANCH   1  24
ATOM     20  C   UNL     1      -1.876  12.424  -3.314  0.00  0.00    +0.044 C 
ATOM     21  C   UNL     1      -2.162  11.021  -2.843  0.00  0.00    -0.050 A 
ATOM     22  C   UNL     1      -3.119  10.801  -1.869  0.00  0.00    +0.005 A 
ATOM     23  C   UNL     1      -3.383   9.516  -1.437  0.00  0.00    +0.024 A 
ATOM     24  C   UNL     1      -2.686   8.445  -1.980  0.00  0.00    +0.047 A 
ATOM     25  C   UNL     1      -1.722   8.670  -2.953  0.00  0.00    -0.028 A 
ATOM     26  C   UNL     1      -1.466   9.956  -3.386  0.00  0.00    +0.008 A 
ATOM     27  C   UNL     1      -0.959   7.511  -3.541  0.00  0.00    +0.046 C 
ENDBRANCH   1  24
BRANCH  14  28
ATOM     28  C   UNL     1      -3.435   3.619  -2.966  0.00  0.00    +0.183 C 
ATOM     29  O   UNL     1      -2.317   3.151  -2.973  0.00  0.00    -0.290 OA
BRANCH  28  30
ATOM     30  C   UNL     1      -4.062   4.047  -4.228  0.00  0.00    +0.021 A 
ATOM     31  C   UNL     1      -5.354   4.582  -4.224  0.00  0.00    +0.011 A 
ATOM     32  C   UNL     1      -5.932   4.986  -5.409  0.00  0.00    +0.003 A 
ATOM     33  C   UNL     1      -5.241   4.852  -6.601  0.00  0.00    +0.033 A 
ATOM     34  C   UNL     1      -3.964   4.318  -6.613  0.00  0.00    +0.127 A 
ATOM     35  C   UNL     1      -3.370   3.915  -5.436  0.00  0.00    +0.044 A 
BRANCH  34  36
ATOM     36  N   UNL     1      -3.234   4.180  -7.893  0.00  0.00    +0.056 N 
ATOM     37  O   UNL     1      -2.110   3.711  -7.906  0.00  0.00    -0.126 OA
ATOM     38  O   UNL     1      -3.757   4.535  -8.934  0.00  0.00    -0.126 OA
ENDBRANCH  34  36
ENDBRANCH  28  30
ENDBRANCH  14  28
TORSDOF 4
