REMARK  Name = ZINC63761415
REMARK  13 active torsions:
REMARK  status: ('A' for Active; 'I' for Inactive)
REMARK    1  A    between atoms: C_1  and  C_2
REMARK    2  A    between atoms: C_5  and  S_8
REMARK    3  A    between atoms: S_8  and  N_11
REMARK    4  A    between atoms: N_11  and  C_12
REMARK    5  A    between atoms: C_12  and  C_14
REMARK    6  A    between atoms: C_12  and  C_21
REMARK    7  A    between atoms: C_14  and  C_15
REMARK    8  A    between atoms: N_23  and  C_24
REMARK    9  A    between atoms: C_24  and  C_26
REMARK   10  A    between atoms: C_24  and  C_36
REMARK   11  A    between atoms: C_26  and  C_27
REMARK   12  A    between atoms: C_36  and  O_38
REMARK   13  A    between atoms: O_38  and  C_39
REMARK                            x       y       z     vdW  Elec       q    Type
REMARK                         _______ _______ _______ _____ _____    ______ ____
ROOT
ATOM      1  C   UNL     1       2.629  -4.768   1.354  0.00  0.00    +0.166 C 
ENDROOT
BRANCH   1   2
ATOM      2  C   UNL     1       3.523  -5.982   1.357  0.00  0.00    +0.233 C 
ATOM      3  O   UNL     1       3.233  -6.951   0.689  0.00  0.00    -0.274 OA
ATOM      4  N   UNL     1       4.645  -5.989   2.104  0.00  0.00    -0.301 N 
ATOM      5  H   UNL     1       4.877  -5.214   2.639  0.00  0.00    +0.150 HD
BRANCH   4   6
ATOM      6  C   UNL     1       5.514  -7.169   2.108  0.00  0.00    +0.186 C 
BRANCH   6   7
ATOM      7  C   UNL     1       6.464  -7.096   0.940  0.00  0.00    +0.328 C 
ATOM      8  O   UNL     1       6.420  -6.156   0.183  0.00  0.00    -0.249 OA
BRANCH   7   9
ATOM      9  O   UNL     1       7.360  -8.076   0.742  0.00  0.00    -0.467 OA
ATOM     10  C   UNL     1       8.229  -7.943  -0.385  0.00  0.00    +0.280 C 
ENDBRANCH   7   9
ENDBRANCH   6   7
BRANCH   6  11
ATOM     11  C   UNL     1       6.312  -7.210   3.413  0.00  0.00    +0.067 C 
BRANCH  11  12
ATOM     12  C   UNL     1       5.369  -7.406   4.572  0.00  0.00    -0.039 C 
ATOM     13  C   UNL     1       5.040  -8.577   5.163  0.00  0.00    -0.001 A 
ATOM     14  C   UNL     1       5.445  -9.966   4.914  0.00  0.00    +0.010 A 
ATOM     15  C   UNL     1       4.934 -10.948   5.691  0.00  0.00    +0.001 A 
ATOM     16  C   UNL     1       4.029 -10.674   6.725  0.00  0.00    +0.002 A 
ATOM     17  C   UNL     1       3.610  -9.424   7.015  0.00  0.00    +0.026 A 
ATOM     18  C   UNL     1       4.083  -8.314   6.262  0.00  0.00    +0.043 A 
ATOM     19  N   UNL     1       3.831  -7.030   6.346  0.00  0.00    -0.380 N 
ATOM     20  C   UNL     1       4.604  -6.333   5.313  0.00  0.00    +0.144 C 
ATOM     21  H   UNL     1       3.235  -6.612   6.987  0.00  0.00    +0.160 HD
ENDBRANCH  11  12
ENDBRANCH   6  11
ENDBRANCH   4   6
ENDBRANCH   1   2
BRANCH   1  22
ATOM     22  N   UNL     1       1.485  -5.008   0.471  0.00  0.00    -0.178 NA
ATOM     23  H   UNL     1       1.561  -4.833  -0.480  0.00  0.00    +0.149 HD
BRANCH  22  24
ATOM     24  S   UNL     1       0.061  -5.576   1.097  0.00  0.00    +0.059 S 
ATOM     25  O   UNL     1       0.387  -6.722   1.872  0.00  0.00    -0.153 OA
ATOM     26  O   UNL     1      -0.866  -5.623   0.021  0.00  0.00    -0.153 OA
BRANCH  24  31
ATOM     27  C   UNL     1      -1.984  -1.413   4.956  0.00  0.00    +0.044 C 
ATOM     28  C   UNL     1      -1.473  -2.453   3.992  0.00  0.00    -0.050 A 
ATOM     29  C   UNL     1      -1.864  -2.418   2.667  0.00  0.00    +0.005 A 
ATOM     30  C   UNL     1      -1.395  -3.372   1.782  0.00  0.00    +0.029 A 
ATOM     31  C   UNL     1      -0.535  -4.360   2.224  0.00  0.00    +0.105 A 
ATOM     32  C   UNL     1      -0.143  -4.394   3.549  0.00  0.00    +0.029 A 
ATOM     33  C   UNL     1      -0.609  -3.438   4.432  0.00  0.00    +0.005 A 
ENDBRANCH  24  31
ENDBRANCH  22  24
ENDBRANCH   1  22
BRANCH   1  34
ATOM     34  C   UNL     1       3.416  -3.557   0.851  0.00  0.00    +0.065 C 
BRANCH  34  35
ATOM     35  C   UNL     1       2.555  -2.324   0.946  0.00  0.00    -0.045 A 
ATOM     36  C   UNL     1       1.840  -1.893  -0.156  0.00  0.00    +0.004 A 
ATOM     37  C   UNL     1       1.050  -0.762  -0.069  0.00  0.00    +0.000 A 
ATOM     38  C   UNL     1       0.974  -0.062   1.120  0.00  0.00    +0.000 A 
ATOM     39  C   UNL     1       1.689  -0.492   2.222  0.00  0.00    +0.000 A 
ATOM     40  C   UNL     1       2.475  -1.626   2.136  0.00  0.00    +0.004 A 
ENDBRANCH  34  35
ENDBRANCH   1  34
TORSDOF 11
