REMARK  Name = ZINC12402452
REMARK  6 active torsions:
REMARK  status: ('A' for Active; 'I' for Inactive)
REMARK    1  A    between atoms: C_1  and  C_2
REMARK    2  A    between atoms: C_2  and  O_30
REMARK    3  A    between atoms: C_6  and  O_10
REMARK    4  A    between atoms: C_11  and  C_24
REMARK    5  A    between atoms: C_13  and  C_15
REMARK    6  A    between atoms: N_17  and  C_18
REMARK                            x       y       z     vdW  Elec       q    Type
REMARK                         _______ _______ _______ _____ _____    ______ ____
ROOT
ATOM      1  C   UNL     1      -1.709   5.977  -1.074  0.00  0.00    +0.042 C 
ATOM      2  C   UNL     1      -2.355   5.529   0.239  0.00  0.00    +0.081 C 
ATOM      3  C   UNL     1      -1.477   5.970   1.417  0.00  0.00    +0.090 C 
ATOM      4  C   UNL     1      -1.996   5.310   2.670  0.00  0.00    +0.046 A 
ATOM      5  C   UNL     1      -2.836   4.245   2.677  0.00  0.00    +0.044 A 
ATOM      6  C   UNL     1      -3.102   3.914   4.008  0.00  0.00    +0.235 A 
ATOM      7  N   UNL     1      -2.441   4.752   4.773  0.00  0.00    -0.136 NA
ATOM      8  N   UNL     1      -1.736   5.640   3.946  0.00  0.00    -0.278 N 
ATOM      9  H   UNL     1      -1.146   6.387   4.253  0.00  0.00    +0.189 HD
ATOM     10  C   UNL     1      -3.362   3.573   1.433  0.00  0.00    +0.071 C 
ATOM     11  C   UNL     1      -2.491   4.004   0.246  0.00  0.00    +0.119 C 
ENDROOT
BRANCH  10  12
ATOM     12  C   UNL     1      -3.292   2.076   1.597  0.00  0.00    -0.039 A 
ATOM     13  C   UNL     1      -4.344   1.286   1.174  0.00  0.00    +0.004 A 
ATOM     14  C   UNL     1      -4.279  -0.087   1.320  0.00  0.00    +0.000 A 
ATOM     15  C   UNL     1      -3.166  -0.669   1.897  0.00  0.00    +0.000 A 
ATOM     16  C   UNL     1      -2.116   0.122   2.325  0.00  0.00    +0.000 A 
ATOM     17  C   UNL     1      -2.179   1.495   2.175  0.00  0.00    +0.004 A 
ENDBRANCH  10  12
BRANCH  11  18
ATOM     18  C   UNL     1      -1.125   3.378   0.372  0.00  0.00    +0.224 C 
ATOM     19  O   UNL     1      -0.488   3.514   1.395  0.00  0.00    -0.275 OA
ATOM     20  N   UNL     1      -0.612   2.668  -0.651  0.00  0.00    -0.285 N 
ATOM     21  H   UNL     1      -1.065   2.658  -1.510  0.00  0.00    +0.155 HD
BRANCH  20  22
ATOM     22  C   UNL     1       0.573   1.944  -0.477  0.00  0.00    +0.033 A 
ATOM     23  C   UNL     1       0.768   0.752  -1.162  0.00  0.00    +0.023 A 
ATOM     24  C   UNL     1       1.936   0.038  -0.983  0.00  0.00    +0.002 A 
ATOM     25  C   UNL     1       2.911   0.509  -0.123  0.00  0.00    +0.000 A 
ATOM     26  C   UNL     1       2.720   1.695   0.561  0.00  0.00    +0.002 A 
ATOM     27  C   UNL     1       1.554   2.414   0.386  0.00  0.00    +0.023 A 
ENDBRANCH  20  22
ENDBRANCH  11  18
BRANCH   6  28
ATOM     28  O   UNL     1      -3.904   2.903   4.436  0.00  0.00    -0.491 OA
ATOM     29  H   UNL     1      -3.917   2.889   5.436  0.00  0.00    +0.294 HD
ENDBRANCH   6  28
BRANCH   2  30
ATOM     30  O   UNL     1      -3.649   6.123   0.360  0.00  0.00    -0.388 OA
ATOM     31  H   UNL     1      -3.639   7.090   0.363  0.00  0.00    +0.210 HD
ENDBRANCH   2  30
TORSDOF 5
