REMARK  Name = ZINC33324923
REMARK  4 active torsions:
REMARK  status: ('A' for Active; 'I' for Inactive)
REMARK    1  A    between atoms: C_1  and  C_2
REMARK    2  A    between atoms: C_10  and  C_12
REMARK    3  A    between atoms: C_16  and  O_18
REMARK    4  A    between atoms: C_22  and  C_25
REMARK                            x       y       z     vdW  Elec       q    Type
REMARK                         _______ _______ _______ _____ _____    ______ ____
ROOT
ATOM      1  C   UNL     1       6.545   3.327   0.488  0.00  0.00    +0.069 C 
ATOM      2  C   UNL     1       5.106   3.626   0.820  0.00  0.00    +0.087 A 
ATOM      3  C   UNL     1       3.979   2.988   0.308  0.00  0.00    +0.049 A 
ATOM      4  C   UNL     1       2.923   3.616   0.917  0.00  0.00    +0.226 A 
ATOM      5  O   UNL     1       3.448   4.543   1.711  0.00  0.00    -0.339 OA
ATOM      6  N   UNL     1       4.662   4.538   1.649  0.00  0.00    -0.081 NA
ATOM      7  N   UNL     1       1.622   3.242   0.652  0.00  0.00    -0.286 N 
ATOM      8  C   UNL     1       1.398   2.053  -0.000  0.00  0.00    +0.019 C 
ATOM      9  C   UNL     1       2.382   1.370  -0.623  0.00  0.00    +0.024 C 
ATOM     10  C   UNL     1       3.810   1.875  -0.675  0.00  0.00    +0.091 C 
ATOM     11  C   UNL     1       2.120   0.144  -1.261  0.00  0.00    +0.162 C 
ATOM     12  O   UNL     1       3.024  -0.434  -1.831  0.00  0.00    -0.292 OA
ATOM     13  C   UNL     1       0.747  -0.468  -1.254  0.00  0.00    +0.088 C 
ATOM     14  C   UNL     1       0.002  -0.004   0.002  0.00  0.00    +0.032 C 
ATOM     15  C   UNL     1      -0.019   1.526   0.010  0.00  0.00    +0.059 C 
ATOM     16  H   UNL     1       0.789   3.891   0.961  0.00  0.00    +0.155 HD
ENDROOT
BRANCH  14  17
ATOM     17  C   UNL     1      -1.410  -0.531  -0.019  0.00  0.00    -0.043 A 
ATOM     18  C   UNL     1      -2.254  -0.202  -1.063  0.00  0.00    +0.005 A 
ATOM     19  C   UNL     1      -3.547  -0.689  -1.086  0.00  0.00    +0.020 A 
ATOM     20  C   UNL     1      -4.000  -1.498  -0.059  0.00  0.00    +0.041 A 
ATOM     21  C   UNL     1      -3.156  -1.823   0.988  0.00  0.00    +0.020 A 
ATOM     22  C   UNL     1      -1.861  -1.340   1.007  0.00  0.00    +0.005 A 
ATOM     23 CL   UNL     1      -5.626  -2.105  -0.084  0.00  0.00    -0.084 Cl
ENDBRANCH  14  17
BRANCH  10  24
ATOM     24  C   UNL     1       4.115   2.377  -2.063  0.00  0.00    -0.032 A 
ATOM     25  C   UNL     1       3.374   3.414  -2.600  0.00  0.00    +0.005 A 
ATOM     26  C   UNL     1       3.651   3.878  -3.873  0.00  0.00    +0.004 A 
ATOM     27  C   UNL     1       4.670   3.307  -4.611  0.00  0.00    +0.045 A 
ATOM     28  C   UNL     1       5.415   2.267  -4.074  0.00  0.00    +0.117 A 
ATOM     29  C   UNL     1       5.138   1.806  -2.795  0.00  0.00    +0.050 A 
BRANCH  28  30
ATOM     30  O   UNL     1       6.418   1.704  -4.798  0.00  0.00    -0.507 OA
ATOM     31  H   UNL     1       7.008   0.879  -4.371  0.00  0.00    +0.292 HD
ENDBRANCH  28  30
ENDBRANCH  10  24
TORSDOF 3
