REMARK  Name = ZINC36309395
REMARK  15 active torsions:
REMARK  status: ('A' for Active; 'I' for Inactive)
REMARK    1  A    between atoms: C_1  and  C_2
REMARK    2  A    between atoms: C_5  and  O_9
REMARK    3  A    between atoms: C_6  and  C_8
REMARK    4  A    between atoms: O_9  and  C_10
REMARK    5  A    between atoms: C_10  and  C_11
REMARK    6  A    between atoms: C_21  and  C_23
REMARK    7  A    between atoms: C_23  and  N_24
REMARK    8  A    between atoms: N_24  and  C_25
REMARK    9  A    between atoms: N_24  and  C_34
REMARK   10  A    between atoms: C_25  and  C_26
REMARK   11  A    between atoms: C_26  and  C_28
REMARK   12  A    between atoms: C_26  and  O_33
REMARK   13  A    between atoms: C_28  and  O_29
REMARK   14  A    between atoms: O_29  and  C_30
REMARK   15  A    between atoms: C_30  and  C_31
REMARK                            x       y       z     vdW  Elec       q    Type
REMARK                         _______ _______ _______ _____ _____    ______ ____
ROOT
ATOM      1  C   UNL     1       0.045  -6.346  -1.210  0.00  0.00    +0.144 C 
ATOM      2  C   UNL     1      -1.165  -6.729  -0.360  0.00  0.00    -0.014 A 
ATOM      3  C   UNL     1      -2.476  -6.685  -0.834  0.00  0.00    +0.013 A 
ATOM      4  C   UNL     1      -3.500  -7.035  -0.023  0.00  0.00    +0.046 A 
ATOM      5  S   UNL     1      -2.646  -7.457   1.488  0.00  0.00    -0.101 S 
ATOM      6  C   UNL     1      -0.994  -7.138   0.926  0.00  0.00    -0.004 A 
ATOM      7  C   UNL     1       0.287  -7.286   1.680  0.00  0.00    +0.061 C 
ATOM      8  C   UNL     1       1.391  -6.525   0.929  0.00  0.00    +0.113 C 
ATOM      9  N   UNL     1       1.251  -6.806  -0.509  0.00  0.00    -0.292 N 
ATOM     10  C   UNL     1       2.214  -7.476  -1.172  0.00  0.00    +0.200 C 
ATOM     11  O   UNL     1       2.088  -7.703  -2.357  0.00  0.00    -0.278 OA
ENDROOT
BRANCH   1  12
ATOM     12  C   UNL     1       0.095  -4.827  -1.385  0.00  0.00    +0.256 C 
BRANCH  12  13
ATOM     13  O   UNL     1       0.064  -4.198  -0.102  0.00  0.00    -0.490 OA
BRANCH  13  18
ATOM     14  C   UNL     1       0.218   1.432  -0.010  0.00  0.00    +0.044 C 
ATOM     15  C   UNL     1       0.177  -0.075  -0.034  0.00  0.00    -0.050 A 
ATOM     16  C   UNL     1       0.204  -0.746  -1.243  0.00  0.00    +0.007 A 
ATOM     17  C   UNL     1       0.167  -2.127  -1.268  0.00  0.00    +0.046 A 
ATOM     18  C   UNL     1       0.101  -2.840  -0.080  0.00  0.00    +0.124 A 
ATOM     19  C   UNL     1       0.074  -2.164   1.131  0.00  0.00    -0.009 A 
ATOM     20  C   UNL     1       0.117  -0.783   1.151  0.00  0.00    +0.010 A 
ATOM     21  C   UNL     1       0.003  -2.935   2.424  0.00  0.00    +0.047 C 
ENDBRANCH  13  18
ENDBRANCH  12  13
ENDBRANCH   1  12
BRANCH  10  22
ATOM     22  C   UNL     1       3.447  -7.942  -0.442  0.00  0.00    +0.019 C 
BRANCH  22  23
ATOM     23  N   UNL     1       4.399  -8.513  -1.405  0.00  0.00    +0.389 N 
ATOM     24  H   UNL     1       3.938  -9.223  -1.953  0.00  0.00    -0.081 HD
BRANCH  23  25
ATOM     25  C   UNL     1       5.529  -9.111  -0.680  0.00  0.00    -0.068 C 
ATOM     26  C   UNL     1       5.833 -10.587  -0.941  0.00  0.00    -0.017 C 
ATOM     27  C   UNL     1       5.208 -10.158   0.388  0.00  0.00    -0.017 C 
ENDBRANCH  23  25
BRANCH  23  28
ATOM     28  C   UNL     1       4.893  -7.452  -2.292  0.00  0.00    -0.044 C 
BRANCH  28  29
ATOM     29  C   UNL     1       5.787  -8.066  -3.372  0.00  0.00    +0.124 C 
BRANCH  29  30
ATOM     30  O   UNL     1       6.895  -8.725  -2.755  0.00  0.00    -0.391 OA
ATOM     31  H   UNL     1       7.452  -8.142  -2.221  0.00  0.00    +0.210 HD
ENDBRANCH  29  30
BRANCH  29  32
ATOM     32  C   UNL     1       6.302  -6.961  -4.297  0.00  0.00    +0.189 C 
BRANCH  32  33
ATOM     33  O   UNL     1       7.040  -7.545  -5.371  0.00  0.00    -0.373 OA
BRANCH  33  34
ATOM     34  C   UNL     1       7.568  -6.594  -6.298  0.00  0.00    +0.186 C 
BRANCH  34  35
ATOM     35  C   UNL     1       8.324  -7.316  -7.383  0.00  0.00    -0.007 C 
ATOM     36  C   UNL     1       8.152  -6.979  -8.637  0.00  0.00    +0.006 C 
ENDBRANCH  34  35
ENDBRANCH  33  34
ENDBRANCH  32  33
ENDBRANCH  29  32
ENDBRANCH  28  29
ENDBRANCH  23  28
ENDBRANCH  22  23
ENDBRANCH  10  22
TORSDOF 13
