REMARK  Name = ZINC18099976
REMARK  6 active torsions:
REMARK  status: ('A' for Active; 'I' for Inactive)
REMARK    1  A    between atoms: C_1  and  C_2
REMARK    2  A    between atoms: C_5  and  S_8
REMARK    3  A    between atoms: S_8  and  N_11
REMARK    4  A    between atoms: C_14  and  N_23
REMARK    5  A    between atoms: N_23  and  N_24
REMARK    6  A    between atoms: C_25  and  C_27
REMARK                            x       y       z     vdW  Elec       q    Type
REMARK                         _______ _______ _______ _____ _____    ______ ____
ROOT
ATOM      1  N   UNL     1       1.651  -4.999  -0.034  0.00  0.00    -0.128 NA
ATOM      2  C   UNL     1       2.006  -6.254   0.041  0.00  0.00    +0.095 C 
ATOM      3  C   UNL     1       3.427  -6.620   0.139  0.00  0.00    +0.058 C 
ATOM      4  C   UNL     1       3.787  -7.875   0.491  0.00  0.00    +0.094 C 
ATOM      5  C   UNL     1       2.756  -8.894   0.781  0.00  0.00    +0.209 C 
ATOM      6  O   UNL     1       3.058  -9.935   1.331  0.00  0.00    -0.285 OA
ATOM      7  C   UNL     1       1.355  -8.631   0.396  0.00  0.00    +0.033 A 
ATOM      8  C   UNL     1       0.981  -7.325   0.035  0.00  0.00    +0.013 A 
ATOM      9  C   UNL     1      -0.333  -7.060  -0.324  0.00  0.00    +0.011 A 
ATOM     10  C   UNL     1      -1.266  -8.083  -0.319  0.00  0.00    +0.001 A 
ATOM     11  C   UNL     1      -0.899  -9.367   0.042  0.00  0.00    +0.001 A 
ATOM     12  C   UNL     1       0.406  -9.649   0.391  0.00  0.00    +0.012 A 
ENDROOT
BRANCH   1  13
ATOM     13  S   UNL     1       0.207  -4.507   0.610  0.00  0.00    +0.099 S 
ATOM     14  O   UNL     1      -0.265  -5.579   1.415  0.00  0.00    -0.146 OA
ATOM     15  O   UNL     1      -0.554  -3.969  -0.463  0.00  0.00    -0.146 OA
BRANCH  13  20
ATOM     16  C   UNL     1       1.389   0.073   4.355  0.00  0.00    +0.044 C 
ATOM     17  C   UNL     1       1.094  -1.071   3.420  0.00  0.00    -0.050 A 
ATOM     18  C   UNL     1       0.820  -0.822   2.088  0.00  0.00    +0.005 A 
ATOM     19  C   UNL     1       0.550  -1.871   1.230  0.00  0.00    +0.029 A 
ATOM     20  C   UNL     1       0.553  -3.170   1.703  0.00  0.00    +0.112 A 
ATOM     21  C   UNL     1       0.827  -3.419   3.035  0.00  0.00    +0.029 A 
ATOM     22  C   UNL     1       1.102  -2.370   3.892  0.00  0.00    +0.005 A 
ENDBRANCH  13  20
ENDBRANCH   1  13
BRANCH   4  23
ATOM     23  N   UNL     1       5.130  -8.209   0.579  0.00  0.00    -0.261 N 
ATOM     24  H   UNL     1       5.391  -9.108   0.831  0.00  0.00    +0.170 HD
BRANCH  23  25
ATOM     25  N   UNL     1       6.111  -7.246   0.304  0.00  0.00    -0.232 N 
ATOM     26  C   UNL     1       7.416  -7.570   0.390  0.00  0.00    +0.260 C 
ATOM     27  O   UNL     1       7.743  -8.698   0.706  0.00  0.00    -0.269 OA
ATOM     28  H   UNL     1       5.850  -6.347   0.052  0.00  0.00    +0.173 HD
BRANCH  26  29
ATOM     29  C   UNL     1       8.450  -6.555   0.100  0.00  0.00    +0.038 A 
ATOM     30  C   UNL     1       8.079  -5.258  -0.258  0.00  0.00    +0.013 A 
ATOM     31  C   UNL     1       9.049  -4.314  -0.527  0.00  0.00    +0.001 A 
ATOM     32  C   UNL     1      10.388  -4.652  -0.443  0.00  0.00    +0.000 A 
ATOM     33  C   UNL     1      10.763  -5.936  -0.090  0.00  0.00    +0.001 A 
ATOM     34  C   UNL     1       9.803  -6.887   0.188  0.00  0.00    +0.013 A 
ENDBRANCH  26  29
ENDBRANCH  23  25
ENDBRANCH   4  23
TORSDOF 5
