REMARK  Name = ZINC13567745
REMARK  4 active torsions:
REMARK  status: ('A' for Active; 'I' for Inactive)
REMARK    1  A    between atoms: C_2  and  C_3
REMARK    2  A    between atoms: C_3  and  N_4
REMARK    3  A    between atoms: C_14  and  C_32
REMARK    4  A    between atoms: C_15  and  N_31
REMARK                            x       y       z     vdW  Elec       q    Type
REMARK                         _______ _______ _______ _____ _____    ______ ____
ROOT
ATOM      1  N   UNL     1      -2.503   3.623   0.073  0.00  0.00    -0.266 N 
ATOM      2  C   UNL     1      -1.199   3.162   0.110  0.00  0.00    +0.041 A 
ATOM      3  C   UNL     1      -0.005   3.883   0.151  0.00  0.00    +0.024 A 
ATOM      4  C   UNL     1       1.174   3.155   0.183  0.00  0.00    +0.002 A 
ATOM      5  C   UNL     1       1.181   1.775   0.175  0.00  0.00    +0.000 A 
ATOM      6  C   UNL     1      -0.002   1.045   0.134  0.00  0.00    +0.007 A 
ATOM      7  C   UNL     1      -1.177   1.763   0.096  0.00  0.00    -0.001 A 
ATOM      8  C   UNL     1      -2.608   1.319   0.054  0.00  0.00    +0.141 C 
ATOM      9  C   UNL     1      -3.397   2.613   0.038  0.00  0.00    +0.240 C 
ATOM     10  O   UNL     1      -4.604   2.720   0.002  0.00  0.00    -0.274 OA
ATOM     11  C   UNL     1      -2.883   0.536  -1.195  0.00  0.00    +0.089 C 
ATOM     12  C   UNL     1      -3.043  -0.812  -1.153  0.00  0.00    +0.109 C 
ATOM     13  N   UNL     1      -2.961  -1.480   0.049  0.00  0.00    -0.245 N 
ATOM     14  C   UNL     1      -3.109  -0.809   1.235  0.00  0.00    +0.027 C 
ATOM     15  C   UNL     1      -2.956   0.531   1.290  0.00  0.00    +0.037 C 
ATOM     16  C   UNL     1      -3.120   1.230   2.499  0.00  0.00    +0.162 C 
ATOM     17  O   UNL     1      -2.969   2.435   2.517  0.00  0.00    -0.292 OA
ATOM     18  C   UNL     1      -3.479   0.513   3.772  0.00  0.00    +0.080 C 
ATOM     19  C   UNL     1      -4.277  -0.749   3.426  0.00  0.00    +0.014 C 
ATOM     20  C   UNL     1      -3.440  -1.605   2.473  0.00  0.00    +0.052 C 
ATOM     21  C   UNL     1      -2.724  -2.856   0.058  0.00  0.00    +0.131 A 
ATOM     22  C   UNL     1      -1.421  -3.330   0.161  0.00  0.00    +0.046 A 
ATOM     23  C   UNL     1      -1.200  -4.695   0.169  0.00  0.00    +0.025 A 
ATOM     24  C   UNL     1      -2.296  -5.545   0.075  0.00  0.00    +0.059 A 
ATOM     25  C   UNL     1      -3.564  -5.003  -0.024  0.00  0.00    +0.133 A 
ATOM     26  N   UNL     1      -3.743  -3.696  -0.024  0.00  0.00    -0.238 NA
ATOM     27 CL   UNL     1      -2.074  -7.266   0.081  0.00  0.00    -0.082 Cl
ENDROOT
BRANCH  12  28
ATOM     28  N   UNL     1      -3.289  -1.510  -2.311  0.00  0.00    -0.345 N 
ATOM     29  H   UNL     1      -3.431  -1.034  -3.143  0.00  0.00    +0.144 HD
ATOM     30  H   UNL     1      -3.319  -2.480  -2.295  0.00  0.00    +0.144 HD
ENDBRANCH  12  28
BRANCH  11  31
ATOM     31  C   UNL     1      -2.979   1.220  -2.449  0.00  0.00    +0.100 C 
ATOM     32  N   UNL     1      -3.055   1.762  -3.445  0.00  0.00    -0.191 NA
ENDBRANCH  11  31
BRANCH   1  33
ATOM     33  C   UNL     1      -2.870   5.041   0.072  0.00  0.00    +0.140 C 
BRANCH  33  35
ATOM     34  C   UNL     1      -4.047   6.113  -1.779  0.00  0.00    +0.005 C 
ATOM     35  C   UNL     1      -2.952   5.538  -1.349  0.00  0.00    -0.015 C 
ENDBRANCH  33  35
ENDBRANCH   1  33
TORSDOF 4
