REMARK  Name = ZINC28637145
REMARK  9 active torsions:
REMARK  status: ('A' for Active; 'I' for Inactive)
REMARK    1  A    between atoms: C_1  and  C_2
REMARK    2  A    between atoms: C_3  and  C_33
REMARK    3  A    between atoms: N_4  and  C_26
REMARK    4  A    between atoms: C_5  and  N_9
REMARK    5  A    between atoms: C_6  and  C_7
REMARK    6  A    between atoms: C_10  and  C_12
REMARK    7  A    between atoms: C_12  and  N_13
REMARK    8  A    between atoms: N_16  and  C_19
REMARK    9  A    between atoms: C_24  and  O_25
REMARK                            x       y       z     vdW  Elec       q    Type
REMARK                         _______ _______ _______ _____ _____    ______ ____
ROOT
ATOM      1  N   UNL     1      -3.569   2.695   3.202  0.00  0.00    -0.272 N 
ATOM      2  C   UNL     1      -3.622   3.191   4.454  0.00  0.00    +0.202 C 
ATOM      3  O   UNL     1      -2.599   3.375   5.078  0.00  0.00    -0.278 OA
ATOM      4  H   UNL     1      -4.486   2.622   2.600  0.00  0.00    +0.156 HD
ENDROOT
BRANCH   1   9
ATOM      5  C   UNL     1       0.061  -0.019   0.966  0.00  0.00    +0.047 C 
ATOM      6  C   UNL     1      -0.694   1.079   1.669  0.00  0.00    -0.010 A 
ATOM      7  C   UNL     1      -0.204   2.268   2.057  0.00  0.00    +0.027 A 
ATOM      8  N   UNL     1      -1.199   2.992   2.662  0.00  0.00    -0.300 N 
ATOM      9  C   UNL     1      -2.356   2.278   2.673  0.00  0.00    +0.128 A 
ATOM     10  C   UNL     1      -2.111   1.059   2.056  0.00  0.00    +0.095 A 
ATOM     11  C   UNL     1       1.216   2.731   1.861  0.00  0.00    +0.064 C 
BRANCH   8  12
ATOM     12  C   UNL     1      -1.045   4.282   3.191  0.00  0.00    +0.048 A 
ATOM     13  C   UNL     1      -0.256   4.482   4.315  0.00  0.00    +0.029 A 
ATOM     14  C   UNL     1      -0.102   5.754   4.832  0.00  0.00    +0.040 A 
ATOM     15  C   UNL     1      -0.742   6.827   4.236  0.00  0.00    +0.124 A 
ATOM     16  C   UNL     1      -1.534   6.628   3.117  0.00  0.00    +0.040 A 
ATOM     17  C   UNL     1      -1.687   5.359   2.595  0.00  0.00    +0.029 A 
ATOM     18  F   UNL     1      -0.594   8.069   4.745  0.00  0.00    -0.205 F 
ENDBRANCH   8  12
BRANCH  10  19
ATOM     19  C   UNL     1      -3.047  -0.003   1.842  0.00  0.00    +0.103 C 
ATOM     20  N   UNL     1      -3.790  -0.846   1.673  0.00  0.00    -0.191 NA
ENDBRANCH  10  19
ENDBRANCH   1   9
BRANCH   2  21
ATOM     21  C   UNL     1      -4.955   3.517   5.079  0.00  0.00    +0.019 C 
BRANCH  21  22
ATOM     22  N   UNL     1      -4.744   4.038   6.436  0.00  0.00    +0.387 N 
ATOM     23  C   UNL     1      -4.192   3.001   7.319  0.00  0.00    -0.059 C 
ATOM     24  C   UNL     1      -3.914   3.604   8.698  0.00  0.00    +0.086 C 
ATOM     25  N   UNL     1      -5.160   4.152   9.250  0.00  0.00    -0.331 N 
ATOM     26  C   UNL     1      -5.713   5.189   8.368  0.00  0.00    +0.086 C 
ATOM     27  C   UNL     1      -5.991   4.587   6.989  0.00  0.00    -0.059 C 
ATOM     28  H   UNL     1      -4.012   4.856   6.373  0.00  0.00    -0.081 HD
BRANCH  25  29
ATOM     29  C   UNL     1      -4.960   4.649  10.544  0.00  0.00    +0.072 A 
ATOM     30  C   UNL     1      -4.102   5.718  10.753  0.00  0.00    +0.027 A 
ATOM     31  C   UNL     1      -3.909   6.210  12.030  0.00  0.00    +0.002 A 
ATOM     32  C   UNL     1      -4.563   5.632  13.103  0.00  0.00    +0.004 A 
ATOM     33  C   UNL     1      -5.416   4.562  12.902  0.00  0.00    +0.047 A 
ATOM     34  C   UNL     1      -5.618   4.067  11.625  0.00  0.00    +0.138 A 
BRANCH  34  35
ATOM     35  O   UNL     1      -6.456   3.014  11.427  0.00  0.00    -0.505 OA
ATOM     36  H   UNL     1      -6.975   2.556  12.281  0.00  0.00    +0.292 HD
ENDBRANCH  34  35
ENDBRANCH  25  29
ENDBRANCH  21  22
ENDBRANCH   2  21
TORSDOF 7
