REMARK  Name = ZINC39578293
REMARK  7 active torsions:
REMARK  status: ('A' for Active; 'I' for Inactive)
REMARK    1  A    between atoms: C_3  and  C_6
REMARK    2  A    between atoms: N_8  and  N_9
REMARK    3  A    between atoms: C_10  and  C_12
REMARK    4  A    between atoms: C_12  and  S_13
REMARK    5  A    between atoms: S_13  and  C_14
REMARK    6  A    between atoms: C_17  and  C_20
REMARK    7  A    between atoms: N_18  and  N_19
REMARK                            x       y       z     vdW  Elec       q    Type
REMARK                         _______ _______ _______ _____ _____    ______ ____
ROOT
ATOM      1  S   UNL     1       9.535  -0.824  -0.094  0.00  0.00    -0.075 S 
ENDROOT
BRANCH   1   2
ATOM      2  C   UNL     1      11.168  -0.164  -0.107  0.00  0.00    +0.209 A 
ATOM      3  N   UNL     1      11.497   1.107  -0.098  0.00  0.00    -0.121 NA
ATOM      4  N   UNL     1      12.776   1.228  -0.112  0.00  0.00    -0.132 NA
ATOM      5  C   UNL     1      13.336   0.051  -0.130  0.00  0.00    +0.154 A 
ATOM      6  N   UNL     1      12.332  -0.878  -0.122  0.00  0.00    -0.228 N 
BRANCH   5   7
ATOM      7  C   UNL     1      14.816  -0.233  -0.151  0.00  0.00    +0.059 C 
ATOM      8  C   UNL     1      15.468   0.365   1.097  0.00  0.00    +0.011 C 
ATOM      9  C   UNL     1      16.970   0.076   1.077  0.00  0.00    +0.001 C 
ATOM     10  C   UNL     1      17.592   0.702  -0.173  0.00  0.00    +0.000 C 
ATOM     11  C   UNL     1      16.941   0.103  -1.421  0.00  0.00    +0.001 C 
ATOM     12  C   UNL     1      15.438   0.392  -1.401  0.00  0.00    +0.011 C 
ENDBRANCH   5   7
BRANCH   6  13
ATOM     13  N   UNL     1      12.466  -2.237  -0.130  0.00  0.00    -0.295 N 
ATOM     14  H   UNL     1      12.493  -2.592  -1.074  0.00  0.00    +0.163 HD
ATOM     15  H   UNL     1      13.284  -2.523   0.387  0.00  0.00    +0.163 HD
ENDBRANCH   6  13
ENDBRANCH   1   2
BRANCH   1  16
ATOM     16  C   UNL     1       8.469   0.643  -0.076  0.00  0.00    +0.174 C 
BRANCH  16  18
ATOM     17  N   UNL     1       6.046   1.141  -0.050  0.00  0.00    -0.233 N 
ATOM     18  C   UNL     1       7.024   0.214  -0.065  0.00  0.00    +0.239 C 
ATOM     19  O   UNL     1       6.741  -0.965  -0.068  0.00  0.00    -0.273 OA
ATOM     20  H   UNL     1       6.272   2.085  -0.048  0.00  0.00    +0.173 HD
BRANCH  17  23
ATOM     21  C   UNL     1       3.725   1.670  -0.025  0.00  0.00    +0.267 C 
ATOM     22  O   UNL     1       4.008   2.853  -0.022  0.00  0.00    -0.268 OA
ATOM     23  N   UNL     1       4.703   0.743  -0.039  0.00  0.00    -0.230 N 
ATOM     24  H   UNL     1       4.477  -0.201  -0.042  0.00  0.00    +0.173 HD
BRANCH  21  27
ATOM     25  C   UNL     1      -0.016   1.352   0.009  0.00  0.00    +0.008 A 
ATOM     26  C   UNL     1       1.175   2.036   0.002  0.00  0.00    +0.021 A 
ATOM     27  C   UNL     1       2.320   1.253  -0.013  0.00  0.00    +0.075 A 
ATOM     28  S   UNL     1       1.636  -0.394  -0.016  0.00  0.00    -0.092 S 
ATOM     29  C   UNL     1       0.002  -0.004   0.002  0.00  0.00    +0.046 A 
ENDBRANCH  21  27
ENDBRANCH  17  23
ENDBRANCH  16  18
ENDBRANCH   1  16
TORSDOF 7
