REMARK  Name = ZINC28463316
REMARK  12 active torsions:
REMARK  status: ('A' for Active; 'I' for Inactive)
REMARK    1  A    between atoms: C_1  and  C_2
REMARK    2  A    between atoms: C_3  and  C_29
REMARK    3  A    between atoms: C_6  and  N_15
REMARK    4  A    between atoms: N_15  and  S_16
REMARK    5  A    between atoms: S_16  and  C_19
REMARK    6  A    between atoms: C_22  and  O_28
REMARK    7  A    between atoms: C_23  and  C_25
REMARK    8  A    between atoms: C_29  and  O_31
REMARK    9  A    between atoms: O_31  and  C_32
REMARK   10  A    between atoms: C_32  and  C_33
REMARK   11  A    between atoms: C_33  and  O_34
REMARK   12  A    between atoms: O_34  and  C_35
REMARK                            x       y       z     vdW  Elec       q    Type
REMARK                         _______ _______ _______ _____ _____    ______ ____
ROOT
ATOM      1  C   UNL     1      -4.111  -3.596  -6.781  0.00  0.00    +0.087 C 
ATOM      2  C   UNL     1      -3.802  -3.837  -5.326  0.00  0.00    +0.117 A 
ATOM      3  C   UNL     1      -2.596  -4.237  -4.835  0.00  0.00    +0.107 A 
ATOM      4  C   UNL     1      -2.773  -4.338  -3.372  0.00  0.00    +0.037 A 
ATOM      5  C   UNL     1      -1.921  -4.694  -2.317  0.00  0.00    +0.037 A 
ATOM      6  C   UNL     1      -2.373  -4.697  -1.030  0.00  0.00    +0.057 A 
ATOM      7  C   UNL     1      -3.714  -4.344  -0.750  0.00  0.00    +0.008 A 
ATOM      8  C   UNL     1      -4.197  -4.337   0.568  0.00  0.00    +0.010 A 
ATOM      9  C   UNL     1      -5.490  -3.988   0.812  0.00  0.00    +0.001 A 
ATOM     10  C   UNL     1      -6.344  -3.632  -0.229  0.00  0.00    +0.001 A 
ATOM     11  C   UNL     1      -5.908  -3.624  -1.519  0.00  0.00    +0.012 A 
ATOM     12  C   UNL     1      -4.581  -3.978  -1.807  0.00  0.00    +0.027 A 
ATOM     13  C   UNL     1      -4.098  -3.980  -3.133  0.00  0.00    +0.144 A 
ATOM     14  O   UNL     1      -4.670  -3.691  -4.320  0.00  0.00    -0.459 OA
ENDROOT
BRANCH   6  15
ATOM     15  N   UNL     1      -1.512  -5.053   0.010  0.00  0.00    -0.216 N 
ATOM     16  H   UNL     1      -1.897  -5.615   0.874  0.00  0.00    +0.174 HD
BRANCH  15  17
ATOM     17  S   UNL     1       0.088  -4.631  -0.057  0.00  0.00    +0.072 S 
ATOM     18  O   UNL     1       0.577  -5.090  -1.310  0.00  0.00    -0.150 OA
ATOM     19  O   UNL     1       0.665  -5.031   1.179  0.00  0.00    -0.150 OA
BRANCH  17  20
ATOM     20  C   UNL     1       0.161  -2.871  -0.101  0.00  0.00    +0.110 A 
ATOM     21  C   UNL     1       0.232  -2.154   1.082  0.00  0.00    +0.032 A 
ATOM     22  C   UNL     1       0.289  -0.775   1.061  0.00  0.00    +0.048 A 
ATOM     23  C   UNL     1       0.276  -0.097  -0.149  0.00  0.00    +0.131 A 
ATOM     24  C   UNL     1       0.198  -0.819  -1.349  0.00  0.00    +0.106 A 
ATOM     25  C   UNL     1       0.147  -2.215  -1.312  0.00  0.00    +0.047 A 
BRANCH  24  26
ATOM     26  C   UNL     1       0.176  -0.110  -2.641  0.00  0.00    +0.390 C 
ATOM     27  O   UNL     1       0.226   1.104  -2.668  0.00  0.00    -0.240 OA
ATOM     28  O   UNL     1       0.102  -0.807  -3.791  0.00  0.00    -0.240 OA
ENDBRANCH  24  26
BRANCH  23  29
ATOM     29  O   UNL     1       0.332   1.258  -0.172  0.00  0.00    -0.506 OA
ATOM     30  H   UNL     1       0.321   1.793  -1.133  0.00  0.00    +0.292 HD
ENDBRANCH  23  29
ENDBRANCH  17  20
ENDBRANCH  15  17
ENDBRANCH   6  15
BRANCH   3  31
ATOM     31  C   UNL     1      -1.372  -4.510  -5.601  0.00  0.00    +0.343 C 
ATOM     32  O   UNL     1      -1.156  -5.629  -6.023  0.00  0.00    -0.245 OA
BRANCH  31  33
ATOM     33  O   UNL     1      -0.489  -3.519  -5.836  0.00  0.00    -0.459 OA
BRANCH  33  34
ATOM     34  C   UNL     1       0.698  -3.861  -6.600  0.00  0.00    +0.260 C 
BRANCH  34  35
ATOM     35  C   UNL     1       1.575  -2.618  -6.764  0.00  0.00    +0.200 C 
BRANCH  35  36
ATOM     36  O   UNL     1       2.056  -2.203  -5.484  0.00  0.00    -0.380 OA
ATOM     37  C   UNL     1       2.890  -1.043  -5.525  0.00  0.00    +0.194 C 
ENDBRANCH  35  36
ENDBRANCH  34  35
ENDBRANCH  33  34
ENDBRANCH  31  33
ENDBRANCH   3  31
TORSDOF 10
