REMARK  Name = ZINC39691279
REMARK  6 active torsions:
REMARK  status: ('A' for Active; 'I' for Inactive)
REMARK    1  A    between atoms: C_1  and  C_2
REMARK    2  A    between atoms: C_7  and  C_8
REMARK    3  A    between atoms: C_8  and  C_9
REMARK    4  A    between atoms: C_9  and  N_10
REMARK    5  A    between atoms: C_11  and  C_13
REMARK    6  A    between atoms: C_24  and  C_26
REMARK                            x       y       z     vdW  Elec       q    Type
REMARK                         _______ _______ _______ _____ _____    ______ ____
ROOT
ATOM      1  C   UNL     1      -2.564   2.262   6.018  0.00  0.00    +0.100 C 
ATOM      2  C   UNL     1      -1.717   3.550   5.917  0.00  0.00    +0.121 C 
ATOM      3  N   UNL     1      -2.693   4.615   5.586  0.00  0.00    -0.295 N 
ATOM      4  C   UNL     1      -3.887   4.287   6.401  0.00  0.00    +0.115 C 
ATOM      5  C   UNL     1      -3.987   2.749   6.339  0.00  0.00    -0.004 C 
ATOM      6  C   UNL     1      -4.444   2.195   7.685  0.00  0.00    -0.010 C 
ATOM      7  C   UNL     1      -5.882   2.646   7.956  0.00  0.00    -0.082 C 
ATOM      8  N   UNL     1      -6.758   2.162   6.882  0.00  0.00    +0.379 N 
ATOM      9  C   UNL     1      -6.370   2.773   5.605  0.00  0.00    -0.082 C 
ATOM     10  C   UNL     1      -4.952   2.328   5.235  0.00  0.00    -0.010 C 
ATOM     11  C   UNL     1      -2.531   5.650   4.737  0.00  0.00    +0.265 C 
ATOM     12  O   UNL     1      -1.524   5.730   4.062  0.00  0.00    -0.268 OA
ATOM     13  H   UNL     1      -6.679   1.158   6.812  0.00  0.00    -0.086 HD
ATOM     14  H   UNL     1      -7.714   2.407   7.094  0.00  0.00    -0.086 HD
ENDROOT
BRANCH  11  15
ATOM     15  C   UNL     1      -3.582   6.689   4.627  0.00  0.00    +0.126 A 
ATOM     16  C   UNL     1      -3.453   7.694   3.656  0.00  0.00    +0.033 A 
ATOM     17  C   UNL     1      -4.414   8.657   3.544  0.00  0.00    +0.012 A 
ATOM     18  C   UNL     1      -5.515   8.604   4.420  0.00  0.00    +0.000 A 
ATOM     19  C   UNL     1      -6.540   9.562   4.360  0.00  0.00    +0.010 A 
ATOM     20  C   UNL     1      -7.590   9.480   5.223  0.00  0.00    +0.001 A 
ATOM     21  C   UNL     1      -7.662   8.457   6.167  0.00  0.00    +0.002 A 
ATOM     22  C   UNL     1      -6.688   7.512   6.255  0.00  0.00    +0.028 A 
ATOM     23  C   UNL     1      -5.586   7.562   5.380  0.00  0.00    +0.072 A 
ATOM     24  N   UNL     1      -4.620   6.646   5.440  0.00  0.00    -0.242 NA
ENDBRANCH  11  15
BRANCH   1  26
ATOM     25  N   UNL     1      -2.656   0.176   4.692  0.00  0.00    -0.315 N 
ATOM     26  C   UNL     1      -2.548   1.519   4.707  0.00  0.00    +0.218 C 
ATOM     27  O   UNL     1      -2.437   2.130   3.665  0.00  0.00    -0.275 OA
ATOM     28  H   UNL     1      -2.744  -0.313   5.525  0.00  0.00    +0.149 HD
BRANCH  25  29
ATOM     29  C   UNL     1      -2.640  -0.546   3.418  0.00  0.00    +0.109 C 
BRANCH  29  30
ATOM     30  C   UNL     1      -2.777  -2.047   3.680  0.00  0.00    +0.054 C 
BRANCH  30  37
ATOM     31  C   UNL     1      -0.260  -2.772   2.462  0.00  0.00    +0.044 C 
ATOM     32  C   UNL     1      -1.557  -3.137   1.786  0.00  0.00    -0.047 A 
ATOM     33  C   UNL     1      -1.542  -3.824   0.587  0.00  0.00    +0.003 A 
ATOM     34  C   UNL     1      -2.731  -4.159  -0.033  0.00  0.00    +0.000 A 
ATOM     35  C   UNL     1      -3.936  -3.807   0.547  0.00  0.00    +0.000 A 
ATOM     36  C   UNL     1      -3.951  -3.122   1.748  0.00  0.00    +0.004 A 
ATOM     37  C   UNL     1      -2.761  -2.791   2.369  0.00  0.00    -0.043 A 
ENDBRANCH  30  37
ENDBRANCH  29  30
ENDBRANCH  25  29
ENDBRANCH   1  26
TORSDOF 5
