REMARK  Name = ZINC40385294
REMARK  6 active torsions:
REMARK  status: ('A' for Active; 'I' for Inactive)
REMARK    1  A    between atoms: C_1  and  N_2
REMARK    2  A    between atoms: C_4  and  S_18
REMARK    3  A    between atoms: C_5  and  N_7
REMARK    4  A    between atoms: N_7  and  S_8
REMARK    5  A    between atoms: S_8  and  C_11
REMARK    6  A    between atoms: S_18  and  N_21
REMARK                            x       y       z     vdW  Elec       q    Type
REMARK                         _______ _______ _______ _____ _____    ______ ____
ROOT
ATOM      1  C   UNL     1      -0.018   1.461   0.010  0.00  0.00    +0.172 C 
ATOM      2  N   UNL     1       0.002  -0.004   0.002  0.00  0.00    -0.271 N 
ATOM      3  C   UNL     1       0.008  -0.791  -1.095  0.00  0.00    +0.138 A 
ATOM      4  C   UNL     1       0.028  -2.078  -0.681  0.00  0.00    +0.167 A 
ATOM      5  C   UNL     1       0.035  -2.080   0.723  0.00  0.00    +0.210 A 
ATOM      6  N   UNL     1       0.025  -0.833   1.131  0.00  0.00    -0.151 NA
ENDROOT
BRANCH   4   7
ATOM      7  S   UNL     1       0.043  -3.501  -1.720  0.00  0.00    +0.061 S 
ATOM      8  O   UNL     1      -0.968  -4.372  -1.232  0.00  0.00    -0.153 OA
ATOM      9  O   UNL     1       0.058  -3.026  -3.059  0.00  0.00    -0.153 OA
BRANCH   7  10
ATOM     10  N   UNL     1       1.489  -4.271  -1.476  0.00  0.00    -0.203 NA
ATOM     11  H   UNL     1       2.132  -3.907  -0.847  0.00  0.00    +0.144 HD
ATOM     12  H   UNL     1       1.693  -5.086  -1.961  0.00  0.00    +0.144 HD
ENDBRANCH   7  10
ENDBRANCH   4   7
BRANCH   5  13
ATOM     13  N   UNL     1       0.055  -3.214   1.544  0.00  0.00    -0.074 NA
BRANCH  13  14
ATOM     14  S   UNL     1       0.060  -3.043   3.191  0.00  0.00    +0.095 S 
ATOM     15  O   UNL     1       1.299  -2.436   3.532  0.00  0.00    -0.148 OA
ATOM     16  O   UNL     1      -1.191  -2.471   3.545  0.00  0.00    -0.148 OA
BRANCH  14  17
ATOM     17  C   UNL     1       0.087  -4.664   3.883  0.00  0.00    +0.137 A 
ATOM     18  C   UNL     1       1.174  -5.095   4.621  0.00  0.00    +0.058 A 
ATOM     19  C   UNL     1       1.161  -6.348   5.139  0.00  0.00    +0.081 A 
ATOM     20  S   UNL     1      -0.421  -6.961   4.585  0.00  0.00    -0.063 S 
ATOM     21  C   UNL     1      -0.962  -5.505   3.704  0.00  0.00    +0.106 A 
ATOM     22 CL   UNL     1      -2.444  -5.237   2.842  0.00  0.00    -0.074 Cl
ATOM     23 CL   UNL     1       2.371  -7.148   6.093  0.00  0.00    -0.076 Cl
ENDBRANCH  14  17
ENDBRANCH  13  14
ENDBRANCH   5  13
TORSDOF 5
