REMARK  Name = ZINC50957595
REMARK  5 active torsions:
REMARK  status: ('A' for Active; 'I' for Inactive)
REMARK    1  A    between atoms: C_1  and  N_2
REMARK    2  A    between atoms: N_2  and  C_3
REMARK    3  A    between atoms: N_2  and  S_12
REMARK    4  A    between atoms: C_3  and  C_4
REMARK    5  A    between atoms: S_12  and  C_15
REMARK                            x       y       z     vdW  Elec       q    Type
REMARK                         _______ _______ _______ _____ _____    ______ ____
ROOT
ATOM      1  C   UNL     1       0.024  -0.743   1.267  0.00  0.00    +0.185 C 
ENDROOT
BRANCH   1   2
ATOM      2  C   UNL     1      -1.384  -0.909   1.776  0.00  0.00    +0.152 A 
ATOM      3  N   UNL     1      -1.910   0.007   2.570  0.00  0.00    -0.198 NA
ATOM      4  C   UNL     1      -3.154  -0.135   3.021  0.00  0.00    +0.217 A 
ATOM      5  N   UNL     1      -3.867  -1.201   2.674  0.00  0.00    -0.181 NA
ATOM      6  C   UNL     1      -3.335  -2.120   1.876  0.00  0.00    +0.217 A 
ATOM      7  N   UNL     1      -2.092  -1.968   1.424  0.00  0.00    -0.198 NA
ATOM      8  N   UNL     1      -4.072  -3.229   1.512  0.00  0.00    -0.327 N 
ATOM      9  N   UNL     1      -3.703   0.822   3.850  0.00  0.00    -0.327 N 
ATOM     10  H   UNL     1      -4.978  -3.338   1.838  0.00  0.00    +0.145 HD
ATOM     11  H   UNL     1      -3.682  -3.900   0.929  0.00  0.00    +0.145 HD
ATOM     12  H   UNL     1      -3.181   1.600   4.104  0.00  0.00    +0.145 HD
ATOM     13  H   UNL     1      -4.609   0.718   4.179  0.00  0.00    +0.145 HD
ENDBRANCH   1   2
BRANCH   1  15
ATOM     14  C   UNL     1      -0.018   1.461   0.010  0.00  0.00    +0.132 C 
ATOM     15  N   UNL     1       0.002  -0.004   0.002  0.00  0.00    -0.172 NA
BRANCH  15  16
ATOM     16  S   UNL     1      -0.000  -0.824  -1.437  0.00  0.00    +0.067 S 
ATOM     17  O   UNL     1      -0.531  -2.115  -1.167  0.00  0.00    -0.152 OA
ATOM     18  O   UNL     1      -0.572   0.049  -2.401  0.00  0.00    -0.152 OA
BRANCH  16  19
ATOM     19  C   UNL     1       1.682  -1.059  -1.905  0.00  0.00    +0.144 A 
ATOM     20  C   UNL     1       2.512  -2.090  -1.615  0.00  0.00    +0.038 A 
ATOM     21  C   UNL     1       3.809  -2.063  -2.095  0.00  0.00    +0.030 A 
ATOM     22  C   UNL     1       4.210  -1.004  -2.842  0.00  0.00    +0.080 A 
ATOM     23  S   UNL     1       2.732  -0.005  -2.891  0.00  0.00    -0.057 S 
ATOM     24 CL   UNL     1       5.758  -0.703  -3.568  0.00  0.00    -0.076 Cl
ENDBRANCH  16  19
ENDBRANCH  15  16
ENDBRANCH   1  15
TORSDOF 4
