REMARK  Name = ZINC09614027
REMARK  7 active torsions:
REMARK  status: ('A' for Active; 'I' for Inactive)
REMARK    1  A    between atoms: C_4  and  C_7
REMARK    2  A    between atoms: C_7  and  C_9
REMARK    3  A    between atoms: C_7  and  N_15
REMARK    4  A    between atoms: C_9  and  N_60
REMARK    5  A    between atoms: C_16  and  C_18
REMARK    6  A    between atoms: N_21  and  S_24
REMARK    7  A    between atoms: S_24  and  C_27
REMARK                            x       y       z     vdW  Elec       q    Type
REMARK                         _______ _______ _______ _____ _____    ______ ____
ROOT
ATOM      1  N   UNL     1      -0.156   0.010  -0.052  0.00  0.00    -0.310 N 
ATOM      2  C   UNL     1      -1.305  -0.572  -0.447  0.00  0.00    +0.217 C 
ATOM      3  O   UNL     1      -2.262   0.113  -0.742  0.00  0.00    -0.275 OA
ATOM      4  H   UNL     1       0.609  -0.538   0.184  0.00  0.00    +0.149 HD
ENDROOT
BRANCH   2   5
ATOM      5  C   UNL     1      -1.402  -2.074  -0.522  0.00  0.00    +0.077 C 
ATOM      6  C   UNL     1      -0.360  -2.604  -1.510  0.00  0.00    +0.030 C 
ATOM      7  C   UNL     1      -0.438  -4.133  -1.558  0.00  0.00    +0.110 C 
ATOM      8  N   UNL     1      -1.819  -4.526  -1.869  0.00  0.00    -0.176 NA
ATOM      9  C   UNL     1      -2.908  -3.999  -1.037  0.00  0.00    +0.110 C 
ATOM     10  C   UNL     1      -2.803  -2.472  -0.995  0.00  0.00    +0.030 C 
BRANCH   8  11
ATOM     11  S   UNL     1      -2.140  -5.544  -3.136  0.00  0.00    +0.067 S 
ATOM     12  O   UNL     1      -0.955  -6.293  -3.366  0.00  0.00    -0.152 OA
ATOM     13  O   UNL     1      -3.389  -6.161  -2.854  0.00  0.00    -0.152 OA
BRANCH  11  14
ATOM     14  C   UNL     1      -2.387  -4.539  -4.562  0.00  0.00    +0.143 A 
ATOM     15  C   UNL     1      -1.476  -4.103  -5.467  0.00  0.00    +0.036 A 
ATOM     16  C   UNL     1      -1.902  -3.318  -6.522  0.00  0.00    +0.010 A 
ATOM     17  C   UNL     1      -3.216  -2.998  -6.615  0.00  0.00    +0.047 A 
ATOM     18  S   UNL     1      -3.899  -3.824  -5.186  0.00  0.00    -0.077 S 
ENDBRANCH  11  14
ENDBRANCH   8  11
ENDBRANCH   2   5
BRANCH   1  19
ATOM     19  C   UNL     1      -0.061   1.470   0.021  0.00  0.00    +0.087 C 
BRANCH  19  23
ATOM     20  C   UNL     1      -1.528   2.804   3.804  0.00  0.00    +0.000 A 
ATOM     21  C   UNL     1      -1.824   3.517   2.658  0.00  0.00    +0.000 A 
ATOM     22  C   UNL     1      -1.350   3.085   1.433  0.00  0.00    +0.005 A 
ATOM     23  C   UNL     1      -0.579   1.941   1.356  0.00  0.00    -0.029 A 
ATOM     24  C   UNL     1      -0.287   1.225   2.501  0.00  0.00    +0.005 A 
ATOM     25  C   UNL     1      -0.757   1.659   3.727  0.00  0.00    +0.000 A 
ENDBRANCH  19  23
BRANCH  19  26
ATOM     26  C   UNL     1       1.400   1.895  -0.139  0.00  0.00    -0.051 C 
BRANCH  26  32
ATOM     27  C   UNL     1       3.407   1.351  -1.380  0.00  0.00    -0.050 C 
ATOM     28  C   UNL     1       3.923   0.713  -2.673  0.00  0.00    +0.141 C 
ATOM     29  O   UNL     1       3.385   1.418  -3.795  0.00  0.00    -0.383 OA
ATOM     30  C   UNL     1       1.955   1.429  -3.835  0.00  0.00    +0.141 C 
ATOM     31  C   UNL     1       1.419   2.074  -2.554  0.00  0.00    -0.050 C 
ATOM     32  N   UNL     1       1.929   1.317  -1.393  0.00  0.00    +0.384 N 
ATOM     33  H   UNL     1       1.618   0.341  -1.467  0.00  0.00    -0.082 HD
ENDBRANCH  26  32
ENDBRANCH  19  26
ENDBRANCH   1  19
TORSDOF 7
