REMARK  Name = ZINC63857739
REMARK  7 active torsions:
REMARK  status: ('A' for Active; 'I' for Inactive)
REMARK    1  A    between atoms: C_4  and  C_7
REMARK    2  A    between atoms: N_9  and  C_10
REMARK    3  A    between atoms: C_10  and  C_18
REMARK    4  A    between atoms: C_11  and  C_12
REMARK    5  A    between atoms: N_20  and  C_21
REMARK    6  A    between atoms: C_21  and  C_22
REMARK    7  A    between atoms: C_22  and  C_23
REMARK                            x       y       z     vdW  Elec       q    Type
REMARK                         _______ _______ _______ _____ _____    ______ ____
ROOT
ATOM      1  C   UNL     1       4.959  -2.859   0.355  0.00  0.00    +0.097 C 
ATOM      2  C   UNL     1       6.050  -2.244  -0.155  0.00  0.00    +0.036 C 
ENDROOT
BRANCH   2   3
ATOM      3  C   UNL     1       6.123  -0.775  -0.176  0.00  0.00    -0.020 A 
ATOM      4  C   UNL     1       5.165   0.005   0.487  0.00  0.00    +0.027 A 
ATOM      5  C   UNL     1       5.274   1.379   0.440  0.00  0.00    +0.111 A 
ATOM      6  N   UNL     1       6.260   1.960  -0.216  0.00  0.00    -0.263 NA
ATOM      7  C   UNL     1       7.183   1.265  -0.854  0.00  0.00    +0.111 A 
ATOM      8  C   UNL     1       7.157  -0.114  -0.856  0.00  0.00    +0.027 A 
ENDBRANCH   2   3
BRANCH   1  11
ATOM      9  C   UNL     1       3.372  -2.096   1.950  0.00  0.00    +0.248 C 
ATOM     10  O   UNL     1       3.996  -2.662   2.826  0.00  0.00    -0.270 OA
ATOM     11  N   UNL     1       3.826  -2.113   0.681  0.00  0.00    -0.277 N 
ATOM     12  H   UNL     1       3.365  -1.606  -0.006  0.00  0.00    +0.155 HD
BRANCH   9  16
ATOM     13  C   UNL     1      -0.239  -0.065   2.886  0.00  0.00    +0.000 A 
ATOM     14  C   UNL     1       0.423  -0.781   3.868  0.00  0.00    +0.001 A 
ATOM     15  C   UNL     1       1.596  -1.443   3.571  0.00  0.00    +0.013 A 
ATOM     16  C   UNL     1       2.115  -1.390   2.276  0.00  0.00    +0.037 A 
ATOM     17  C   UNL     1       1.442  -0.666   1.290  0.00  0.00    +0.013 A 
ATOM     18  C   UNL     1       0.269  -0.009   1.601  0.00  0.00    +0.001 A 
ENDBRANCH   9  16
ENDBRANCH   1  11
BRANCH   1  19
ATOM     19  C   UNL     1       4.967  -4.317   0.568  0.00  0.00    +0.258 C 
ATOM     20  O   UNL     1       3.986  -4.870   1.027  0.00  0.00    -0.269 OA
ATOM     21  N   UNL     1       6.062  -5.037   0.254  0.00  0.00    -0.310 N 
ATOM     22  H   UNL     1       6.844  -4.596  -0.113  0.00  0.00    +0.149 HD
BRANCH  21  23
ATOM     23  C   UNL     1       6.070  -6.487   0.465  0.00  0.00    +0.109 C 
BRANCH  23  24
ATOM     24  C   UNL     1       7.421  -7.058   0.030  0.00  0.00    +0.052 C 
BRANCH  24  25
ATOM     25  C   UNL     1       7.429  -8.550   0.247  0.00  0.00    -0.040 C 
ATOM     26  C   UNL     1       7.144  -9.506  -0.666  0.00  0.00    -0.001 A 
ATOM     27  C   UNL     1       6.754  -9.447  -2.079  0.00  0.00    +0.010 A 
ATOM     28  C   UNL     1       6.529 -10.601  -2.747  0.00  0.00    +0.001 A 
ATOM     29  C   UNL     1       6.658 -11.850  -2.124  0.00  0.00    +0.002 A 
ATOM     30  C   UNL     1       7.012 -11.986  -0.828  0.00  0.00    +0.026 A 
ATOM     31  C   UNL     1       7.274 -10.837  -0.031  0.00  0.00    +0.043 A 
ATOM     32  N   UNL     1       7.625 -10.709   1.226  0.00  0.00    -0.380 N 
ATOM     33  C   UNL     1       7.764  -9.280   1.528  0.00  0.00    +0.144 C 
ATOM     34  H   UNL     1       7.772 -11.437   1.850  0.00  0.00    +0.160 HD
ENDBRANCH  24  25
ENDBRANCH  23  24
ENDBRANCH  21  23
ENDBRANCH   1  19
TORSDOF 7
