REMARK  Name = ZINC31056739
REMARK  8 active torsions:
REMARK  status: ('A' for Active; 'I' for Inactive)
REMARK    1  A    between atoms: C_1  and  C_2
REMARK    2  A    between atoms: C_2  and  C_3
REMARK    3  A    between atoms: C_2  and  C_4
REMARK    4  A    between atoms: C_9  and  N_10
REMARK    5  A    between atoms: C_11  and  C_13
REMARK    6  A    between atoms: N_18  and  C_20
REMARK    7  A    between atoms: C_20  and  C_21
REMARK    8  A    between atoms: C_23  and  C_26
REMARK                            x       y       z     vdW  Elec       q    Type
REMARK                         _______ _______ _______ _____ _____    ______ ____
ROOT
ATOM      1  C   UNL     1       0.005   5.620   0.038  0.00  0.00    +0.059 C 
ATOM      2  C   UNL     1       0.546   6.055  -1.327  0.00  0.00    +0.009 C 
ATOM      3  C   UNL     1       0.462   7.579  -1.439  0.00  0.00    -0.018 C 
ATOM      4  C   UNL     1      -0.990   8.022  -1.241  0.00  0.00    -0.078 C 
ATOM      5  N   UNL     1      -1.460   7.583   0.079  0.00  0.00    +0.386 N 
ATOM      6  C   UNL     1      -1.434   6.120   0.193  0.00  0.00    -0.065 C 
ATOM      7  H   UNL     1      -0.771   7.991   0.833  0.00  0.00    -0.081 HD
ENDROOT
BRANCH   1   9
ATOM      8  N   UNL     1       1.197   3.453   0.024  0.00  0.00    -0.285 N 
ATOM      9  C   UNL     1       0.029   4.117   0.133  0.00  0.00    +0.219 C 
ATOM     10  O   UNL     1      -1.003   3.504   0.309  0.00  0.00    -0.275 OA
ATOM     11  H   UNL     1       2.142   4.011  -0.043  0.00  0.00    +0.155 HD
BRANCH   8  17
ATOM     12  C   UNL     1       2.256   1.354   0.576  0.00  0.00    -0.024 A 
ATOM     13  C   UNL     1       2.263  -0.027   0.545  0.00  0.00    +0.006 A 
ATOM     14  C   UNL     1       1.226  -0.712  -0.060  0.00  0.00    +0.000 A 
ATOM     15  C   UNL     1       0.179  -0.018  -0.637  0.00  0.00    +0.002 A 
ATOM     16  C   UNL     1       0.166   1.363  -0.611  0.00  0.00    +0.023 A 
ATOM     17  C   UNL     1       1.206   2.054  -0.004  0.00  0.00    +0.037 A 
BRANCH  12  19
ATOM     18  C   UNL     1       3.392   1.792   2.736  0.00  0.00    +0.012 C 
ATOM     19  C   UNL     1       3.386   2.100   1.237  0.00  0.00    +0.015 C 
ATOM     20  C   UNL     1       4.716   1.661   0.621  0.00  0.00    +0.012 C 
ENDBRANCH  12  19
ENDBRANCH   8  17
ENDBRANCH   1   9
BRANCH   5  21
ATOM     21  C   UNL     1      -2.803   8.109   0.361  0.00  0.00    +0.022 C 
BRANCH  21  22
ATOM     22  C   UNL     1      -2.856   9.571  -0.002  0.00  0.00    +0.211 A 
ATOM     23  N   UNL     1      -3.182  10.071  -1.167  0.00  0.00    -0.192 NA
ATOM     24  C   UNL     1      -3.093  11.415  -1.023  0.00  0.00    +0.209 A 
ATOM     25  N   UNL     1      -2.712  11.646   0.209  0.00  0.00    -0.056 NA
ATOM     26  O   UNL     1      -2.573  10.599   0.805  0.00  0.00    -0.340 OA
BRANCH  24  27
ATOM     27  C   UNL     1      -3.367  12.428  -2.062  0.00  0.00    +0.060 A 
ATOM     28  C   UNL     1      -3.289  13.793  -1.978  0.00  0.00    +0.019 A 
ATOM     29  C   UNL     1      -3.595  14.544  -3.091  0.00  0.00    +0.008 A 
ATOM     30  C   UNL     1      -3.964  13.911  -4.235  0.00  0.00    +0.046 A 
ATOM     31  S   UNL     1      -3.878  12.193  -3.757  0.00  0.00    -0.093 S 
ENDBRANCH  24  27
ENDBRANCH  21  22
ENDBRANCH   5  21
TORSDOF 6
