REMARK  Name = ZINC30943288
REMARK  6 active torsions:
REMARK  status: ('A' for Active; 'I' for Inactive)
REMARK    1  A    between atoms: C_1  and  S_2
REMARK    2  A    between atoms: S_2  and  N_5
REMARK    3  A    between atoms: C_8  and  C_17
REMARK    4  A    between atoms: N_19  and  C_20
REMARK    5  A    between atoms: C_25  and  C_26
REMARK    6  A    between atoms: C_26  and  C_28
REMARK                            x       y       z     vdW  Elec       q    Type
REMARK                         _______ _______ _______ _____ _____    ______ ____
ROOT
ATOM      1  C   UNL     1      -0.015   1.245  -0.057  0.00  0.00    +0.258 C 
ATOM      2  O   UNL     1       0.014   0.032  -0.053  0.00  0.00    -0.271 OA
ATOM      3  N   UNL     1      -1.197   1.891  -0.022  0.00  0.00    -0.282 N 
ATOM      4  H   UNL     1      -1.223   2.986   0.072  0.00  0.00    +0.155 HD
ENDROOT
BRANCH   1   8
ATOM      5  N   UNL     1       3.855   3.029   1.030  0.00  0.00    -0.204 N 
ATOM      6  C   UNL     1       2.598   3.781   1.143  0.00  0.00    +0.135 C 
ATOM      7  C   UNL     1       1.417   2.829   1.181  0.00  0.00    +0.075 C 
ATOM      8  C   UNL     1       1.271   2.029  -0.106  0.00  0.00    +0.260 C 
ATOM      9  O   UNL     1       2.362   1.127  -0.279  0.00  0.00    -0.478 OA
ATOM     10  C   UNL     1       3.474   1.630  -0.894  0.00  0.00    +0.144 A 
ATOM     11  C   UNL     1       4.247   2.585  -0.241  0.00  0.00    +0.092 A 
ATOM     12  C   UNL     1       5.384   3.091  -0.849  0.00  0.00    +0.028 A 
ATOM     13  C   UNL     1       5.742   2.648  -2.110  0.00  0.00    +0.002 A 
ATOM     14  C   UNL     1       4.969   1.705  -2.761  0.00  0.00    +0.004 A 
ATOM     15  C   UNL     1       3.834   1.194  -2.156  0.00  0.00    +0.047 A 
BRANCH   5  17
ATOM     16  C   UNL     1       5.917   4.125   2.487  0.00  0.00    +0.218 C 
ATOM     17  S   UNL     1       4.783   2.715   2.365  0.00  0.00    +0.043 S 
ATOM     18  O   UNL     1       3.868   2.726   3.453  0.00  0.00    -0.155 OA
ATOM     19  O   UNL     1       5.503   1.534   2.037  0.00  0.00    -0.155 OA
ENDBRANCH   5  17
ENDBRANCH   1   8
BRANCH   3  20
ATOM     20  C   UNL     1      -2.387   1.171  -0.107  0.00  0.00    +0.044 A 
ATOM     21  C   UNL     1      -2.406  -0.074  -0.720  0.00  0.00    +0.025 A 
ATOM     22  C   UNL     1      -3.585  -0.789  -0.797  0.00  0.00    +0.022 A 
ATOM     23  C   UNL     1      -4.759  -0.266  -0.276  0.00  0.00    +0.042 A 
ATOM     24  C   UNL     1      -4.760   0.972   0.332  0.00  0.00    +0.033 A 
ATOM     25  C   UNL     1      -3.572   1.704   0.423  0.00  0.00    +0.045 A 
ATOM     26 CL   UNL     1      -6.234  -1.174  -0.388  0.00  0.00    -0.084 Cl
BRANCH  25  27
ATOM     27  C   UNL     1      -3.566   3.028   1.070  0.00  0.00    +0.195 C 
ATOM     28  O   UNL     1      -4.096   3.975   0.522  0.00  0.00    -0.287 OA
BRANCH  27  29
ATOM     29  C   UNL     1      -2.915   3.205   2.385  0.00  0.00    +0.022 A 
ATOM     30  C   UNL     1      -2.404   2.099   3.069  0.00  0.00    +0.012 A 
ATOM     31  C   UNL     1      -1.793   2.272   4.293  0.00  0.00    +0.001 A 
ATOM     32  C   UNL     1      -1.695   3.535   4.849  0.00  0.00    +0.000 A 
ATOM     33  C   UNL     1      -2.204   4.634   4.180  0.00  0.00    +0.001 A 
ATOM     34  C   UNL     1      -2.813   4.477   2.952  0.00  0.00    +0.012 A 
ENDBRANCH  27  29
ENDBRANCH  25  27
ENDBRANCH   3  20
TORSDOF 5
