REMARK  Name = ZINC67535750
REMARK  11 active torsions:
REMARK  status: ('A' for Active; 'I' for Inactive)
REMARK    1  A    between atoms: C_1  and  C_2
REMARK    2  A    between atoms: C_3  and  C_9
REMARK    3  A    between atoms: C_4  and  C_8
REMARK    4  A    between atoms: N_5  and  C_7
REMARK    5  A    between atoms: C_9  and  C_11
REMARK    6  A    between atoms: C_9  and  N_12
REMARK    7  A    between atoms: N_15  and  C_16
REMARK    8  A    between atoms: C_16  and  C_17
REMARK    9  A    between atoms: C_17  and  C_22
REMARK   10  A    between atoms: C_27  and  O_28
REMARK   11  A    between atoms: O_28  and  C_29
REMARK                            x       y       z     vdW  Elec       q    Type
REMARK                         _______ _______ _______ _____ _____    ______ ____
ROOT
ATOM      1  N   UNL     1      -0.034   1.708  -2.642  0.00  0.00    -0.293 N 
ATOM      2  C   UNL     1      -0.747   1.655  -3.785  0.00  0.00    +0.300 C 
ATOM      3  O   UNL     1      -0.580   0.737  -4.564  0.00  0.00    -0.253 OA
ATOM      4  N   UNL     1      -1.646   2.620  -4.063  0.00  0.00    -0.299 N 
ATOM      5  H   UNL     1      -0.168   2.440  -2.020  0.00  0.00    +0.151 HD
ATOM      6  H   UNL     1      -1.779   3.352  -3.442  0.00  0.00    +0.150 HD
ENDROOT
BRANCH   1   7
ATOM      7  C   UNL     1       0.943   0.658  -2.339  0.00  0.00    +0.105 C 
ATOM      8  C   UNL     1       2.299   1.037  -2.936  0.00  0.00    +0.033 C 
BRANCH   7  11
ATOM      9  C   UNL     1       0.960  -2.072  -0.731  0.00  0.00    +0.068 C 
ATOM     10  C   UNL     1       1.083  -0.693  -0.134  0.00  0.00    +0.065 A 
ATOM     11  C   UNL     1       1.075   0.511  -0.845  0.00  0.00    +0.016 A 
ATOM     12  C   UNL     1       1.207   1.521   0.046  0.00  0.00    +0.041 A 
ATOM     13  N   UNL     1       1.296   0.975   1.276  0.00  0.00    -0.271 N 
ATOM     14  N   UNL     1       1.210  -0.416   1.138  0.00  0.00    -0.176 NA
ATOM     15  C   UNL     1       1.449   1.708   2.536  0.00  0.00    +0.172 C 
ATOM     16  C   UNL     1       1.248   2.992  -0.279  0.00  0.00    +0.065 C 
ENDBRANCH   7  11
ENDBRANCH   1   7
BRANCH   4  17
ATOM     17  C   UNL     1      -2.421   2.563  -5.305  0.00  0.00    +0.117 C 
BRANCH  17  18
ATOM     18  C   UNL     1      -3.450   3.695  -5.317  0.00  0.00    +0.015 C 
ATOM     19  C   UNL     1      -2.741   5.055  -5.155  0.00  0.00    +0.013 C 
ATOM     20  C   UNL     1      -2.563   5.566  -6.606  0.00  0.00    +0.001 C 
ATOM     21  C   UNL     1      -3.879   5.119  -7.290  0.00  0.00    +0.001 C 
ATOM     22  C   UNL     1      -4.174   3.735  -6.674  0.00  0.00    +0.013 C 
BRANCH  18  23
ATOM     23  C   UNL     1      -4.448   3.496  -4.205  0.00  0.00    +0.002 A 
ATOM     24  C   UNL     1      -4.369   2.378  -3.397  0.00  0.00    +0.008 A 
ATOM     25  C   UNL     1      -5.284   2.195  -2.377  0.00  0.00    +0.001 A 
ATOM     26  C   UNL     1      -6.281   3.129  -2.164  0.00  0.00    +0.004 A 
ATOM     27  C   UNL     1      -6.364   4.248  -2.969  0.00  0.00    +0.046 A 
ATOM     28  C   UNL     1      -5.443   4.438  -3.989  0.00  0.00    +0.124 A 
BRANCH  28  29
ATOM     29  O   UNL     1      -5.519   5.541  -4.779  0.00  0.00    -0.495 OA
ATOM     30  C   UNL     1      -6.569   6.468  -4.498  0.00  0.00    +0.277 C 
ENDBRANCH  28  29
ENDBRANCH  18  23
ENDBRANCH  17  18
ENDBRANCH   4  17
TORSDOF 6
