REMARK  Name = ZINC01414251
REMARK  6 active torsions:
REMARK  status: ('A' for Active; 'I' for Inactive)
REMARK    1  A    between atoms: C_1  and  N_2
REMARK    2  A    between atoms: C_3  and  C_5
REMARK    3  A    between atoms: C_6  and  N_11
REMARK    4  A    between atoms: N_13  and  C_25
REMARK    5  A    between atoms: C_14  and  C_17
REMARK    6  A    between atoms: C_14  and  O_24
REMARK                            x       y       z     vdW  Elec       q    Type
REMARK                         _______ _______ _______ _____ _____    ______ ____
ROOT
ATOM      1  N   UNL     1       1.877  -2.585   3.064  0.00  0.00    -0.206 NA
ATOM      2  C   UNL     1       2.272  -3.482   3.946  0.00  0.00    +0.166 C 
ATOM      3  N   UNL     1       2.834  -3.263   5.179  0.00  0.00    -0.246 N 
ATOM      4  C   UNL     1       2.866  -4.340   6.150  0.00  0.00    +0.176 C 
ATOM      5  C   UNL     1       2.259  -5.656   5.610  0.00  0.00    +0.138 C 
ATOM      6  S   UNL     1       2.189  -5.263   3.814  0.00  0.00    -0.085 S 
ENDROOT
BRANCH   4   7
ATOM      7  C   UNL     1       2.094  -3.915   7.372  0.00  0.00    +0.022 A 
ATOM      8  C   UNL     1       1.412  -2.712   7.376  0.00  0.00    +0.009 A 
ATOM      9  C   UNL     1       0.704  -2.322   8.497  0.00  0.00    +0.000 A 
ATOM     10  C   UNL     1       0.677  -3.134   9.616  0.00  0.00    +0.001 A 
ATOM     11  C   UNL     1       1.359  -4.337   9.613  0.00  0.00    +0.020 A 
ATOM     12  C   UNL     1       2.063  -4.730   8.489  0.00  0.00    +0.049 A 
ATOM     13 CL   UNL     1       2.914  -6.244   8.483  0.00  0.00    -0.083 Cl
ENDBRANCH   4   7
BRANCH   1  15
ATOM     14  C   UNL     1       0.091  -2.430   1.385  0.00  0.00    +0.169 A 
ATOM     15  C   UNL     1       1.252  -2.978   1.936  0.00  0.00    +0.165 A 
ATOM     16  N   UNL     1       1.628  -3.996   1.097  0.00  0.00    -0.329 N 
ATOM     17  H   UNL     1       2.400  -4.573   1.207  0.00  0.00    +0.168 HD
ATOM     18  C   UNL     1       0.718  -4.050   0.082  0.00  0.00    +0.198 A 
ATOM     19  N   UNL     1      -0.187  -3.134   0.255  0.00  0.00    -0.229 NA
BRANCH  14  22
ATOM     20  C   UNL     1      -2.570   0.226   1.828  0.00  0.00    +0.128 C 
ATOM     21  N   UNL     1      -1.794  -0.893   1.286  0.00  0.00    -0.313 N 
ATOM     22  C   UNL     1      -0.684  -1.314   1.925  0.00  0.00    +0.266 C 
ATOM     23  O   UNL     1      -0.327  -0.765   2.951  0.00  0.00    -0.268 OA
ATOM     24  H   UNL     1      -2.078  -1.330   0.469  0.00  0.00    +0.149 HD
ENDBRANCH  14  22
ENDBRANCH   1  15
BRANCH   3  25
ATOM     25  C   UNL     1       3.372  -2.012   5.496  0.00  0.00    +0.039 A 
ATOM     26  C   UNL     1       4.051  -1.829   6.693  0.00  0.00    +0.023 A 
ATOM     27  C   UNL     1       4.582  -0.592   7.003  0.00  0.00    +0.002 A 
ATOM     28  C   UNL     1       4.436   0.464   6.123  0.00  0.00    +0.000 A 
ATOM     29  C   UNL     1       3.759   0.286   4.930  0.00  0.00    +0.002 A 
ATOM     30  C   UNL     1       3.232  -0.950   4.611  0.00  0.00    +0.023 A 
ENDBRANCH   3  25
BRANCH   4  31
ATOM     31  O   UNL     1       4.223  -4.579   6.528  0.00  0.00    -0.366 OA
ATOM     32  H   UNL     1       4.332  -5.287   7.177  0.00  0.00    +0.212 HD
ENDBRANCH   4  31
TORSDOF 5
