REMARK  Name = ZINC63097100
REMARK  4 active torsions:
REMARK  status: ('A' for Active; 'I' for Inactive)
REMARK    1  A    between atoms: C_4  and  S_7
REMARK    2  A    between atoms: S_7  and  N_10
REMARK    3  A    between atoms: N_10  and  N_11
REMARK    4  A    between atoms: C_12  and  C_23
REMARK                            x       y       z     vdW  Elec       q    Type
REMARK                         _______ _______ _______ _____ _____    ______ ____
ROOT
ATOM      1  N   UNL     1       3.529  -1.778   2.184  0.00  0.00    -0.189 N 
ATOM      2  C   UNL     1       2.359  -1.107   2.751  0.00  0.00    +0.222 C 
ATOM      3  N   UNL     1       1.978  -1.735   4.022  0.00  0.00    -0.321 N 
ATOM      4  C   UNL     1       1.956  -3.123   4.097  0.00  0.00    +0.041 A 
ATOM      5  C   UNL     1       1.094  -3.797   4.945  0.00  0.00    +0.024 A 
ATOM      6  C   UNL     1       1.109  -5.179   4.978  0.00  0.00    +0.002 A 
ATOM      7  C   UNL     1       1.979  -5.893   4.169  0.00  0.00    +0.001 A 
ATOM      8  C   UNL     1       2.845  -5.237   3.319  0.00  0.00    +0.015 A 
ATOM      9  C   UNL     1       2.841  -3.845   3.277  0.00  0.00    +0.059 A 
ATOM     10  C   UNL     1       3.748  -3.094   2.390  0.00  0.00    +0.265 C 
ATOM     11  O   UNL     1       4.685  -3.652   1.852  0.00  0.00    -0.268 OA
ATOM     12  H   UNL     1       1.748  -1.193   4.793  0.00  0.00    +0.148 HD
ENDROOT
BRANCH   2  13
ATOM     13  C   UNL     1       1.190  -1.211   1.769  0.00  0.00    +0.215 C 
ATOM     14  N   UNL     1       1.478  -0.431   0.559  0.00  0.00    -0.361 N 
ATOM     15  C   UNL     1       0.560   0.486   0.458  0.00  0.00    +0.060 A 
ATOM     16  C   UNL     1       0.317   1.552  -0.524  0.00  0.00    +0.027 A 
ATOM     17  C   UNL     1      -0.741   2.373  -0.366  0.00  0.00    +0.002 A 
ATOM     18  C   UNL     1      -1.636   2.257   0.712  0.00  0.00    +0.002 A 
ATOM     19  C   UNL     1      -1.504   1.316   1.669  0.00  0.00    +0.027 A 
ATOM     20  C   UNL     1      -0.387   0.363   1.599  0.00  0.00    +0.060 A 
ATOM     21  N   UNL     1      -0.019  -0.625   2.361  0.00  0.00    -0.361 N 
ATOM     22  H   UNL     1       2.217  -0.574  -0.053  0.00  0.00    +0.162 HD
ATOM     23  H   UNL     1      -0.462  -0.921   3.172  0.00  0.00    +0.162 HD
ENDBRANCH   2  13
BRANCH   1  24
ATOM     24  N   UNL     1       4.435  -1.043   1.409  0.00  0.00    -0.103 NA
ATOM     25  H   UNL     1       4.372  -1.061   0.442  0.00  0.00    +0.172 HD
BRANCH  24  26
ATOM     26  S   UNL     1       5.614  -0.142   2.145  0.00  0.00    +0.074 S 
ATOM     27  O   UNL     1       4.948   0.786   2.990  0.00  0.00    -0.152 OA
ATOM     28  O   UNL     1       6.511   0.266   1.122  0.00  0.00    -0.152 OA
BRANCH  26  32
ATOM     29  C   UNL     1       7.930  -2.929   4.859  0.00  0.00    +0.000 A 
ATOM     30  C   UNL     1       8.262  -2.834   3.520  0.00  0.00    +0.002 A 
ATOM     31  C   UNL     1       7.554  -1.983   2.692  0.00  0.00    +0.028 A 
ATOM     32  C   UNL     1       6.515  -1.228   3.201  0.00  0.00    +0.107 A 
ATOM     33  C   UNL     1       6.183  -1.323   4.540  0.00  0.00    +0.028 A 
ATOM     34  C   UNL     1       6.891  -2.173   5.369  0.00  0.00    +0.002 A 
ENDBRANCH  26  32
ENDBRANCH  24  26
ENDBRANCH   1  24
TORSDOF 4
