REMARK  Name = ZINC16855527
REMARK  5 active torsions:
REMARK  status: ('A' for Active; 'I' for Inactive)
REMARK    1  A    between atoms: C_1  and  C_2
REMARK    2  A    between atoms: C_2  and  C_17
REMARK    3  A    between atoms: C_3  and  C_4
REMARK    4  A    between atoms: C_5  and  N_14
REMARK    5  A    between atoms: C_20  and  N_23
REMARK                            x       y       z     vdW  Elec       q    Type
REMARK                         _______ _______ _______ _____ _____    ______ ____
ROOT
ATOM      1  C   UNL     1      -1.369   3.575  -0.583  0.00  0.00    +0.079 A 
ATOM      2  C   UNL     1      -1.334   2.195  -0.508  0.00  0.00    +0.213 A 
ATOM      3  C   UNL     1      -0.180   1.521  -0.949  0.00  0.00    +0.285 A 
ATOM      4  O   UNL     1      -0.121   0.305  -0.890  0.00  0.00    -0.265 OA
ATOM      5  N   UNL     1       0.856   2.226  -1.441  0.00  0.00    -0.273 N 
ATOM      6  H   UNL     1       1.674   1.746  -1.758  0.00  0.00    +0.173 HD
ATOM      7  C   UNL     1       0.806   3.568  -1.512  0.00  0.00    +0.327 A 
ATOM      8  O   UNL     1       1.758   4.177  -1.962  0.00  0.00    -0.247 OA
ATOM      9  N   UNL     1      -0.277   4.249  -1.096  0.00  0.00    -0.306 N 
ATOM     10  H   UNL     1      -0.292   5.247  -1.159  0.00  0.00    +0.170 HD
ENDROOT
BRANCH   1  13
ATOM     11  C   UNL     1      -1.125   6.323   0.116  0.00  0.00    +0.044 C 
ATOM     12  C   UNL     1      -2.469   5.641   0.092  0.00  0.00    -0.041 C 
ATOM     13  C   UNL     1      -2.548   4.311  -0.130  0.00  0.00    +0.032 C 
BRANCH  12  14
ATOM     14  C   UNL     1      -3.694   6.424   0.309  0.00  0.00    -0.022 A 
ATOM     15  C   UNL     1      -4.631   6.561  -0.722  0.00  0.00    +0.010 A 
ATOM     16  C   UNL     1      -5.780   7.290  -0.512  0.00  0.00    +0.023 A 
ATOM     17  C   UNL     1      -6.005   7.899   0.719  0.00  0.00    +0.025 A 
ATOM     18  C   UNL     1      -5.073   7.769   1.745  0.00  0.00    +0.023 A 
ATOM     19  C   UNL     1      -3.925   7.038   1.546  0.00  0.00    +0.010 A 
BRANCH  17  20
ATOM     20  N   UNL     1      -7.165   8.640   0.925  0.00  0.00    -0.358 N 
ATOM     21  H   UNL     1      -7.324   9.065   1.782  0.00  0.00    +0.142 HD
ATOM     22  H   UNL     1      -7.816   8.731   0.211  0.00  0.00    +0.142 HD
ENDBRANCH  17  20
ENDBRANCH  12  14
ENDBRANCH   1  13
BRANCH   2  23
ATOM     23  N   UNL     1      -2.487   1.440   0.031  0.00  0.00    +0.064 N 
ATOM     24  O   UNL     1      -3.435   2.036   0.511  0.00  0.00    -0.126 OA
ATOM     25  O   UNL     1      -2.489   0.222  -0.006  0.00  0.00    -0.126 OA
ENDBRANCH   2  23
TORSDOF 4
