REMARK  Name = ZINC13638949
REMARK  6 active torsions:
REMARK  status: ('A' for Active; 'I' for Inactive)
REMARK    1  A    between atoms: C_1  and  C_2
REMARK    2  A    between atoms: C_6  and  C_35
REMARK    3  A    between atoms: C_7  and  N_8
REMARK    4  A    between atoms: N_8  and  S_9
REMARK    5  A    between atoms: S_9  and  C_12
REMARK    6  A    between atoms: C_25  and  C_28
REMARK                            x       y       z     vdW  Elec       q    Type
REMARK                         _______ _______ _______ _____ _____    ______ ____
ROOT
ATOM      1  C   UNL     1       0.937  -2.578  -0.503  0.00  0.00    +0.109 A 
ATOM      2  C   UNL     1      -0.409  -2.466  -0.206  0.00  0.00    +0.030 A 
ATOM      3  C   UNL     1      -0.927  -1.262   0.225  0.00  0.00    +0.025 A 
ATOM      4  C   UNL     1      -0.101  -0.153   0.364  0.00  0.00    +0.031 A 
ATOM      5  C   UNL     1       1.263  -0.278   0.076  0.00  0.00    -0.018 A 
ATOM      6  C   UNL     1       1.768  -1.483  -0.362  0.00  0.00    +0.034 A 
ATOM      7  C   UNL     1       2.116   0.912   0.284  0.00  0.00    +0.049 C 
ATOM      8  C   UNL     1       3.370   1.127  -0.482  0.00  0.00    -0.023 C 
ATOM      9  C   UNL     1       3.560   2.433  -0.627  0.00  0.00    -0.030 C 
ATOM     10  C   UNL     1       2.405   3.204   0.015  0.00  0.00    +0.033 C 
ATOM     11  C   UNL     1       1.278   2.173  -0.082  0.00  0.00    +0.029 C 
ATOM     12  C   UNL     1       0.194   2.261   0.978  0.00  0.00    +0.105 C 
ATOM     13  N   UNL     1      -0.651   1.063   0.785  0.00  0.00    -0.336 N 
ATOM     14  H   UNL     1      -1.605   1.122   0.951  0.00  0.00    +0.147 HD
ENDROOT
BRANCH  12  15
ATOM     15  C   UNL     1       0.809   2.249   2.353  0.00  0.00    -0.027 A 
ATOM     16  C   UNL     1       0.993   1.051   3.017  0.00  0.00    +0.006 A 
ATOM     17  C   UNL     1       1.562   1.038   4.277  0.00  0.00    +0.015 A 
ATOM     18  C   UNL     1       1.938   2.226   4.877  0.00  0.00    +0.018 A 
ATOM     19  C   UNL     1       1.749   3.426   4.215  0.00  0.00    +0.015 A 
ATOM     20  C   UNL     1       1.185   3.437   2.953  0.00  0.00    +0.006 A 
ATOM     21 BR   UNL     1       2.710   2.211   6.603  0.00  0.00    -0.050 Br
ENDBRANCH  12  15
BRANCH   1  22
ATOM     22  S   UNL     1       1.591  -4.115  -1.064  0.00  0.00    +0.072 S 
ATOM     23  O   UNL     1       0.487  -4.883  -1.522  0.00  0.00    -0.150 OA
ATOM     24  O   UNL     1       2.701  -3.805  -1.895  0.00  0.00    -0.150 OA
BRANCH  22  25
ATOM     25  N   UNL     1       2.197  -4.901   0.262  0.00  0.00    -0.216 N 
ATOM     26  H   UNL     1       3.151  -5.059   0.338  0.00  0.00    +0.174 HD
BRANCH  25  33
ATOM     27  C   UNL     1       2.106  -3.416   2.686  0.00  0.00    +0.046 C 
ATOM     28  C   UNL     1       1.258  -4.642   2.470  0.00  0.00    -0.028 A 
ATOM     29  C   UNL     1       0.401  -5.074   3.463  0.00  0.00    +0.005 A 
ATOM     30  C   UNL     1      -0.374  -6.202   3.268  0.00  0.00    +0.001 A 
ATOM     31  C   UNL     1      -0.297  -6.900   2.076  0.00  0.00    +0.005 A 
ATOM     32  C   UNL     1       0.555  -6.471   1.077  0.00  0.00    -0.028 A 
ATOM     33  C   UNL     1       1.334  -5.338   1.270  0.00  0.00    +0.054 A 
ATOM     34  C   UNL     1       0.638  -7.232  -0.221  0.00  0.00    +0.046 C 
ENDBRANCH  25  33
ENDBRANCH  22  25
ENDBRANCH   1  22
TORSDOF 4
