REMARK  Name = ZINC19825902
REMARK  5 active torsions:
REMARK  status: ('A' for Active; 'I' for Inactive)
REMARK    1  A    between atoms: C_5  and  C_7
REMARK    2  A    between atoms: C_7  and  N_8
REMARK    3  A    between atoms: N_11  and  N_14
REMARK    4  A    between atoms: C_15  and  C_16
REMARK    5  A    between atoms: C_20  and  N_22
REMARK                            x       y       z     vdW  Elec       q    Type
REMARK                         _______ _______ _______ _____ _____    ______ ____
ROOT
ATOM      1  N   UNL     1       6.010  -2.249   1.119  0.00  0.00    -0.295 NA
ATOM      2  C   UNL     1       4.811  -3.083   0.957  0.00  0.00    +0.105 C 
ATOM      3  C   UNL     1       4.097  -2.699  -0.344  0.00  0.00    +0.141 C 
ATOM      4  N   UNL     1       3.849  -1.249  -0.330  0.00  0.00    -0.253 N 
ATOM      5  C   UNL     1       4.979  -0.352  -0.043  0.00  0.00    +0.141 C 
ATOM      6  C   UNL     1       5.657  -0.829   1.251  0.00  0.00    +0.105 C 
ENDROOT
BRANCH   4   7
ATOM      7  N   UNL     1       2.571  -0.736  -0.588  0.00  0.00    -0.192 NA
ATOM      8  C   UNL     1       1.574  -1.544  -0.778  0.00  0.00    +0.138 C 
BRANCH   8   9
ATOM      9  C   UNL     1       0.205  -1.009  -0.905  0.00  0.00    -0.003 A 
ATOM     10  C   UNL     1      -0.021   0.367  -0.819  0.00  0.00    +0.011 A 
ATOM     11  C   UNL     1      -1.304   0.861  -0.933  0.00  0.00    +0.023 A 
ATOM     12  C   UNL     1      -2.365  -0.004  -1.143  0.00  0.00    +0.071 A 
ATOM     13  C   UNL     1      -2.148  -1.369  -1.228  0.00  0.00    +0.145 A 
ATOM     14  C   UNL     1      -0.870  -1.875  -1.111  0.00  0.00    +0.043 A 
ATOM     15 CL   UNL     1      -3.976   0.626  -1.293  0.00  0.00    -0.081 Cl
BRANCH  13  16
ATOM     16  N   UNL     1      -3.289  -2.286  -1.447  0.00  0.00    +0.058 N 
ATOM     17  O   UNL     1      -3.099  -3.487  -1.522  0.00  0.00    -0.126 OA
ATOM     18  O   UNL     1      -4.418  -1.840  -1.551  0.00  0.00    -0.126 OA
ENDBRANCH  13  16
ENDBRANCH   8   9
ENDBRANCH   4   7
BRANCH   1  19
ATOM     19  C   UNL     1       6.815  -2.700   2.261  0.00  0.00    +0.121 C 
BRANCH  19  24
ATOM     20  C   UNL     1       9.077  -0.033   3.684  0.00  0.00    +0.000 A 
ATOM     21  C   UNL     1      10.134  -0.063   2.794  0.00  0.00    +0.001 A 
ATOM     22  C   UNL     1      10.117  -0.946   1.731  0.00  0.00    +0.020 A 
ATOM     23  C   UNL     1       9.043  -1.800   1.558  0.00  0.00    +0.045 A 
ATOM     24  C   UNL     1       7.986  -1.770   2.449  0.00  0.00    -0.015 A 
ATOM     25  C   UNL     1       8.001  -0.883   3.509  0.00  0.00    +0.006 A 
ATOM     26 CL   UNL     1       9.021  -2.909   0.222  0.00  0.00    -0.083 Cl
ENDBRANCH  19  24
ENDBRANCH   1  19
TORSDOF 5
