REMARK  Name = ZINC63560799
REMARK  7 active torsions:
REMARK  status: ('A' for Active; 'I' for Inactive)
REMARK    1  A    between atoms: C_1  and  C_2
REMARK    2  A    between atoms: C_4  and  C_26
REMARK    3  A    between atoms: N_6  and  C_13
REMARK    4  A    between atoms: C_13  and  C_14
REMARK    5  A    between atoms: C_14  and  C_15
REMARK    6  A    between atoms: C_18  and  O_24
REMARK    7  A    between atoms: O_24  and  C_25
REMARK                            x       y       z     vdW  Elec       q    Type
REMARK                         _______ _______ _______ _____ _____    ______ ____
ROOT
ATOM      1  C   UNL     1      -0.018   1.503   0.010  0.00  0.00    +0.067 C 
ATOM      2  C   UNL     1       0.002  -0.004   0.002  0.00  0.00    +0.064 C 
ATOM      3  C   UNL     1      -1.065  -0.759   0.003  0.00  0.00    +0.013 C 
ATOM      4  C   UNL     1      -2.515  -1.112  -0.230  0.00  0.00    +0.137 C 
ATOM      5  N   UNL     1      -2.429  -2.319  -1.089  0.00  0.00    -0.288 N 
ATOM      6  C   UNL     1      -1.228  -2.932  -0.898  0.00  0.00    +0.247 C 
ATOM      7  O   UNL     1      -0.819  -3.908  -1.490  0.00  0.00    -0.273 OA
ATOM      8  C   UNL     1      -0.503  -2.180   0.177  0.00  0.00    +0.243 C 
ATOM      9  N   UNL     1       0.925  -1.982   0.025  0.00  0.00    -0.170 NA
ATOM     10  N   UNL     1       1.131  -0.758  -0.013  0.00  0.00    -0.158 NA
ENDROOT
BRANCH   4  11
ATOM     11  C   UNL     1      -3.202  -1.429   1.074  0.00  0.00    -0.023 A 
ATOM     12  C   UNL     1      -3.016  -2.661   1.672  0.00  0.00    +0.007 A 
ATOM     13  C   UNL     1      -3.646  -2.951   2.867  0.00  0.00    +0.015 A 
ATOM     14  C   UNL     1      -4.463  -2.009   3.465  0.00  0.00    +0.018 A 
ATOM     15  C   UNL     1      -4.649  -0.776   2.866  0.00  0.00    +0.015 A 
ATOM     16  C   UNL     1      -4.014  -0.484   1.674  0.00  0.00    +0.007 A 
ATOM     17 BR   UNL     1      -5.325  -2.406   5.101  0.00  0.00    -0.050 Br
ENDBRANCH   4  11
BRANCH   5  18
ATOM     18  C   UNL     1      -3.477  -2.781  -2.002  0.00  0.00    +0.113 C 
BRANCH  18  19
ATOM     19  C   UNL     1      -3.269  -2.148  -3.379  0.00  0.00    +0.052 C 
BRANCH  19  20
ATOM     20  C   UNL     1      -4.347  -2.623  -4.319  0.00  0.00    -0.040 C 
ATOM     21  C   UNL     1      -5.508  -1.994  -4.610  0.00  0.00    +0.002 A 
ATOM     22  C   UNL     1      -6.094  -0.728  -4.157  0.00  0.00    +0.055 A 
ATOM     23  C   UNL     1      -7.304  -0.345  -4.631  0.00  0.00    +0.121 A 
ATOM     24  C   UNL     1      -8.029  -1.121  -5.552  0.00  0.00    +0.047 A 
ATOM     25  C   UNL     1      -7.573  -2.300  -6.027  0.00  0.00    +0.029 A 
ATOM     26  C   UNL     1      -6.273  -2.811  -5.580  0.00  0.00    +0.043 A 
ATOM     27  N   UNL     1      -5.612  -3.902  -5.876  0.00  0.00    -0.380 N 
ATOM     28  C   UNL     1      -4.346  -3.898  -5.133  0.00  0.00    +0.144 C 
ATOM     29  H   UNL     1      -5.907  -4.594  -6.488  0.00  0.00    +0.160 HD
BRANCH  23  30
ATOM     30  O   UNL     1      -7.835   0.831  -4.203  0.00  0.00    -0.495 OA
ATOM     31  C   UNL     1      -9.113   1.196  -4.729  0.00  0.00    +0.277 C 
ENDBRANCH  23  30
ENDBRANCH  19  20
ENDBRANCH  18  19
ENDBRANCH   5  18
TORSDOF 5
