REMARK  Name = ZINC62566416
REMARK  14 active torsions:
REMARK  status: ('A' for Active; 'I' for Inactive)
REMARK    1  A    between atoms: C_1  and  C_2
REMARK    2  A    between atoms: C_2  and  C_3
REMARK    3  A    between atoms: C_2  and  C_4
REMARK    4  A    between atoms: C_2  and  O_5
REMARK    5  A    between atoms: O_5  and  C_6
REMARK    6  A    between atoms: N_8  and  C_9
REMARK    7  A    between atoms: C_9  and  C_10
REMARK    8  A    between atoms: N_16  and  C_17
REMARK    9  A    between atoms: C_17  and  C_18
REMARK   10  A    between atoms: C_23  and  C_26
REMARK   11  A    between atoms: C_29  and  O_34
REMARK   12  A    between atoms: C_31  and  O_32
REMARK   13  A    between atoms: O_32  and  C_33
REMARK   14  A    between atoms: O_34  and  C_35
REMARK                            x       y       z     vdW  Elec       q    Type
REMARK                         _______ _______ _______ _____ _____    ______ ____
ROOT
ATOM      1  C   UNL     1       1.257  -0.024  -5.743  0.00  0.00    +0.202 C 
ATOM      2  O   UNL     1       1.714   0.552  -6.707  0.00  0.00    -0.277 OA
ATOM      3  N   UNL     1      -0.073  -0.219  -5.642  0.00  0.00    -0.266 N 
ATOM      4  C   UNL     1      -0.920   0.240  -6.643  0.00  0.00    +0.165 A 
ATOM      5  N   UNL     1      -2.235   0.155  -6.728  0.00  0.00    -0.224 NA
ATOM      6  C   UNL     1      -2.890   0.653  -7.765  0.00  0.00    +0.084 A 
ATOM      7  C   UNL     1      -2.193   1.268  -8.767  0.00  0.00    +0.077 A 
ATOM      8  S   UNL     1      -0.521   1.109  -8.152  0.00  0.00    -0.060 S 
ATOM      9  H   UNL     1      -0.438  -0.680  -4.870  0.00  0.00    +0.157 HD
ENDROOT
BRANCH   6  10
ATOM     10  C   UNL     1      -4.368   0.545  -7.840  0.00  0.00    +0.043 A 
ATOM     11  C   UNL     1      -5.052   1.066  -8.936  0.00  0.00    +0.017 A 
ATOM     12  C   UNL     1      -6.426   0.964  -9.002  0.00  0.00    +0.046 A 
ATOM     13  C   UNL     1      -7.131   0.343  -7.979  0.00  0.00    +0.124 A 
ATOM     14  C   UNL     1      -6.457  -0.178  -6.885  0.00  0.00    +0.092 A 
ATOM     15  C   UNL     1      -5.077  -0.085  -6.812  0.00  0.00    +0.133 A 
BRANCH  15  16
ATOM     16  O   UNL     1      -4.415  -0.599  -5.743  0.00  0.00    -0.494 OA
ATOM     17  C   UNL     1      -5.205  -1.228  -4.732  0.00  0.00    +0.277 C 
ENDBRANCH  15  16
BRANCH  13  18
ATOM     18  O   UNL     1      -8.484   0.245  -8.051  0.00  0.00    -0.495 OA
ATOM     19  C   UNL     1      -9.115   0.803  -9.205  0.00  0.00    +0.277 C 
ENDBRANCH  13  18
ENDBRANCH   6  10
BRANCH   1  20
ATOM     20  C   UNL     1       2.176  -0.522  -4.657  0.00  0.00    +0.019 C 
BRANCH  20  26
ATOM     21  C   UNL     1       4.441  -0.524  -3.872  0.00  0.00    -0.050 C 
ATOM     22  C   UNL     1       5.877  -0.103  -4.193  0.00  0.00    -0.014 C 
ATOM     23  C   UNL     1       6.351  -0.843  -5.447  0.00  0.00    -0.003 C 
ATOM     24  C   UNL     1       5.387  -0.545  -6.599  0.00  0.00    -0.019 C 
ATOM     25  C   UNL     1       3.970  -0.949  -6.189  0.00  0.00    -0.078 C 
ATOM     26  N   UNL     1       3.565  -0.188  -5.001  0.00  0.00    +0.388 N 
ATOM     27  H   UNL     1       3.633   0.800  -5.196  0.00  0.00    -0.081 HD
BRANCH  21  28
ATOM     28  C   UNL     1       3.962   0.213  -2.619  0.00  0.00    +0.092 C 
BRANCH  28  31
ATOM     29  C   UNL     1       3.374   2.487  -1.972  0.00  0.00    +0.401 C 
ATOM     30  O   UNL     1       2.996   2.054  -0.901  0.00  0.00    -0.226 OA
ATOM     31  N   UNL     1       3.874   1.648  -2.900  0.00  0.00    -0.283 N 
ATOM     32  H   UNL     1       4.175   1.994  -3.755  0.00  0.00    +0.152 HD
BRANCH  29  33
ATOM     33  O   UNL     1       3.292   3.806  -2.230  0.00  0.00    -0.445 OA
BRANCH  33  35
ATOM     34  C   UNL     1       3.615   4.517   0.057  0.00  0.00    +0.055 C 
ATOM     35  C   UNL     1       2.752   4.637  -1.201  0.00  0.00    +0.107 C 
ATOM     36  C   UNL     1       1.323   4.191  -0.883  0.00  0.00    +0.055 C 
ATOM     37  C   UNL     1       2.740   6.092  -1.674  0.00  0.00    +0.055 C 
ENDBRANCH  33  35
ENDBRANCH  29  33
ENDBRANCH  28  31
ENDBRANCH  21  28
ENDBRANCH  20  26
ENDBRANCH   1  20
TORSDOF 9
