REMARK  Name = ZINC14536791
REMARK  8 active torsions:
REMARK  status: ('A' for Active; 'I' for Inactive)
REMARK    1  A    between atoms: C_1  and  N_2
REMARK    2  A    between atoms: C_3  and  C_5
REMARK    3  A    between atoms: N_8  and  C_10
REMARK    4  A    between atoms: C_10  and  C_11
REMARK    5  A    between atoms: C_19  and  N_66
REMARK    6  A    between atoms: C_22  and  C_23
REMARK    7  A    between atoms: C_22  and  N_66
REMARK    8  A    between atoms: C_23  and  O_29
REMARK                            x       y       z     vdW  Elec       q    Type
REMARK                         _______ _______ _______ _____ _____    ______ ____
ROOT
ATOM      1  C   UNL     1       2.108  -2.933   1.269  0.00  0.00    +0.150 A 
ATOM      2  C   UNL     1       1.124  -1.986   0.938  0.00  0.00    +0.004 A 
ATOM      3  C   UNL     1      -0.036  -2.679   0.827  0.00  0.00    +0.043 A 
ATOM      4  N   UNL     1       0.245  -3.969   1.075  0.00  0.00    -0.267 N 
ATOM      5  N   UNL     1       1.501  -4.105   1.333  0.00  0.00    -0.166 NA
ATOM      6  C   UNL     1      -1.362  -2.049   0.487  0.00  0.00    +0.054 C 
ATOM      7  C   UNL     1      -1.248  -0.535   0.709  0.00  0.00    -0.009 C 
ATOM      8  C   UNL     1       0.002  -0.004   0.002  0.00  0.00    -0.067 C 
ATOM      9  C   UNL     1       1.256  -0.503   0.734  0.00  0.00    +0.023 C 
ENDROOT
BRANCH   1  12
ATOM     10  C   UNL     1       5.796  -3.423   2.041  0.00  0.00    +0.128 C 
ATOM     11  N   UNL     1       4.373  -3.684   1.812  0.00  0.00    -0.313 N 
ATOM     12  C   UNL     1       3.543  -2.669   1.500  0.00  0.00    +0.264 C 
ATOM     13  O   UNL     1       3.976  -1.536   1.409  0.00  0.00    -0.268 OA
ATOM     14  H   UNL     1       4.028  -4.588   1.884  0.00  0.00    +0.149 HD
ENDBRANCH   1  12
BRANCH   8  15
ATOM     15  N   UNL     1      -0.013   1.471   0.017  0.00  0.00    +0.383 N 
ATOM     16  H   UNL     1       0.950   1.820  -0.053  0.00  0.00    -0.085 HD
ATOM     17  H   UNL     1      -0.432   1.796   0.897  0.00  0.00    -0.085 HD
BRANCH  15  18
ATOM     18  C   UNL     1      -0.802   1.987  -1.117  0.00  0.00    -0.047 C 
BRANCH  18  19
ATOM     19  C   UNL     1      -0.799   3.516  -1.075  0.00  0.00    +0.051 C 
ATOM     20  C   UNL     1      -1.304   3.990   0.289  0.00  0.00    +0.033 C 
ATOM     21  C   UNL     1      -1.301   5.519   0.332  0.00  0.00    +0.003 C 
ATOM     22  C   UNL     1      -2.218   6.061  -0.767  0.00  0.00    +0.000 C 
ATOM     23  C   UNL     1      -1.714   5.588  -2.132  0.00  0.00    +0.003 C 
ATOM     24  C   UNL     1      -1.716   4.058  -2.174  0.00  0.00    +0.033 C 
BRANCH  19  25
ATOM     25  O   UNL     1       0.530   3.997  -1.285  0.00  0.00    -0.390 OA
ATOM     26  H   UNL     1       1.167   3.692  -0.624  0.00  0.00    +0.210 HD
ENDBRANCH  19  25
ENDBRANCH  18  19
ENDBRANCH  15  18
ENDBRANCH   8  15
BRANCH   4  27
ATOM     27  C   UNL     1      -0.731  -5.061   1.057  0.00  0.00    +0.147 C 
BRANCH  27  28
ATOM     28  C   UNL     1      -1.335  -5.228   2.453  0.00  0.00    +0.010 C 
ATOM     29  C   UNL     1      -0.246  -5.676   3.429  0.00  0.00    +0.005 C 
ATOM     30  C   UNL     1      -0.850  -5.844   4.825  0.00  0.00    +0.000 C 
ATOM     31  C   UNL     1      -1.958  -6.898   4.778  0.00  0.00    +0.000 C 
ATOM     32  C   UNL     1      -3.047  -6.450   3.801  0.00  0.00    +0.000 C 
ATOM     33  C   UNL     1      -2.443  -6.282   2.406  0.00  0.00    +0.005 C 
ENDBRANCH  27  28
ENDBRANCH   4  27
TORSDOF 7
