REMARK  Name = ZINC64093207
REMARK  8 active torsions:
REMARK  status: ('A' for Active; 'I' for Inactive)
REMARK    1  A    between atoms: C_1  and  O_2
REMARK    2  A    between atoms: O_2  and  C_3
REMARK    3  A    between atoms: C_3  and  C_4
REMARK    4  A    between atoms: C_7  and  C_9
REMARK    5  A    between atoms: C_9  and  N_10
REMARK    6  A    between atoms: C_23  and  C_25
REMARK    7  A    between atoms: C_29  and  O_31
REMARK    8  A    between atoms: O_31  and  C_32
REMARK                            x       y       z     vdW  Elec       q    Type
REMARK                         _______ _______ _______ _____ _____    ______ ____
ROOT
ATOM      1  N   UNL     1       2.890  -5.791  -1.048  0.00  0.00    -0.286 NA
ATOM      2  C   UNL     1       3.882  -4.762  -1.373  0.00  0.00    +0.090 C 
ATOM      3  C   UNL     1       4.685  -5.171  -2.621  0.00  0.00    +0.049 C 
ATOM      4  C   UNL     1       5.158  -6.582  -2.373  0.00  0.00    -0.035 C 
ATOM      5  C   UNL     1       6.347  -7.157  -2.478  0.00  0.00    -0.001 A 
ATOM      6  C   UNL     1       7.630  -6.669  -3.009  0.00  0.00    +0.010 A 
ATOM      7  C   UNL     1       8.677  -7.533  -2.937  0.00  0.00    +0.001 A 
ATOM      8  C   UNL     1       8.577  -8.819  -2.397  0.00  0.00    +0.002 A 
ATOM      9  C   UNL     1       7.435  -9.354  -1.897  0.00  0.00    +0.026 A 
ATOM     10  C   UNL     1       6.263  -8.544  -1.926  0.00  0.00    +0.043 A 
ATOM     11  N   UNL     1       5.047  -8.810  -1.547  0.00  0.00    -0.376 N 
ATOM     12  C   UNL     1       4.203  -7.664  -1.877  0.00  0.00    +0.128 C 
ATOM     13  C   UNL     1       3.491  -7.077  -0.657  0.00  0.00    +0.114 C 
ATOM     14  H   UNL     1       4.752  -9.629  -1.118  0.00  0.00    +0.160 HD
ENDROOT
BRANCH  13  15
ATOM     15  C   UNL     1       2.412  -8.021  -0.194  0.00  0.00    -0.025 A 
ATOM     16  C   UNL     1       1.203  -8.072  -0.864  0.00  0.00    +0.005 A 
ATOM     17  C   UNL     1       0.212  -8.937  -0.442  0.00  0.00    +0.004 A 
ATOM     18  C   UNL     1       0.426  -9.755   0.651  0.00  0.00    +0.045 A 
ATOM     19  C   UNL     1       1.637  -9.706   1.325  0.00  0.00    +0.120 A 
ATOM     20  C   UNL     1       2.633  -8.841   0.896  0.00  0.00    +0.051 A 
BRANCH  19  21
ATOM     21  O   UNL     1       1.850 -10.509   2.401  0.00  0.00    -0.495 OA
ATOM     22  C   UNL     1       0.783 -11.379   2.783  0.00  0.00    +0.277 C 
ENDBRANCH  19  21
ENDBRANCH  13  15
BRANCH   1  23
ATOM     23  C   UNL     1       1.953  -5.314  -0.023  0.00  0.00    +0.159 C 
BRANCH  23  27
ATOM     24  C   UNL     1       0.614  -2.074  -1.042  0.00  0.00    +0.131 A 
ATOM     25  C   UNL     1      -0.354  -2.869  -1.534  0.00  0.00    +0.047 A 
ATOM     26  C   UNL     1       0.011  -4.199  -1.222  0.00  0.00    +0.046 A 
ATOM     27  C   UNL     1       1.179  -4.137  -0.558  0.00  0.00    +0.119 A 
ATOM     28  O   UNL     1       1.543  -2.848  -0.458  0.00  0.00    -0.461 OA
BRANCH  24  29
ATOM     29  C   UNL     1       0.652  -0.570  -1.138  0.00  0.00    +0.233 C 
BRANCH  29  31
ATOM     30  C   UNL     1      -0.017   1.425   0.010  0.00  0.00    +0.194 C 
ATOM     31  O   UNL     1       0.002  -0.004   0.002  0.00  0.00    -0.375 OA
ENDBRANCH  29  31
ENDBRANCH  24  29
ENDBRANCH  23  27
ENDBRANCH   1  23
TORSDOF 6
