REMARK  Name = ZINC35843616
REMARK  9 active torsions:
REMARK  status: ('A' for Active; 'I' for Inactive)
REMARK    1  A    between atoms: C_1  and  C_2
REMARK    2  A    between atoms: C_5  and  C_8
REMARK    3  A    between atoms: C_8  and  N_9
REMARK    4  A    between atoms: N_9  and  C_10
REMARK    5  A    between atoms: N_9  and  C_26
REMARK    6  A    between atoms: C_10  and  C_11
REMARK    7  A    between atoms: C_17  and  C_19
REMARK    8  A    between atoms: C_26  and  C_27
REMARK    9  A    between atoms: C_26  and  C_28
REMARK                            x       y       z     vdW  Elec       q    Type
REMARK                         _______ _______ _______ _____ _____    ______ ____
ROOT
ATOM      1  C   UNL     1       1.044  -5.916   0.012  0.00  0.00    +0.020 C 
ENDROOT
BRANCH   1   2
ATOM      2  C   UNL     1       2.355  -6.621   0.245  0.00  0.00    +0.200 C 
ATOM      3  O   UNL     1       3.375  -5.978   0.372  0.00  0.00    -0.278 OA
ATOM      4  N   UNL     1       2.394  -7.967   0.311  0.00  0.00    -0.286 N 
ATOM      5  C   UNL     1       1.194  -8.784   0.158  0.00  0.00    +0.120 C 
ATOM      6  C   UNL     1       1.299 -10.087   1.003  0.00  0.00    +0.090 C 
ATOM      7  S   UNL     1       3.091 -10.447   0.722  0.00  0.00    -0.132 S 
ATOM      8  C   UNL     1       3.653  -8.701   0.537  0.00  0.00    +0.164 C 
BRANCH   8   9
ATOM      9  C   UNL     1       4.573  -8.559  -0.648  0.00  0.00    -0.017 A 
ATOM     10  C   UNL     1       4.046  -8.388  -1.914  0.00  0.00    +0.009 A 
ATOM     11  C   UNL     1       4.889  -8.256  -3.002  0.00  0.00    +0.039 A 
ATOM     12  C   UNL     1       6.261  -8.296  -2.822  0.00  0.00    +0.123 A 
ATOM     13  C   UNL     1       6.788  -8.467  -1.553  0.00  0.00    +0.039 A 
ATOM     14  C   UNL     1       5.943  -8.593  -0.467  0.00  0.00    +0.009 A 
ATOM     15  F   UNL     1       7.086  -8.168  -3.885  0.00  0.00    -0.205 F 
ENDBRANCH   8   9
ENDBRANCH   1   2
BRANCH   1  16
ATOM     16  N   UNL     1       1.291  -4.486  -0.219  0.00  0.00    +0.390 N 
ATOM     17  H   UNL     1       2.018  -4.166   0.403  0.00  0.00    -0.080 HD
BRANCH  16  18
ATOM     18  C   UNL     1       1.711  -4.281  -1.611  0.00  0.00    -0.074 C 
ATOM     19  C   UNL     1       3.066  -4.953  -1.840  0.00  0.00    -0.013 C 
ATOM     20  C   UNL     1       0.672  -4.894  -2.553  0.00  0.00    -0.013 C 
ENDBRANCH  16  18
BRANCH  16  21
ATOM     21  C   UNL     1       0.059  -3.729   0.038  0.00  0.00    -0.042 C 
BRANCH  21  26
ATOM     22  C   UNL     1       1.150   1.930  -0.384  0.00  0.00    +0.044 C 
ATOM     23  C   UNL     1       0.866   0.454  -0.274  0.00  0.00    -0.050 A 
ATOM     24  C   UNL     1       0.349  -0.232  -1.356  0.00  0.00    +0.003 A 
ATOM     25  C   UNL     1       0.088  -1.586  -1.256  0.00  0.00    +0.002 A 
ATOM     26  C   UNL     1       0.344  -2.253  -0.072  0.00  0.00    -0.064 A 
ATOM     27  C   UNL     1       0.862  -1.567   1.010  0.00  0.00    +0.002 A 
ATOM     28  C   UNL     1       1.127  -0.214   0.908  0.00  0.00    +0.003 A 
ENDBRANCH  21  26
ENDBRANCH  16  21
ENDBRANCH   1  16
TORSDOF 6
