REMARK  Name = ZINC26254259
REMARK  10 active torsions:
REMARK  status: ('A' for Active; 'I' for Inactive)
REMARK    1  A    between atoms: C_1  and  C_2
REMARK    2  A    between atoms: C_2  and  C_3
REMARK    3  A    between atoms: C_5  and  C_33
REMARK    4  A    between atoms: C_7  and  C_32
REMARK    5  A    between atoms: C_8  and  C_12
REMARK    6  A    between atoms: N_14  and  N_15
REMARK    7  A    between atoms: C_16  and  C_18
REMARK    8  A    between atoms: C_18  and  C_20
REMARK    9  A    between atoms: C_18  and  O_21
REMARK   10  A    between atoms: O_21  and  C_22
REMARK                            x       y       z     vdW  Elec       q    Type
REMARK                         _______ _______ _______ _____ _____    ______ ____
ROOT
ATOM      1  C   UNL     1      10.232   3.890   1.553  0.00  0.00    +0.267 C 
ATOM      2  O   UNL     1      10.512   2.812   1.066  0.00  0.00    -0.268 OA
ATOM      3  N   UNL     1       9.005   4.416   1.367  0.00  0.00    -0.230 N 
ATOM      4  H   UNL     1       8.753   5.392   1.808  0.00  0.00    +0.173 HD
ENDROOT
BRANCH   1  10
ATOM      5  C   UNL     1      14.595   6.958   4.942  0.00  0.00    +0.130 A 
ATOM      6  N   UNL     1      15.226   5.854   4.578  0.00  0.00    -0.237 NA
ATOM      7  C   UNL     1      14.655   4.926   3.843  0.00  0.00    +0.050 A 
ATOM      8  C   UNL     1      13.314   5.102   3.419  0.00  0.00    +0.032 A 
ATOM      9  C   UNL     1      12.507   4.254   2.644  0.00  0.00    -0.020 A 
ATOM     10  C   UNL     1      11.233   4.621   2.345  0.00  0.00    +0.081 A 
ATOM     11  S   UNL     1      11.069   6.202   3.155  0.00  0.00    -0.064 S 
ATOM     12  C   UNL     1      12.699   6.308   3.847  0.00  0.00    +0.113 A 
ATOM     13  N   UNL     1      13.347   7.185   4.583  0.00  0.00    -0.225 NA
ATOM     14  C   UNL     1      13.054   2.943   2.141  0.00  0.00    +0.046 C 
ATOM     15  C   UNL     1      15.419   3.687   3.454  0.00  0.00    +0.066 C 
BRANCH   5  17
ATOM     16  C   UNL     1      16.026   8.982   4.877  0.00  0.00    +0.012 C 
ATOM     17  C   UNL     1      15.317   7.976   5.787  0.00  0.00    +0.073 C 
ENDBRANCH   5  17
ENDBRANCH   1  10
BRANCH   3  18
ATOM     18  N   UNL     1       8.052   3.720   0.612  0.00  0.00    -0.231 N 
ATOM     19  C   UNL     1       6.825   4.246   0.426  0.00  0.00    +0.270 C 
ATOM     20  O   UNL     1       6.546   5.322   0.912  0.00  0.00    -0.270 OA
ATOM     21  H   UNL     1       8.305   2.745   0.172  0.00  0.00    +0.173 HD
BRANCH  19  22
ATOM     22  C   UNL     1       5.800   3.497  -0.386  0.00  0.00    +0.257 C 
ATOM     23  C   UNL     1       6.329   3.284  -1.805  0.00  0.00    +0.062 C 
BRANCH  22  24
ATOM     24  O   UNL     1       4.589   4.254  -0.438  0.00  0.00    -0.480 OA
BRANCH  24  25
ATOM     25  C   UNL     1       3.425   3.554  -0.470  0.00  0.00    +0.122 A 
ATOM     26  C   UNL     1       3.460   2.160  -0.583  0.00  0.00    +0.046 A 
ATOM     27  C   UNL     1       2.312   1.432  -0.617  0.00  0.00    +0.012 A 
ATOM     28  C   UNL     1       1.070   2.085  -0.538  0.00  0.00    -0.018 A 
ATOM     29  C   UNL     1      -0.136   1.363  -0.570  0.00  0.00    +0.008 A 
ATOM     30  C   UNL     1      -1.321   2.028  -0.496  0.00  0.00    +0.001 A 
ATOM     31  C   UNL     1      -1.359   3.416  -0.377  0.00  0.00    +0.001 A 
ATOM     32  C   UNL     1      -0.212   4.148  -0.344  0.00  0.00    +0.008 A 
ATOM     33  C   UNL     1       1.031   3.497  -0.423  0.00  0.00    -0.014 A 
ATOM     34  C   UNL     1       2.235   4.220  -0.391  0.00  0.00    +0.054 A 
ENDBRANCH  24  25
ENDBRANCH  22  24
ENDBRANCH  19  22
ENDBRANCH   3  18
TORSDOF 6
