REMARK  Name = ZINC64636437
REMARK  8 active torsions:
REMARK  status: ('A' for Active; 'I' for Inactive)
REMARK    1  A    between atoms: C_4  and  C_7
REMARK    2  A    between atoms: C_7  and  O_8
REMARK    3  A    between atoms: O_8  and  C_9
REMARK    4  A    between atoms: C_16  and  C_18
REMARK    5  A    between atoms: C_18  and  C_19
REMARK    6  A    between atoms: C_19  and  C_20
REMARK    7  A    between atoms: C_23  and  C_25
REMARK    8  A    between atoms: C_25  and  C_26
REMARK                            x       y       z     vdW  Elec       q    Type
REMARK                         _______ _______ _______ _____ _____    ______ ____
ROOT
ATOM      1  C   UNL     1      10.125  -1.940   1.081  0.00  0.00    +0.105 C 
ENDROOT
BRANCH   1   8
ATOM      2  C   UNL     1       5.385  -1.642   1.400  0.00  0.00    +0.136 C 
ATOM      3  C   UNL     1       5.406  -2.477   2.683  0.00  0.00    +0.035 C 
ATOM      4  C   UNL     1       6.724  -3.249   2.770  0.00  0.00    +0.021 C 
ATOM      5  C   UNL     1       7.890  -2.256   2.822  0.00  0.00    +0.108 C 
ATOM      6  N   UNL     1       7.794  -1.354   1.666  0.00  0.00    -0.299 N 
ATOM      7  C   UNL     1       6.535  -0.631   1.435  0.00  0.00    +0.139 C 
ATOM      8  C   UNL     1       8.840  -1.192   0.832  0.00  0.00    +0.216 C 
ATOM      9  O   UNL     1       8.749  -0.445  -0.119  0.00  0.00    -0.276 OA
BRANCH   2  10
ATOM     10  O   UNL     1       4.141  -0.946   1.304  0.00  0.00    -0.370 OA
BRANCH  10  11
ATOM     11  C   UNL     1       3.711  -0.707  -0.038  0.00  0.00    +0.195 C 
BRANCH  11  15
ATOM     12  C   UNL     1      -0.017   1.378   0.010  0.00  0.00    +0.000 A 
ATOM     13  C   UNL     1       1.171   2.086   0.002  0.00  0.00    +0.000 A 
ATOM     14  C   UNL     1       2.377   1.411  -0.013  0.00  0.00    +0.006 A 
ATOM     15  C   UNL     1       2.396   0.029  -0.020  0.00  0.00    -0.022 A 
ATOM     16  C   UNL     1       1.208  -0.679  -0.012  0.00  0.00    +0.006 A 
ATOM     17  C   UNL     1       0.002  -0.004   0.002  0.00  0.00    +0.000 A 
ENDBRANCH  11  15
ENDBRANCH  10  11
ENDBRANCH   2  10
ENDBRANCH   1   8
BRANCH   1  18
ATOM     18  C   UNL     1      11.143  -1.581  -0.003  0.00  0.00    +0.107 C 
BRANCH  18  19
ATOM     19  C   UNL     1      12.427  -2.329   0.247  0.00  0.00    +0.218 A 
ATOM     20  N   UNL     1      12.738  -3.504  -0.222  0.00  0.00    -0.112 NA
ATOM     21  N   UNL     1      13.911  -3.833   0.193  0.00  0.00    -0.112 NA
ATOM     22  C   UNL     1      14.388  -2.878   0.941  0.00  0.00    +0.221 A 
ATOM     23  O   UNL     1      13.464  -1.904   0.988  0.00  0.00    -0.424 OA
BRANCH  22  24
ATOM     24  C   UNL     1      15.732  -2.867   1.623  0.00  0.00    +0.130 C 
BRANCH  24  25
ATOM     25  C   UNL     1      16.756  -2.253   0.704  0.00  0.00    -0.033 C 
ATOM     26  C   UNL     1      17.164  -0.963   0.686  0.00  0.00    -0.001 A 
ATOM     27  C   UNL     1      16.788   0.209   1.485  0.00  0.00    +0.010 A 
ATOM     28  C   UNL     1      17.383   1.397   1.228  0.00  0.00    +0.001 A 
ATOM     29  C   UNL     1      18.346   1.535   0.218  0.00  0.00    +0.002 A 
ATOM     30  C   UNL     1      18.742   0.504  -0.558  0.00  0.00    +0.026 A 
ATOM     31  C   UNL     1      18.183  -0.791  -0.373  0.00  0.00    +0.043 A 
ATOM     32  N   UNL     1      18.398  -1.929  -0.987  0.00  0.00    -0.380 N 
ATOM     33  C   UNL     1      17.542  -2.955  -0.381  0.00  0.00    +0.145 C 
ATOM     34  H   UNL     1      19.021  -2.071  -1.716  0.00  0.00    +0.160 HD
ENDBRANCH  24  25
ENDBRANCH  22  24
ENDBRANCH  18  19
ENDBRANCH   1  18
TORSDOF 8
