REMARK  Name = ZINC46868590
REMARK  12 active torsions:
REMARK  status: ('A' for Active; 'I' for Inactive)
REMARK    1  A    between atoms: C_1  and  C_2
REMARK    2  A    between atoms: C_5  and  S_9
REMARK    3  A    between atoms: C_6  and  C_8
REMARK    4  A    between atoms: S_9  and  N_12
REMARK    5  A    between atoms: N_12  and  C_13
REMARK    6  A    between atoms: C_13  and  C_14
REMARK    7  A    between atoms: C_14  and  C_15
REMARK    8  A    between atoms: N_17  and  C_18
REMARK    9  A    between atoms: C_18  and  C_19
REMARK   10  A    between atoms: C_19  and  N_25
REMARK   11  A    between atoms: N_25  and  C_26
REMARK   12  A    between atoms: N_25  and  C_27
REMARK                            x       y       z     vdW  Elec       q    Type
REMARK                         _______ _______ _______ _____ _____    ______ ____
ROOT
ATOM      1  C   UNL     1       3.426  -5.880   1.994  0.00  0.00    +0.112 C 
ENDROOT
BRANCH   1   2
ATOM      2  C   UNL     1       3.807  -5.929   3.451  0.00  0.00    +0.214 C 
ATOM      3  O   UNL     1       3.283  -5.172   4.240  0.00  0.00    -0.276 OA
ATOM      4  N   UNL     1       4.729  -6.815   3.878  0.00  0.00    -0.317 N 
ATOM      5  H   UNL     1       5.147  -7.421   3.246  0.00  0.00    +0.149 HD
BRANCH   4   6
ATOM      6  C   UNL     1       5.098  -6.863   5.294  0.00  0.00    +0.092 C 
BRANCH   6   7
ATOM      7  C   UNL     1       6.237  -7.865   5.491  0.00  0.00    -0.050 C 
ATOM      8  C   UNL     1       6.601  -7.940   6.975  0.00  0.00    -0.010 C 
ATOM      9  C   UNL     1       7.047  -6.559   7.461  0.00  0.00    -0.001 C 
ATOM     10  C   UNL     1       8.269  -6.107   6.659  0.00  0.00    -0.000 C 
ATOM     11  C   UNL     1       7.905  -6.032   5.175  0.00  0.00    -0.001 C 
ATOM     12  C   UNL     1       7.459  -7.413   4.689  0.00  0.00    -0.010 C 
BRANCH   7  13
ATOM     13  N   UNL     1       5.809  -9.191   5.024  0.00  0.00    +0.381 N 
ATOM     14  C   UNL     1       6.876 -10.168   5.279  0.00  0.00    -0.096 C 
ATOM     15  C   UNL     1       4.594  -9.594   5.744  0.00  0.00    -0.096 C 
ATOM     16  H   UNL     1       5.617  -9.153   4.035  0.00  0.00    -0.082 HD
ENDBRANCH   7  13
ENDBRANCH   6   7
ENDBRANCH   4   6
ENDBRANCH   1   2
BRANCH   1  17
ATOM     17  C   UNL     1       2.369  -4.796   1.779  0.00  0.00    +0.115 C 
BRANCH  17  18
ATOM     18  N   UNL     1       1.999  -4.748   0.362  0.00  0.00    -0.189 NA
ATOM     19  H   UNL     1       2.552  -5.193  -0.299  0.00  0.00    +0.148 HD
BRANCH  18  20
ATOM     20  S   UNL     1       0.637  -3.934  -0.111  0.00  0.00    +0.059 S 
ATOM     21  O   UNL     1      -0.421  -4.396   0.718  0.00  0.00    -0.153 OA
ATOM     22  O   UNL     1       0.585  -4.019  -1.529  0.00  0.00    -0.153 OA
BRANCH  20  27
ATOM     23  C   UNL     1       1.476   1.885   1.244  0.00  0.00    +0.044 C 
ATOM     24  C   UNL     1       1.266   0.431   0.906  0.00  0.00    -0.050 A 
ATOM     25  C   UNL     1       0.279  -0.293   1.548  0.00  0.00    +0.005 A 
ATOM     26  C   UNL     1       0.087  -1.625   1.238  0.00  0.00    +0.029 A 
ATOM     27  C   UNL     1       0.881  -2.235   0.284  0.00  0.00    +0.108 A 
ATOM     28  C   UNL     1       1.867  -1.511  -0.359  0.00  0.00    -0.024 A 
ATOM     29  C   UNL     1       2.057  -0.176  -0.051  0.00  0.00    +0.008 A 
ATOM     30  C   UNL     1       2.734  -2.175  -1.398  0.00  0.00    +0.046 C 
ENDBRANCH  20  27
ENDBRANCH  18  20
ENDBRANCH  17  18
ENDBRANCH   1  17
TORSDOF 8
