REMARK  Name = ZINC06755545
REMARK  12 active torsions:
REMARK  status: ('A' for Active; 'I' for Inactive)
REMARK    1  A    between atoms: C_1  and  C_2
REMARK    2  A    between atoms: C_2  and  S_3
REMARK    3  A    between atoms: S_3  and  C_4
REMARK    4  A    between atoms: C_11  and  N_13
REMARK    5  A    between atoms: N_13  and  C_14
REMARK    6  A    between atoms: N_13  and  C_17
REMARK    7  A    between atoms: C_14  and  C_15
REMARK    8  A    between atoms: C_15  and  O_16
REMARK    9  A    between atoms: C_17  and  C_18
REMARK   10  A    between atoms: C_18  and  O_19
REMARK   11  A    between atoms: C_21  and  C_24
REMARK   12  A    between atoms: C_21  and  C_25
REMARK                            x       y       z     vdW  Elec       q    Type
REMARK                         _______ _______ _______ _____ _____    ______ ____
ROOT
ATOM      1  C   UNL     1       0.402   1.329   0.452  0.00  0.00    +0.191 A 
ATOM      2  N   UNL     1       1.565   1.896   0.683  0.00  0.00    -0.221 NA
ATOM      3  C   UNL     1       2.711   1.168   0.715  0.00  0.00    +0.090 A 
ATOM      4  C   UNL     1       4.030   1.627   0.949  0.00  0.00    +0.015 A 
ATOM      5  C   UNL     1       5.029   0.710   0.934  0.00  0.00    +0.001 A 
ATOM      6  S   UNL     1       4.222  -0.830   0.600  0.00  0.00    -0.088 S 
ATOM      7  C   UNL     1       2.562  -0.214   0.486  0.00  0.00    +0.078 A 
ATOM      8  C   UNL     1       1.319  -0.775   0.247  0.00  0.00    +0.140 A 
ATOM      9  N   UNL     1       0.254   0.027   0.236  0.00  0.00    -0.206 NA
ATOM     10  C   UNL     1       6.484   0.982   1.157  0.00  0.00    +0.077 C 
ATOM     11  C   UNL     1       6.694   2.503   1.051  0.00  0.00    +0.069 C 
ATOM     12  O   UNL     1       5.666   3.162   1.796  0.00  0.00    -0.369 OA
ATOM     13  C   UNL     1       4.362   3.094   1.215  0.00  0.00    +0.198 C 
ATOM     14  C   UNL     1       6.618   2.930  -0.416  0.00  0.00    +0.041 C 
ATOM     15  C   UNL     1       8.062   2.876   1.624  0.00  0.00    +0.041 C 
ENDROOT
BRANCH   1  16
ATOM     16  S   UNL     1      -1.034   2.350   0.421  0.00  0.00    -0.086 S 
BRANCH  16  18
ATOM     17  C   UNL     1      -1.369   5.036   0.785  0.00  0.00    +0.016 C 
ATOM     18  C   UNL     1      -0.282   3.960   0.762  0.00  0.00    +0.074 C 
ENDBRANCH  16  18
ENDBRANCH   1  16
BRANCH   8  19
ATOM     19  N   UNL     1       1.185  -2.136   0.024  0.00  0.00    -0.310 N 
BRANCH  19  20
ATOM     20  C   UNL     1      -0.221  -2.496  -0.205  0.00  0.00    +0.134 C 
BRANCH  20  21
ATOM     21  C   UNL     1      -0.362  -4.019  -0.213  0.00  0.00    +0.174 C 
BRANCH  21  22
ATOM     22  O   UNL     1      -0.027  -4.535   1.077  0.00  0.00    -0.393 OA
ATOM     23  H   UNL     1      -0.095  -5.497   1.146  0.00  0.00    +0.209 HD
ENDBRANCH  21  22
ENDBRANCH  20  21
ENDBRANCH  19  20
BRANCH  19  24
ATOM     24  C   UNL     1       2.029  -2.571  -1.097  0.00  0.00    +0.134 C 
BRANCH  24  25
ATOM     25  C   UNL     1       1.528  -1.929  -2.392  0.00  0.00    +0.174 C 
BRANCH  25  26
ATOM     26  O   UNL     1       1.715  -0.514  -2.327  0.00  0.00    -0.393 OA
ATOM     27  H   UNL     1       1.351  -0.034  -3.082  0.00  0.00    +0.209 HD
ENDBRANCH  25  26
ENDBRANCH  24  25
ENDBRANCH  19  24
ENDBRANCH   8  19
TORSDOF 9
