REMARK  Name = ZINC03849452
REMARK  10 active torsions:
REMARK  status: ('A' for Active; 'I' for Inactive)
REMARK    1  A    between atoms: C_1  and  C_2
REMARK    2  A    between atoms: N_8  and  C_9
REMARK    3  A    between atoms: C_9  and  C_10
REMARK    4  A    between atoms: C_10  and  C_11
REMARK    5  A    between atoms: C_17  and  C_27
REMARK    6  A    between atoms: C_19  and  C_23
REMARK    7  A    between atoms: C_20  and  N_22
REMARK    8  A    between atoms: C_23  and  O_25
REMARK    9  A    between atoms: O_25  and  C_26
REMARK   10  A    between atoms: C_30  and  N_33
REMARK                            x       y       z     vdW  Elec       q    Type
REMARK                         _______ _______ _______ _____ _____    ______ ____
ROOT
ATOM      1  C   UNL     1       0.239   4.036  -0.830  0.00  0.00    +0.064 C 
ATOM      2  C   UNL     1      -0.667   3.080  -1.562  0.00  0.00    +0.022 A 
ATOM      3  C   UNL     1      -1.382   3.518  -2.621  0.00  0.00    +0.068 A 
ATOM      4  C   UNL     1      -2.231   2.627  -3.309  0.00  0.00    +0.141 A 
ATOM      5  C   UNL     1      -2.313   1.319  -2.883  0.00  0.00    +0.071 A 
ATOM      6  C   UNL     1      -1.548   0.907  -1.784  0.00  0.00    +0.259 A 
ATOM      7  O   UNL     1      -1.606  -0.250  -1.399  0.00  0.00    -0.267 OA
ATOM      8  N   UNL     1      -0.752   1.788  -1.149  0.00  0.00    -0.312 N 
ATOM      9  C   UNL     1      -3.206   0.335  -3.588  0.00  0.00    +0.100 C 
ATOM     10  C   UNL     1      -4.198   1.063  -4.452  0.00  0.00    +0.105 C 
ATOM     11  C   UNL     1      -4.016   2.365  -4.787  0.00  0.00    +0.195 C 
ATOM     12  O   UNL     1      -2.947   3.063  -4.367  0.00  0.00    -0.441 OA
ENDROOT
BRANCH   9  13
ATOM     13  C   UNL     1      -2.367  -0.574  -4.449  0.00  0.00    -0.035 A 
ATOM     14  C   UNL     1      -1.603  -0.046  -5.473  0.00  0.00    +0.007 A 
ATOM     15  C   UNL     1      -0.829  -0.879  -6.259  0.00  0.00    +0.033 A 
ATOM     16  C   UNL     1      -0.828  -2.242  -6.028  0.00  0.00    +0.126 A 
ATOM     17  C   UNL     1      -1.595  -2.771  -5.007  0.00  0.00    +0.033 A 
ATOM     18  C   UNL     1      -2.365  -1.937  -4.218  0.00  0.00    +0.007 A 
BRANCH  16  19
ATOM     19  N   UNL     1      -0.004  -3.135  -6.874  0.00  0.00    +0.056 N 
ATOM     20  O   UNL     1      -0.002  -4.335  -6.670  0.00  0.00    -0.126 OA
ATOM     21  O   UNL     1       0.672  -2.668  -7.773  0.00  0.00    -0.126 OA
ENDBRANCH  16  19
ENDBRANCH   9  13
BRANCH  11  22
ATOM     22  N   UNL     1      -4.946   2.985  -5.577  0.00  0.00    -0.329 N 
ATOM     23  H   UNL     1      -4.665   3.639  -6.236  0.00  0.00    +0.145 HD
ATOM     24  H   UNL     1      -5.887   2.769  -5.478  0.00  0.00    +0.145 HD
ENDBRANCH  11  22
BRANCH  10  25
ATOM     25  C   UNL     1      -5.334   0.384  -4.918  0.00  0.00    +0.341 C 
ATOM     26  O   UNL     1      -6.085   0.926  -5.709  0.00  0.00    -0.245 OA
BRANCH  25  27
ATOM     27  O   UNL     1      -5.593  -0.871  -4.491  0.00  0.00    -0.465 OA
ATOM     28  C   UNL     1      -6.767  -1.502  -5.008  0.00  0.00    +0.280 C 
ENDBRANCH  25  27
ENDBRANCH  10  25
BRANCH   8  29
ATOM     29  C   UNL     1       0.038   1.346   0.003  0.00  0.00    +0.130 C 
BRANCH  29  30
ATOM     30  C   UNL     1      -0.772   1.546   1.285  0.00  0.00    +0.057 C 
BRANCH  30  31
ATOM     31  C   UNL     1       0.041   1.091   2.469  0.00  0.00    -0.046 A 
ATOM     32  C   UNL     1      -0.042  -0.219   2.902  0.00  0.00    +0.004 A 
ATOM     33  C   UNL     1       0.708  -0.637   3.986  0.00  0.00    +0.000 A 
ATOM     34  C   UNL     1       1.532   0.257   4.642  0.00  0.00    +0.000 A 
ATOM     35  C   UNL     1       1.612   1.568   4.212  0.00  0.00    +0.000 A 
ATOM     36  C   UNL     1       0.866   1.985   3.126  0.00  0.00    +0.004 A 
ENDBRANCH  30  31
ENDBRANCH  29  30
ENDBRANCH   8  29
TORSDOF 8
