REMARK  Name = ZINC39774820
REMARK  7 active torsions:
REMARK  status: ('A' for Active; 'I' for Inactive)
REMARK    1  A    between atoms: C_1  and  C_2
REMARK    2  A    between atoms: C_2  and  C_3
REMARK    3  A    between atoms: C_3  and  C_4
REMARK    4  A    between atoms: C_4  and  S_5
REMARK    5  A    between atoms: S_5  and  C_6
REMARK    6  A    between atoms: C_12  and  C_24
REMARK    7  A    between atoms: C_27  and  C_29
REMARK                            x       y       z     vdW  Elec       q    Type
REMARK                         _______ _______ _______ _____ _____    ______ ____
ROOT
ATOM      1  C   UNL     1       1.529  -4.368  -2.621  0.00  0.00    +0.182 C 
ATOM      2  N   UNL     1       0.932  -4.908  -1.565  0.00  0.00    -0.154 NA
ATOM      3  C   UNL     1       0.935  -6.217  -1.359  0.00  0.00    +0.250 C 
ATOM      4  O   UNL     1       0.334  -6.673  -0.406  0.00  0.00    -0.273 OA
ATOM      5  C   UNL     1       1.665  -7.141  -2.281  0.00  0.00    +0.159 C 
ATOM      6  C   UNL     1       0.808  -8.334  -2.690  0.00  0.00    +0.109 C 
ATOM      7  C   UNL     1       1.554  -9.107  -3.759  0.00  0.00    +0.028 C 
ATOM      8  C   UNL     1       2.366  -8.419  -4.664  0.00  0.00    +0.051 C 
ATOM      9  C   UNL     1       3.084  -9.172  -5.759  0.00  0.00    +0.056 C 
ATOM     10  C   UNL     1       3.418 -10.582  -5.263  0.00  0.00    +0.014 C 
ATOM     11  C   UNL     1       2.118 -11.278  -4.851  0.00  0.00    +0.080 C 
ATOM     12  C   UNL     1       1.415 -10.451  -3.810  0.00  0.00    +0.162 C 
ATOM     13  O   UNL     1       0.628 -11.065  -2.907  0.00  0.00    -0.292 OA
ATOM     14  N   UNL     1       2.546  -7.115  -4.566  0.00  0.00    -0.236 NA
ATOM     15  C   UNL     1       2.130  -6.421  -3.516  0.00  0.00    +0.145 C 
ATOM     16  N   UNL     1       2.081  -5.106  -3.584  0.00  0.00    -0.208 NA
ENDROOT
BRANCH   6  17
ATOM     17  C   UNL     1      -0.510  -7.849  -3.239  0.00  0.00    +0.114 A 
ATOM     18  C   UNL     1      -1.724  -8.139  -2.738  0.00  0.00    +0.045 A 
ATOM     19  C   UNL     1      -2.672  -7.481  -3.555  0.00  0.00    +0.044 A 
ATOM     20  C   UNL     1      -1.979  -6.828  -4.506  0.00  0.00    +0.102 A 
ATOM     21  O   UNL     1      -0.670  -7.051  -4.306  0.00  0.00    -0.464 OA
ATOM     22  C   UNL     1      -2.572  -5.986  -5.607  0.00  0.00    +0.086 C 
ENDBRANCH   6  17
BRANCH   1  23
ATOM     23  S   UNL     1       1.588  -2.612  -2.758  0.00  0.00    -0.088 S 
BRANCH  23  24
ATOM     24  C   UNL     1       0.739  -2.027  -1.265  0.00  0.00    +0.077 C 
BRANCH  24  25
ATOM     25  C   UNL     1       0.718  -0.497  -1.257  0.00  0.00    +0.011 C 
BRANCH  25  27
ATOM     26  C   UNL     1      -0.019   1.526   0.010  0.00  0.00    +0.004 C 
ATOM     27  C   UNL     1       0.002  -0.004   0.002  0.00  0.00    -0.003 C 
ENDBRANCH  25  27
ENDBRANCH  24  25
ENDBRANCH  23  24
ENDBRANCH   1  23
TORSDOF 5
