REMARK  Name = ZINC59818281
REMARK  14 active torsions:
REMARK  status: ('A' for Active; 'I' for Inactive)
REMARK    1  A    between atoms: C_1  and  C_2
REMARK    2  A    between atoms: C_7  and  O_8
REMARK    3  A    between atoms: O_8  and  C_9
REMARK    4  A    between atoms: C_9  and  C_10
REMARK    5  A    between atoms: C_13  and  C_15
REMARK    6  A    between atoms: N_16  and  N_17
REMARK    7  A    between atoms: C_20  and  S_23
REMARK    8  A    between atoms: S_23  and  C_24
REMARK    9  A    between atoms: C_24  and  C_25
REMARK   10  A    between atoms: C_25  and  C_26
REMARK   11  A    between atoms: N_28  and  C_29
REMARK   12  A    between atoms: C_29  and  C_30
REMARK   13  A    between atoms: C_29  and  C_31
REMARK   14  A    between atoms: C_29  and  C_32
REMARK                            x       y       z     vdW  Elec       q    Type
REMARK                         _______ _______ _______ _____ _____    ______ ____
ROOT
ATOM      1  N   UNL     1      -0.415  -0.211   9.695  0.00  0.00    -0.205 N 
ATOM      2  C   UNL     1      -0.410  -1.494  10.210  0.00  0.00    +0.232 A 
ATOM      3  N   UNL     1      -0.545  -2.606   9.517  0.00  0.00    -0.186 NA
ATOM      4  C   UNL     1      -0.492  -3.658  10.341  0.00  0.00    +0.210 A 
ATOM      5  N   UNL     1      -0.322  -3.229  11.569  0.00  0.00    -0.144 NA
ATOM      6  N   UNL     1      -0.261  -1.828  11.509  0.00  0.00    -0.245 N 
ATOM      7  H   UNL     1      -0.304   0.549  10.287  0.00  0.00    +0.177 HD
ATOM      8  H   UNL     1      -0.138  -1.219  12.255  0.00  0.00    +0.192 HD
ENDROOT
BRANCH   1  10
ATOM      9  C   UNL     1      -0.584   1.199   7.835  0.00  0.00    +0.176 C 
ATOM     10  N   UNL     1      -0.580  -0.009   8.319  0.00  0.00    -0.184 NA
BRANCH   9  14
ATOM     11  C   UNL     1      -1.047   1.011   4.254  0.00  0.00    +0.143 A 
ATOM     12  C   UNL     1      -0.967   2.350   4.389  0.00  0.00    +0.049 A 
ATOM     13  C   UNL     1      -0.780   2.618   5.758  0.00  0.00    +0.051 A 
ATOM     14  C   UNL     1      -0.757   1.410   6.394  0.00  0.00    +0.148 A 
ATOM     15  O   UNL     1      -0.926   0.447   5.467  0.00  0.00    -0.455 OA
BRANCH  11  16
ATOM     16  C   UNL     1      -1.247   0.271   2.957  0.00  0.00    +0.303 C 
BRANCH  16  17
ATOM     17  O   UNL     1       0.025  -0.033   2.381  0.00  0.00    -0.483 OA
BRANCH  17  24
ATOM     18  C   UNL     1      -0.018   1.503   0.010  0.00  0.00    +0.047 C 
ATOM     19  C   UNL     1       0.002  -0.004   0.002  0.00  0.00    -0.007 A 
ATOM     20  C   UNL     1       0.006  -0.689  -1.198  0.00  0.00    +0.007 A 
ATOM     21  C   UNL     1       0.025  -2.071  -1.207  0.00  0.00    +0.002 A 
ATOM     22  C   UNL     1       0.040  -2.773  -0.016  0.00  0.00    +0.024 A 
ATOM     23  C   UNL     1       0.036  -2.093   1.188  0.00  0.00    +0.083 A 
ATOM     24  C   UNL     1       0.023  -0.704   1.199  0.00  0.00    +0.142 A 
ATOM     25 CL   UNL     1       0.056  -2.973   2.684  0.00  0.00    -0.080 Cl
ENDBRANCH  17  24
ENDBRANCH  16  17
ENDBRANCH  11  16
ENDBRANCH   9  14
ENDBRANCH   1  10
BRANCH   4  26
ATOM     26  S   UNL     1      -0.628  -5.346   9.856  0.00  0.00    -0.084 S 
BRANCH  26  27
ATOM     27  C   UNL     1      -0.478  -6.264  11.414  0.00  0.00    +0.086 C 
BRANCH  27  28
ATOM     28  C   UNL     1      -0.581  -7.765  11.133  0.00  0.00    +0.107 C 
BRANCH  28  29
ATOM     29  C   UNL     1      -0.457  -8.527  12.427  0.00  0.00    +0.214 C 
ATOM     30  O   UNL     1      -0.301  -7.929  13.471  0.00  0.00    -0.276 OA
ATOM     31  N   UNL     1      -0.518  -9.873  12.425  0.00  0.00    -0.311 N 
ATOM     32  H   UNL     1      -0.642 -10.352  11.590  0.00  0.00    +0.149 HD
BRANCH  31  33
ATOM     33  C   UNL     1      -0.397 -10.615  13.683  0.00  0.00    +0.026 C 
ATOM     34  C   UNL     1      -1.521 -10.195  14.632  0.00  0.00    +0.031 C 
ATOM     35  C   UNL     1      -0.500 -12.115  13.402  0.00  0.00    +0.031 C 
ATOM     36  C   UNL     1       0.956 -10.307  14.328  0.00  0.00    +0.031 C 
ENDBRANCH  31  33
ENDBRANCH  28  29
ENDBRANCH  27  28
ENDBRANCH  26  27
ENDBRANCH   4  26
TORSDOF 10
