REMARK  Name = ZINC59577839
REMARK  13 active torsions:
REMARK  status: ('A' for Active; 'I' for Inactive)
REMARK    1  A    between atoms: C_1  and  C_2
REMARK    2  A    between atoms: C_4  and  C_15
REMARK    3  A    between atoms: C_6  and  C_14
REMARK    4  A    between atoms: C_7  and  O_8
REMARK    5  A    between atoms: O_8  and  C_9
REMARK    6  A    between atoms: C_9  and  C_10
REMARK    7  A    between atoms: C_15  and  N_16
REMARK    8  A    between atoms: N_16  and  C_17
REMARK    9  A    between atoms: N_16  and  C_18
REMARK   10  A    between atoms: C_18  and  C_20
REMARK   11  A    between atoms: C_18  and  C_21
REMARK   12  A    between atoms: N_23  and  C_24
REMARK   13  A    between atoms: C_29  and  N_30
REMARK                            x       y       z     vdW  Elec       q    Type
REMARK                         _______ _______ _______ _____ _____    ______ ____
ROOT
ATOM      1  N   UNL     1       1.368  -3.109  -2.953  0.00  0.00    +0.388 N 
ATOM      2  C   UNL     1       2.105  -3.886  -1.948  0.00  0.00    -0.095 C 
ATOM      3  H   UNL     1       1.764  -2.183  -3.019  0.00  0.00    -0.081 HD
ENDROOT
BRANCH   1   4
ATOM      4  C   UNL     1       1.466  -3.777  -4.257  0.00  0.00    +0.016 C 
ATOM      5  C   UNL     1       2.939  -4.004  -4.604  0.00  0.00    -0.004 C 
BRANCH   4   6
ATOM      6  C   UNL     1       0.828  -2.913  -5.314  0.00  0.00    +0.203 C 
ATOM      7  O   UNL     1       0.494  -1.778  -5.049  0.00  0.00    -0.277 OA
ATOM      8  N   UNL     1       0.629  -3.402  -6.554  0.00  0.00    -0.285 N 
ATOM      9  H   UNL     1       0.958  -4.285  -6.786  0.00  0.00    +0.155 HD
BRANCH   8  10
ATOM     10  C   UNL     1      -0.052  -2.636  -7.507  0.00  0.00    +0.064 A 
ATOM     11  C   UNL     1       0.112  -1.257  -7.537  0.00  0.00    +0.025 A 
ATOM     12  C   UNL     1      -0.561  -0.504  -8.479  0.00  0.00    +0.002 A 
ATOM     13  C   UNL     1      -1.398  -1.121  -9.391  0.00  0.00    +0.002 A 
ATOM     14  C   UNL     1      -1.563  -2.494  -9.363  0.00  0.00    +0.034 A 
ATOM     15  C   UNL     1      -0.888  -3.253  -8.428  0.00  0.00    +0.147 A 
BRANCH  15  16
ATOM     16  N   UNL     1      -1.060  -4.723  -8.403  0.00  0.00    +0.058 N 
ATOM     17  O   UNL     1      -1.703  -5.271  -9.268  0.00  0.00    -0.126 OA
ATOM     18  O   UNL     1      -0.557  -5.376  -7.518  0.00  0.00    -0.126 OA
ENDBRANCH  15  16
ENDBRANCH   8  10
ENDBRANCH   4   6
ENDBRANCH   1   4
BRANCH   1  19
ATOM     19  C   UNL     1      -0.043  -3.011  -2.558  0.00  0.00    -0.042 C 
BRANCH  19  23
ATOM     20  C   UNL     1      -0.625   1.451  -0.370  0.00  0.00    +0.047 C 
ATOM     21  C   UNL     1      -0.438  -0.041  -0.263  0.00  0.00    -0.008 A 
ATOM     22  C   UNL     1      -0.331  -0.808  -1.406  0.00  0.00    +0.008 A 
ATOM     23  C   UNL     1      -0.159  -2.176  -1.309  0.00  0.00    -0.063 A 
ATOM     24  C   UNL     1      -0.093  -2.780  -0.067  0.00  0.00    +0.008 A 
ATOM     25  C   UNL     1      -0.199  -2.017   1.080  0.00  0.00    -0.008 A 
ATOM     26  C   UNL     1      -0.366  -0.643   0.985  0.00  0.00    +0.127 A 
ATOM     27  C   UNL     1      -0.127  -2.676   2.434  0.00  0.00    +0.047 C 
BRANCH  26  28
ATOM     28  O   UNL     1      -0.465   0.110   2.112  0.00  0.00    -0.483 OA
BRANCH  28  29
ATOM     29  C   UNL     1      -1.775   0.311   2.645  0.00  0.00    +0.342 C 
BRANCH  29  30
ATOM     30  C   UNL     1      -1.686   1.177   3.904  0.00  0.00    +0.424 C 
ATOM     31  F   UNL     1      -1.120   2.414   3.579  0.00  0.00    -0.167 F 
ATOM     32  F   UNL     1      -2.969   1.373   4.426  0.00  0.00    -0.167 F 
ATOM     33  F   UNL     1      -0.888   0.534   4.856  0.00  0.00    -0.167 F 
ENDBRANCH  29  30
ENDBRANCH  28  29
ENDBRANCH  26  28
ENDBRANCH  19  23
ENDBRANCH   1  19
TORSDOF 9
