REMARK  Name = ZINC09019460
REMARK  9 active torsions:
REMARK  status: ('A' for Active; 'I' for Inactive)
REMARK    1  A    between atoms: C_1  and  C_2
REMARK    2  A    between atoms: C_5  and  S_8
REMARK    3  A    between atoms: S_8  and  N_11
REMARK    4  A    between atoms: C_16  and  C_17
REMARK    5  A    between atoms: C_16  and  N_58
REMARK    6  A    between atoms: N_19  and  N_20
REMARK    7  A    between atoms: C_21  and  C_22
REMARK    8  A    between atoms: C_23  and  C_24
REMARK    9  A    between atoms: C_29  and  N_30
REMARK                            x       y       z     vdW  Elec       q    Type
REMARK                         _______ _______ _______ _____ _____    ______ ____
ROOT
ATOM      1  C   UNL     1      -1.321   3.213  -2.562  0.00  0.00    +0.020 C 
ENDROOT
BRANCH   1   7
ATOM      2  N   UNL     1      -0.568   1.131   1.007  0.00  0.00    -0.180 NA
ATOM      3  C   UNL     1       0.065   0.615  -0.217  0.00  0.00    +0.091 C 
ATOM      4  C   UNL     1      -0.690   1.168  -1.430  0.00  0.00    -0.061 C 
ATOM      5  C   UNL     1      -1.520   3.055  -0.154  0.00  0.00    -0.061 C 
ATOM      6  C   UNL     1      -0.799   2.580   1.112  0.00  0.00    +0.091 C 
ATOM      7  N   UNL     1      -0.729   2.643  -1.334  0.00  0.00    +0.387 N 
ATOM      8  H   UNL     1       0.230   2.996  -1.231  0.00  0.00    -0.081 HD
BRANCH   2   9
ATOM      9  S   UNL     1      -1.013   0.107   2.229  0.00  0.00    +0.061 S 
ATOM     10  O   UNL     1      -2.043   0.764   2.955  0.00  0.00    -0.153 OA
ATOM     11  O   UNL     1      -1.195  -1.174   1.641  0.00  0.00    -0.153 OA
BRANCH   9  16
ATOM     12  C   UNL     1       3.700  -0.366   5.967  0.00  0.00    +0.044 C 
ATOM     13  C   UNL     1       2.522  -0.248   5.034  0.00  0.00    -0.050 A 
ATOM     14  C   UNL     1       1.575   0.738   5.237  0.00  0.00    +0.005 A 
ATOM     15  C   UNL     1       0.496   0.846   4.381  0.00  0.00    +0.029 A 
ATOM     16  C   UNL     1       0.363  -0.031   3.321  0.00  0.00    +0.105 A 
ATOM     17  C   UNL     1       1.308  -1.021   3.121  0.00  0.00    +0.029 A 
ATOM     18  C   UNL     1       2.390  -1.126   3.974  0.00  0.00    +0.005 A 
ENDBRANCH   9  16
ENDBRANCH   2   9
ENDBRANCH   1   7
BRANCH   1  19
ATOM     19  C   UNL     1      -2.741   2.739  -2.736  0.00  0.00    +0.216 C 
ATOM     20  O   UNL     1      -3.254   2.035  -1.890  0.00  0.00    -0.276 OA
ATOM     21  N   UNL     1      -3.442   3.096  -3.830  0.00  0.00    -0.209 N 
ATOM     22  H   UNL     1      -3.032   3.658  -4.506  0.00  0.00    +0.177 HD
BRANCH  21  23
ATOM     23  N   UNL     1      -4.761   2.655  -3.992  0.00  0.00    -0.188 NA
ATOM     24  C   UNL     1      -5.438   3.000  -5.050  0.00  0.00    +0.130 C 
BRANCH  24  25
ATOM     25  C   UNL     1      -6.774   2.553  -5.214  0.00  0.00    +0.022 C 
ATOM     26  C   UNL     1      -7.475   2.910  -6.309  0.00  0.00    +0.012 C 
BRANCH  26  27
ATOM     27  C   UNL     1      -8.862   2.447  -6.479  0.00  0.00    +0.005 A 
ATOM     28  C   UNL     1      -9.502   1.753  -5.447  0.00  0.00    +0.010 A 
ATOM     29  C   UNL     1     -10.801   1.322  -5.614  0.00  0.00    +0.001 A 
ATOM     30  C   UNL     1     -11.472   1.575  -6.799  0.00  0.00    +0.002 A 
ATOM     31  C   UNL     1     -10.845   2.261  -7.824  0.00  0.00    +0.033 A 
ATOM     32  C   UNL     1      -9.547   2.703  -7.670  0.00  0.00    +0.133 A 
BRANCH  32  33
ATOM     33  N   UNL     1      -8.880   3.442  -8.766  0.00  0.00    +0.057 N 
ATOM     34  O   UNL     1      -9.428   3.552  -9.848  0.00  0.00    -0.126 OA
ATOM     35  O   UNL     1      -7.784   3.941  -8.585  0.00  0.00    -0.126 OA
ENDBRANCH  32  33
ENDBRANCH  26  27
ENDBRANCH  24  25
ENDBRANCH  21  23
ENDBRANCH   1  19
TORSDOF 8
