REMARK  Name = ZINC52635086
REMARK  5 active torsions:
REMARK  status: ('A' for Active; 'I' for Inactive)
REMARK    1  A    between atoms: N_4  and  C_8
REMARK    2  A    between atoms: C_11  and  C_14
REMARK    3  A    between atoms: N_16  and  C_17
REMARK    4  A    between atoms: C_22  and  N_24
REMARK    5  A    between atoms: C_25  and  C_27
REMARK                            x       y       z     vdW  Elec       q    Type
REMARK                         _______ _______ _______ _____ _____    ______ ____
ROOT
ATOM      1  C   UNL     1       8.633  -4.760  -0.011  0.00  0.00    +0.075 C 
ATOM      2  C   UNL     1       9.199  -4.903   1.425  0.00  0.00    -0.058 C 
ATOM      3  N   UNL     1      10.089  -6.088   1.322  0.00  0.00    +0.381 N 
ATOM      4  C   UNL     1       9.384  -7.047   0.445  0.00  0.00    -0.058 C 
ATOM      5  C   UNL     1       8.441  -6.227  -0.459  0.00  0.00    +0.075 C 
ATOM      6  H   UNL     1      10.973  -5.824   0.911  0.00  0.00    -0.086 HD
ATOM      7  H   UNL     1      10.236  -6.493   2.235  0.00  0.00    -0.086 HD
ENDROOT
BRANCH   1  10
ATOM      8  C   UNL     1       7.324  -2.706  -0.083  0.00  0.00    +0.244 C 
ATOM      9  O   UNL     1       8.363  -2.082  -0.177  0.00  0.00    -0.270 OA
ATOM     10  N   UNL     1       7.352  -4.051   0.006  0.00  0.00    -0.309 N 
ATOM     11  H   UNL     1       6.523  -4.549   0.081  0.00  0.00    +0.149 HD
BRANCH   8  15
ATOM     12  C   UNL     1       3.607  -0.650  -0.036  0.00  0.00    +0.049 A 
ATOM     13  C   UNL     1       4.795   0.066  -0.143  0.00  0.00    +0.027 A 
ATOM     14  C   UNL     1       6.002  -0.597  -0.158  0.00  0.00    +0.015 A 
ATOM     15  C   UNL     1       6.032  -1.991  -0.066  0.00  0.00    +0.037 A 
ATOM     16  C   UNL     1       4.837  -2.707   0.041  0.00  0.00    +0.015 A 
ATOM     17  C   UNL     1       3.634  -2.037   0.061  0.00  0.00    +0.027 A 
BRANCH  12  21
ATOM     18  C   UNL     1      -0.018   1.356   0.014  0.00  0.00    +0.007 A 
ATOM     19  C   UNL     1       0.674   1.090   1.204  0.00  0.00    +0.018 A 
ATOM     20  C   UNL     1       1.857   0.433   1.165  0.00  0.00    +0.095 A 
ATOM     21  N   UNL     1       2.385   0.026  -0.021  0.00  0.00    -0.284 N 
ATOM     22  C   UNL     1       1.744   0.268  -1.179  0.00  0.00    +0.256 A 
ATOM     23  O   UNL     1       2.231  -0.103  -2.235  0.00  0.00    -0.267 OA
ATOM     24  C   UNL     1       0.514   0.947  -1.174  0.00  0.00    +0.071 A 
ENDBRANCH  12  21
ENDBRANCH   8  15
ENDBRANCH   1  10
BRANCH   5  25
ATOM     25  N   UNL     1       7.052  -6.643  -0.255  0.00  0.00    -0.309 N 
ATOM     26  C   UNL     1       6.531  -7.640  -0.997  0.00  0.00    +0.244 C 
ATOM     27  O   UNL     1       7.213  -8.193  -1.837  0.00  0.00    -0.270 OA
ATOM     28  H   UNL     1       6.507  -6.202   0.415  0.00  0.00    +0.149 HD
BRANCH  26  29
ATOM     29  C   UNL     1       5.126  -8.061  -0.790  0.00  0.00    +0.039 A 
ATOM     30  C   UNL     1       4.354  -7.398   0.187  0.00  0.00    +0.014 A 
ATOM     31  C   UNL     1       3.067  -7.736   0.423  0.00  0.00    +0.012 A 
ATOM     32  C   UNL     1       2.457  -8.819  -0.356  0.00  0.00    +0.014 A 
ATOM     33  C   UNL     1       1.216  -9.369  -0.344  0.00  0.00    +0.047 C 
ATOM     34  C   UNL     1       1.230 -10.454  -1.398  0.00  0.00    +0.161 C 
ATOM     35  N   UNL     1       2.580 -10.438  -1.973  0.00  0.00    -0.379 N 
ATOM     36  C   UNL     1       3.280  -9.503  -1.376  0.00  0.00    +0.045 A 
ATOM     37  C   UNL     1       4.624  -9.070  -1.554  0.00  0.00    +0.039 A 
ATOM     38 CL   UNL     1      -0.117  -8.919   0.673  0.00  0.00    -0.086 Cl
ATOM     39  H   UNL     1       2.902 -11.022  -2.678  0.00  0.00    +0.160 HD
ENDBRANCH  26  29
ENDBRANCH   5  25
TORSDOF 5
