REMARK  Name = ZINC09952797
REMARK  6 active torsions:
REMARK  status: ('A' for Active; 'I' for Inactive)
REMARK    1  A    between atoms: C_4  and  C_7
REMARK    2  A    between atoms: C_7  and  C_30
REMARK    3  A    between atoms: N_10  and  N_14
REMARK    4  A    between atoms: C_15  and  C_17
REMARK    5  A    between atoms: C_17  and  N_61
REMARK    6  A    between atoms: C_23  and  C_25
REMARK                            x       y       z     vdW  Elec       q    Type
REMARK                         _______ _______ _______ _____ _____    ______ ____
ROOT
ATOM      1  C   UNL     1      -0.820   2.769   1.079  0.00  0.00    +0.165 C 
ATOM      2  C   UNL     1      -0.342   1.491   0.419  0.00  0.00    +0.272 C 
ATOM      3  O   UNL     1      -1.013   0.529   0.114  0.00  0.00    -0.270 OA
ATOM      4  N   UNL     1       0.984   1.650   0.235  0.00  0.00    -0.137 N 
ATOM      5  C   UNL     1       1.406   2.837   0.688  0.00  0.00    +0.327 C 
ATOM      6  O   UNL     1       2.562   3.208   0.633  0.00  0.00    -0.251 OA
ATOM      7  N   UNL     1       0.408   3.572   1.210  0.00  0.00    -0.276 N 
ATOM      8  H   UNL     1       0.482   4.460   1.594  0.00  0.00    +0.152 HD
ENDROOT
BRANCH   1  12
ATOM      9  C   UNL     1      -3.670   4.765  -1.400  0.00  0.00    +0.000 A 
ATOM     10  C   UNL     1      -2.663   5.486  -0.786  0.00  0.00    +0.000 A 
ATOM     11  C   UNL     1      -1.741   4.840   0.016  0.00  0.00    +0.006 A 
ATOM     12  C   UNL     1      -1.826   3.473   0.204  0.00  0.00    -0.011 A 
ATOM     13  C   UNL     1      -2.830   2.752  -0.413  0.00  0.00    +0.006 A 
ATOM     14  C   UNL     1      -3.755   3.398  -1.212  0.00  0.00    +0.000 A 
ENDBRANCH   1  12
BRANCH   1  15
ATOM     15  C   UNL     1      -1.408   2.478   2.436  0.00  0.00    -0.011 A 
ATOM     16  C   UNL     1      -2.443   1.570   2.560  0.00  0.00    +0.006 A 
ATOM     17  C   UNL     1      -2.978   1.299   3.805  0.00  0.00    +0.000 A 
ATOM     18  C   UNL     1      -2.485   1.942   4.925  0.00  0.00    +0.000 A 
ATOM     19  C   UNL     1      -1.454   2.854   4.800  0.00  0.00    +0.000 A 
ATOM     20  C   UNL     1      -0.915   3.122   3.555  0.00  0.00    +0.006 A 
ENDBRANCH   1  15
BRANCH   4  21
ATOM     21  N   UNL     1       1.817   0.692  -0.356  0.00  0.00    -0.225 N 
ATOM     22  C   UNL     1       2.260   0.870  -1.617  0.00  0.00    +0.213 C 
ATOM     23  O   UNL     1       1.938   1.860  -2.238  0.00  0.00    -0.276 OA
ATOM     24  H   UNL     1       2.075  -0.100   0.141  0.00  0.00    +0.173 HD
BRANCH  22  25
ATOM     25  C   UNL     1       3.156  -0.161  -2.253  0.00  0.00    +0.020 C 
BRANCH  25  33
ATOM     26  C   UNL     1       2.307   0.280  -4.477  0.00  0.00    -0.059 C 
ATOM     27  C   UNL     1       2.668   0.896  -5.833  0.00  0.00    +0.089 C 
ATOM     28  N   UNL     1       3.823   0.170  -6.384  0.00  0.00    -0.299 N 
ATOM     29  C   UNL     1       5.006  -0.007  -5.528  0.00  0.00    +0.089 C 
ATOM     30  C   UNL     1       4.552  -0.588  -4.185  0.00  0.00    -0.059 C 
ATOM     31  C   UNL     1       3.797  -0.320  -7.639  0.00  0.00    +0.282 C 
ATOM     32  O   UNL     1       4.790  -0.843  -8.108  0.00  0.00    -0.267 OA
ATOM     33  N   UNL     1       3.509   0.291  -3.615  0.00  0.00    +0.387 N 
ATOM     34  H   UNL     1       3.873   1.250  -3.564  0.00  0.00    -0.081 HD
BRANCH  31  35
ATOM     35  C   UNL     1       2.571  -0.223  -8.439  0.00  0.00    +0.189 A 
ATOM     36  C   UNL     1       2.368  -0.786  -9.666  0.00  0.00    +0.054 A 
ATOM     37  C   UNL     1       1.065  -0.441 -10.057  0.00  0.00    +0.042 A 
ATOM     38  C   UNL     1       0.537   0.308  -9.064  0.00  0.00    +0.196 A 
ATOM     39  O   UNL     1       1.446   0.432  -8.088  0.00  0.00    -0.458 OA
ENDBRANCH  31  35
ENDBRANCH  25  33
ENDBRANCH  22  25
ENDBRANCH   4  21
TORSDOF 6
