REMARK  Name = ZINC20495085
REMARK  3 active torsions:
REMARK  status: ('A' for Active; 'I' for Inactive)
REMARK    1  A    between atoms: C_5  and  C_7
REMARK    2  A    between atoms: C_7  and  N_8
REMARK    3  A    between atoms: N_17  and  C_21
REMARK                            x       y       z     vdW  Elec       q    Type
REMARK                         _______ _______ _______ _____ _____    ______ ____
ROOT
ATOM      1  N   UNL     1       3.127   2.092  -1.793  0.00  0.00    -0.278 NA
ATOM      2  C   UNL     1       2.280   1.183  -1.006  0.00  0.00    +0.130 C 
ATOM      3  C   UNL     1       1.087   1.938  -0.481  0.00  0.00    +0.069 A 
ATOM      4  C   UNL     1      -0.006   1.215   0.029  0.00  0.00    +0.260 A 
ATOM      5  O   UNL     1       0.015  -0.004   0.035  0.00  0.00    -0.267 OA
ATOM      6  N   UNL     1      -1.079   1.874   0.506  0.00  0.00    -0.274 N 
ATOM      7  H   UNL     1      -1.942   1.313   0.895  0.00  0.00    +0.173 HD
ATOM      8  C   UNL     1      -1.105   3.220   0.510  0.00  0.00    +0.335 A 
ATOM      9  O   UNL     1      -2.078   3.799   0.953  0.00  0.00    -0.246 OA
ATOM     10  N   UNL     1      -0.073   3.933   0.027  0.00  0.00    -0.250 N 
ATOM     11  C   UNL     1       1.042   3.299  -0.483  0.00  0.00    +0.118 A 
ATOM     12  N   UNL     1       2.062   4.068  -0.974  0.00  0.00    -0.317 N 
ATOM     13  C   UNL     1       3.334   3.343  -1.046  0.00  0.00    +0.191 C 
ATOM     14  H   UNL     1       2.008   5.117  -1.298  0.00  0.00    +0.149 HD
ENDROOT
BRANCH  10  15
ATOM     15  C   UNL     1      -0.130   5.333   0.041  0.00  0.00    +0.053 A 
ATOM     16  C   UNL     1      -0.674   6.018  -1.037  0.00  0.00    +0.028 A 
ATOM     17  C   UNL     1      -0.734   7.397  -1.019  0.00  0.00    +0.022 A 
ATOM     18  C   UNL     1      -0.242   8.098   0.068  0.00  0.00    +0.041 A 
ATOM     19  C   UNL     1       0.306   7.418   1.142  0.00  0.00    +0.022 A 
ATOM     20  C   UNL     1       0.363   6.038   1.131  0.00  0.00    +0.028 A 
ATOM     21 CL   UNL     1      -0.311   9.832   0.086  0.00  0.00    -0.084 Cl
ENDBRANCH  10  15
BRANCH   1  22
ATOM     22  C   UNL     1       4.410   1.459  -2.127  0.00  0.00    +0.123 C 
BRANCH  22  27
ATOM     23  C   UNL     1       6.937   3.881  -3.543  0.00  0.00    +0.000 A 
ATOM     24  C   UNL     1       6.551   3.939  -4.870  0.00  0.00    +0.001 A 
ATOM     25  C   UNL     1       5.472   3.195  -5.309  0.00  0.00    +0.020 A 
ATOM     26  C   UNL     1       4.782   2.388  -4.422  0.00  0.00    +0.045 A 
ATOM     27  C   UNL     1       5.165   2.334  -3.094  0.00  0.00    -0.015 A 
ATOM     28  C   UNL     1       6.244   3.079  -2.656  0.00  0.00    +0.006 A 
ATOM     29 CL   UNL     1       3.431   1.447  -4.975  0.00  0.00    -0.083 Cl
ENDBRANCH  22  27
ENDBRANCH   1  22
TORSDOF 3
