REMARK  Name = ZINC64896240
REMARK  12 active torsions:
REMARK  status: ('A' for Active; 'I' for Inactive)
REMARK    1  A    between atoms: C_1  and  C_2
REMARK    2  A    between atoms: C_4  and  C_30
REMARK    3  A    between atoms: C_5  and  C_29
REMARK    4  A    between atoms: C_7  and  C_8
REMARK    5  A    between atoms: C_14  and  C_17
REMARK    6  A    between atoms: N_19  and  C_20
REMARK    7  A    between atoms: C_20  and  C_21
REMARK    8  A    between atoms: C_21  and  N_22
REMARK    9  A    between atoms: C_30  and  O_32
REMARK   10  A    between atoms: O_32  and  C_33
REMARK   11  A    between atoms: C_33  and  C_34
REMARK   12  A    between atoms: C_33  and  C_35
REMARK                            x       y       z     vdW  Elec       q    Type
REMARK                         _______ _______ _______ _____ _____    ______ ____
ROOT
ATOM      1  C   UNL     1       0.550  -0.676   2.602  0.00  0.00    +0.261 C 
ATOM      2  O   UNL     1      -0.282   0.142   2.940  0.00  0.00    -0.269 OA
ATOM      3  N   UNL     1       1.237  -1.364   3.535  0.00  0.00    -0.296 N 
ATOM      4  C   UNL     1       2.322  -2.275   3.146  0.00  0.00    +0.108 C 
ATOM      5  C   UNL     1       2.054  -3.652   3.761  0.00  0.00    +0.020 C 
ATOM      6  C   UNL     1       1.869  -3.505   5.273  0.00  0.00    +0.016 C 
ATOM      7  C   UNL     1       0.662  -2.607   5.555  0.00  0.00    +0.092 C 
ATOM      8  C   UNL     1       0.918  -1.213   4.962  0.00  0.00    +0.120 C 
ENDROOT
BRANCH   1  14
ATOM      9  C   UNL     1       0.164   1.198  -0.015  0.00  0.00    +0.019 C 
ATOM     10  C   UNL     1       0.048  -0.328  -0.006  0.00  0.00    +0.078 C 
ATOM     11  C   UNL     1       0.755  -0.929  -1.207  0.00  0.00    +0.066 C 
ATOM     12  C   UNL     1       1.733  -1.705  -0.683  0.00  0.00    +0.049 C 
ATOM     13  N   UNL     1       1.738  -1.676   0.652  0.00  0.00    -0.250 NA
ATOM     14  C   UNL     1       0.809  -0.917   1.166  0.00  0.00    +0.111 C 
ATOM     15  C   UNL     1       2.703  -2.509  -1.510  0.00  0.00    +0.066 C 
BRANCH  11  16
ATOM     16  C   UNL     1       0.448  -0.715  -2.624  0.00  0.00    +0.338 C 
ATOM     17  O   UNL     1       1.109  -1.270  -3.480  0.00  0.00    -0.245 OA
BRANCH  16  18
ATOM     18  O   UNL     1      -0.569   0.098  -2.978  0.00  0.00    -0.459 OA
BRANCH  18  19
ATOM     19  C   UNL     1      -0.813   0.260  -4.377  0.00  0.00    +0.171 C 
ATOM     20  C   UNL     1      -2.301   0.529  -4.607  0.00  0.00    +0.052 C 
ATOM     21  C   UNL     1       0.007   1.440  -4.904  0.00  0.00    +0.052 C 
ENDBRANCH  18  19
ENDBRANCH  16  18
ENDBRANCH  11  16
ENDBRANCH   1  14
BRANCH   7  22
ATOM     22  C   UNL     1       0.461  -2.489   7.044  0.00  0.00    +0.218 C 
ATOM     23  O   UNL     1       1.208  -3.066   7.805  0.00  0.00    -0.275 OA
ATOM     24  N   UNL     1      -0.551  -1.742   7.530  0.00  0.00    -0.317 N 
ATOM     25  H   UNL     1      -1.148  -1.280   6.921  0.00  0.00    +0.149 HD
BRANCH  24  26
ATOM     26  C   UNL     1      -0.747  -1.628   8.977  0.00  0.00    +0.085 C 
BRANCH  26  27
ATOM     27  C   UNL     1      -1.953  -0.730   9.259  0.00  0.00    -0.060 C 
BRANCH  27  28
ATOM     28  N   UNL     1      -2.100  -0.548  10.709  0.00  0.00    +0.381 N 
ATOM     29  C   UNL     1      -3.397   0.105  10.975  0.00  0.00    -0.079 C 
ATOM     30  C   UNL     1      -3.823  -0.244  12.380  0.00  0.00    -0.019 C 
ATOM     31  C   UNL     1      -3.425   0.859  13.379  0.00  0.00    -0.002 C 
ATOM     32  C   UNL     1      -2.018   1.417  13.085  0.00  0.00    -0.002 C 
ATOM     33  C   UNL     1      -1.036   0.334  12.717  0.00  0.00    -0.019 C 
ATOM     34  C   UNL     1      -1.007   0.179  11.182  0.00  0.00    -0.079 C 
ATOM     35  H   UNL     1      -2.100  -1.456  11.150  0.00  0.00    -0.082 HD
ENDBRANCH  27  28
ENDBRANCH  26  27
ENDBRANCH  24  26
ENDBRANCH   7  22
TORSDOF 8
