REMARK  Name = ZINC62793046
REMARK  6 active torsions:
REMARK  status: ('A' for Active; 'I' for Inactive)
REMARK    1  A    between atoms: C_1  and  N_2
REMARK    2  A    between atoms: N_2  and  C_3
REMARK    3  A    between atoms: N_2  and  C_10
REMARK    4  A    between atoms: C_3  and  C_4
REMARK    5  A    between atoms: C_13  and  C_17
REMARK    6  A    between atoms: C_17  and  N_18
REMARK                            x       y       z     vdW  Elec       q    Type
REMARK                         _______ _______ _______ _____ _____    ______ ____
ROOT
ATOM      1  C   UNL     1       0.000  -0.696  -1.212  0.00  0.00    +0.048 A 
ATOM      2  C   UNL     1       1.201  -1.030  -1.825  0.00  0.00    +0.025 A 
ATOM      3  C   UNL     1       1.195  -1.714  -3.025  0.00  0.00    +0.003 A 
ATOM      4  C   UNL     1      -0.004  -2.067  -3.616  0.00  0.00    -0.063 A 
ATOM      5  C   UNL     1      -1.202  -1.738  -3.009  0.00  0.00    +0.023 A 
ATOM      6  C   UNL     1      -1.204  -1.058  -1.806  0.00  0.00    +0.062 A 
ATOM      7 CL   UNL     1      -2.707  -0.649  -1.041  0.00  0.00    -0.082 Cl
ENDROOT
BRANCH   1   9
ATOM      8  C   UNL     1      -0.018   1.461   0.010  0.00  0.00    +0.129 C 
ATOM      9  N   UNL     1       0.002  -0.004   0.002  0.00  0.00    -0.327 N 
BRANCH   9  10
ATOM     10  C   UNL     1       0.024  -0.743   1.267  0.00  0.00    +0.140 C 
BRANCH  10  11
ATOM     11  C   UNL     1      -1.389  -1.016   1.714  0.00  0.00    -0.022 A 
ATOM     12  C   UNL     1      -2.057  -0.112   2.519  0.00  0.00    +0.028 A 
ATOM     13  C   UNL     1      -3.328  -0.389   2.903  0.00  0.00    +0.055 A 
ATOM     14  S   UNL     1      -3.616  -1.966   2.119  0.00  0.00    -0.090 S 
ATOM     15  C   UNL     1      -2.026  -2.148   1.328  0.00  0.00    +0.051 A 
ATOM     16 BR   UNL     1      -4.492   0.632   3.989  0.00  0.00    -0.043 Br
ENDBRANCH  10  11
ENDBRANCH   9  10
ENDBRANCH   1   9
BRANCH   4  17
ATOM     17  C   UNL     1      -0.005  -2.813  -4.926  0.00  0.00    -0.051 C 
BRANCH  17  18
ATOM     18  N   UNL     1       0.011  -4.259  -4.665  0.00  0.00    +0.381 N 
ATOM     19  H   UNL     1       0.841  -4.498  -4.143  0.00  0.00    -0.090 HD
ATOM     20  H   UNL     1      -0.807  -4.514  -4.132  0.00  0.00    -0.090 HD
ATOM     21  H   UNL     1       0.010  -4.759  -5.542  0.00  0.00    -0.090 HD
ENDBRANCH  17  18
ENDBRANCH   4  17
TORSDOF 5
