REMARK  Name = ZINC35711611
REMARK  12 active torsions:
REMARK  status: ('A' for Active; 'I' for Inactive)
REMARK    1  A    between atoms: C_1  and  C_2
REMARK    2  A    between atoms: C_5  and  C_9
REMARK    3  A    between atoms: C_6  and  C_8
REMARK    4  A    between atoms: C_9  and  N_10
REMARK    5  A    between atoms: N_10  and  C_11
REMARK    6  A    between atoms: N_10  and  C_28
REMARK    7  A    between atoms: C_11  and  C_12
REMARK    8  A    between atoms: C_14  and  C_17
REMARK    9  A    between atoms: N_19  and  C_20
REMARK   10  A    between atoms: C_20  and  C_21
REMARK   11  A    between atoms: C_28  and  C_30
REMARK   12  A    between atoms: C_28  and  C_31
REMARK                            x       y       z     vdW  Elec       q    Type
REMARK                         _______ _______ _______ _____ _____    ______ ____
ROOT
ATOM      1  N   UNL     1      -1.016  -4.603   0.678  0.00  0.00    +0.393 N 
ATOM      2  H   UNL     1      -1.128  -4.073   1.529  0.00  0.00    -0.080 HD
ENDROOT
BRANCH   1   3
ATOM      3  C   UNL     1      -1.944  -4.096  -0.341  0.00  0.00    -0.040 C 
ATOM      4  C   UNL     1      -3.344  -4.653  -0.077  0.00  0.00    -0.008 C 
BRANCH   3   5
ATOM      5  C   UNL     1      -1.982  -2.591  -0.281  0.00  0.00    -0.061 A 
ATOM      6  C   UNL     1      -2.225  -1.953   0.921  0.00  0.00    +0.002 A 
ATOM      7  C   UNL     1      -2.260  -0.572   0.975  0.00  0.00    +0.000 A 
ATOM      8  C   UNL     1      -2.051   0.171  -0.172  0.00  0.00    +0.000 A 
ATOM      9  C   UNL     1      -1.807  -0.467  -1.373  0.00  0.00    +0.000 A 
ATOM     10  C   UNL     1      -1.768  -1.848  -1.427  0.00  0.00    +0.002 A 
ENDBRANCH   3   5
ENDBRANCH   1   3
BRANCH   1  11
ATOM     11  C   UNL     1       0.365  -4.466   0.195  0.00  0.00    -0.041 C 
BRANCH  11  16
ATOM     12  C   UNL     1       1.785   1.131  -0.008  0.00  0.00    +0.044 C 
ATOM     13  C   UNL     1       1.415  -0.328   0.045  0.00  0.00    -0.050 A 
ATOM     14  C   UNL     1       1.195  -1.029  -1.127  0.00  0.00    +0.003 A 
ATOM     15  C   UNL     1       0.856  -2.368  -1.078  0.00  0.00    +0.002 A 
ATOM     16  C   UNL     1       0.736  -3.007   0.142  0.00  0.00    -0.061 A 
ATOM     17  C   UNL     1       0.956  -2.307   1.313  0.00  0.00    -0.049 A 
ATOM     18  C   UNL     1       1.300  -0.968   1.264  0.00  0.00    +0.007 A 
ATOM     19  C   UNL     1       0.825  -3.003   2.643  0.00  0.00    +0.044 C 
ENDBRANCH  11  16
ENDBRANCH   1  11
BRANCH   1  20
ATOM     20  C   UNL     1      -1.304  -6.019   0.942  0.00  0.00    +0.020 C 
BRANCH  20  21
ATOM     21  C   UNL     1      -2.515  -6.128   1.831  0.00  0.00    +0.179 A 
ATOM     22  N   UNL     1      -3.630  -6.717   1.516  0.00  0.00    -0.210 NA
ATOM     23  C   UNL     1      -4.486  -6.612   2.568  0.00  0.00    +0.163 A 
ATOM     24  C   UNL     1      -3.835  -5.927   3.547  0.00  0.00    +0.230 A 
ATOM     25  O   UNL     1      -2.612  -5.638   3.075  0.00  0.00    -0.449 OA
BRANCH  23  26
ATOM     26  C   UNL     1      -5.860  -7.141   2.635  0.00  0.00    +0.266 C 
ATOM     27  O   UNL     1      -6.526  -6.980   3.640  0.00  0.00    -0.268 OA
ATOM     28  N   UNL     1      -6.379  -7.804   1.583  0.00  0.00    -0.306 N 
ATOM     29  H   UNL     1      -5.848  -7.933   0.781  0.00  0.00    +0.149 HD
BRANCH  28  30
ATOM     30  C   UNL     1      -7.745  -8.330   1.649  0.00  0.00    +0.140 C 
BRANCH  30  31
ATOM     31  C   UNL     1      -8.080  -9.023   0.354  0.00  0.00    -0.030 A 
ATOM     32  C   UNL     1      -8.647  -8.309  -0.685  0.00  0.00    +0.008 A 
ATOM     33  C   UNL     1      -8.954  -8.943  -1.874  0.00  0.00    +0.038 A 
ATOM     34  C   UNL     1      -8.694 -10.295  -2.024  0.00  0.00    +0.123 A 
ATOM     35  C   UNL     1      -8.127 -11.009  -0.983  0.00  0.00    +0.038 A 
ATOM     36  C   UNL     1      -7.815 -10.372   0.203  0.00  0.00    +0.008 A 
ATOM     37  F   UNL     1      -8.995 -10.916  -3.186  0.00  0.00    -0.205 F 
ENDBRANCH  30  31
ENDBRANCH  28  30
ENDBRANCH  23  26
ENDBRANCH  20  21
ENDBRANCH   1  20
TORSDOF 9
