REMARK  Name = ZINC13032354
REMARK  14 active torsions:
REMARK  status: ('A' for Active; 'I' for Inactive)
REMARK    1  A    between atoms: C_1  and  C_2
REMARK    2  A    between atoms: C_2  and  C_3
REMARK    3  A    between atoms: C_3  and  C_4
REMARK    4  A    between atoms: C_3  and  C_5
REMARK    5  A    between atoms: C_3  and  N_6
REMARK    6  A    between atoms: C_7  and  C_9
REMARK    7  A    between atoms: C_9  and  C_11
REMARK    8  A    between atoms: C_9  and  N_18
REMARK    9  A    between atoms: C_14  and  O_17
REMARK   10  A    between atoms: N_18  and  C_19
REMARK   11  A    between atoms: C_24  and  O_25
REMARK   12  A    between atoms: O_25  and  C_26
REMARK   13  A    between atoms: C_27  and  C_29
REMARK   14  A    between atoms: C_29  and  N_30
REMARK                            x       y       z     vdW  Elec       q    Type
REMARK                         _______ _______ _______ _____ _____    ______ ____
ROOT
ATOM      1  N   UNL     1      -4.752   3.503  -1.835  0.00  0.00    -0.250 N 
ATOM      2  C   UNL     1      -4.374   4.726  -1.413  0.00  0.00    +0.242 C 
ATOM      3  O   UNL     1      -4.703   5.712  -2.039  0.00  0.00    -0.273 OA
ENDROOT
BRANCH   1   4
ATOM      4  C   UNL     1      -4.372   2.364  -1.112  0.00  0.00    +0.079 A 
ATOM      5  C   UNL     1      -5.014   2.049   0.077  0.00  0.00    +0.027 A 
ATOM      6  C   UNL     1      -4.638   0.925   0.788  0.00  0.00    +0.002 A 
ATOM      7  C   UNL     1      -3.623   0.113   0.318  0.00  0.00    +0.004 A 
ATOM      8  C   UNL     1      -2.979   0.420  -0.866  0.00  0.00    +0.047 A 
ATOM      9  C   UNL     1      -3.353   1.543  -1.587  0.00  0.00    +0.141 A 
BRANCH   9  10
ATOM     10  O   UNL     1      -2.724   1.843  -2.755  0.00  0.00    -0.493 OA
ATOM     11  C   UNL     1      -1.688   0.956  -3.181  0.00  0.00    +0.277 C 
ENDBRANCH   9  10
ENDBRANCH   1   4
BRANCH   1  12
ATOM     12  C   UNL     1      -5.559   3.364  -3.049  0.00  0.00    +0.197 C 
BRANCH  12  13
ATOM     13  C   UNL     1      -6.923   3.962  -2.817  0.00  0.00    -0.018 A 
ATOM     14  C   UNL     1      -7.616   3.672  -1.657  0.00  0.00    +0.009 A 
ATOM     15  C   UNL     1      -8.863   4.224  -1.439  0.00  0.00    +0.046 A 
ATOM     16  C   UNL     1      -9.426   5.061  -2.392  0.00  0.00    +0.117 A 
ATOM     17  C   UNL     1      -8.731   5.346  -3.558  0.00  0.00    +0.046 A 
ATOM     18  C   UNL     1      -7.481   4.796  -3.768  0.00  0.00    +0.009 A 
BRANCH  16  19
ATOM     19  O   UNL     1     -10.656   5.600  -2.183  0.00  0.00    -0.507 OA
ATOM     20  H   UNL     1     -11.384   5.058  -2.516  0.00  0.00    +0.292 HD
ENDBRANCH  16  19
ENDBRANCH  12  13
BRANCH  12  22
ATOM     21  N   UNL     1      -5.715   1.512  -4.682  0.00  0.00    -0.308 N 
ATOM     22  C   UNL     1      -5.703   1.903  -3.392  0.00  0.00    +0.239 C 
ATOM     23  O   UNL     1      -5.809   1.080  -2.507  0.00  0.00    -0.273 OA
ATOM     24  H   UNL     1      -5.630   2.170  -5.389  0.00  0.00    +0.149 HD
BRANCH  21  25
ATOM     25  C   UNL     1      -5.855   0.092  -5.015  0.00  0.00    +0.029 C 
ATOM     26  C   UNL     1      -4.694  -0.693  -4.400  0.00  0.00    +0.031 C 
ATOM     27  C   UNL     1      -7.179  -0.434  -4.457  0.00  0.00    +0.031 C 
BRANCH  25  29
ATOM     28  C   UNL     1      -5.984  -1.562  -6.883  0.00  0.00    +0.006 C 
ATOM     29  C   UNL     1      -5.838  -0.079  -6.535  0.00  0.00    +0.022 C 
ENDBRANCH  25  29
ENDBRANCH  21  25
ENDBRANCH  12  22
ENDBRANCH   1  12
BRANCH   2  30
ATOM     30  C   UNL     1      -3.544   4.869  -0.164  0.00  0.00    +0.242 C 
BRANCH  30  31
ATOM     31  N   UNL     1      -3.267   6.287   0.079  0.00  0.00    -0.235 N 
ATOM     32  C   UNL     1      -2.193   7.007  -0.387  0.00  0.00    +0.090 A 
ATOM     33  C   UNL     1      -1.092   6.698  -1.178  0.00  0.00    +0.029 A 
ATOM     34  C   UNL     1      -0.171   7.665  -1.468  0.00  0.00    +0.002 A 
ATOM     35  C   UNL     1      -0.329   8.958  -0.988  0.00  0.00    +0.002 A 
ATOM     36  C   UNL     1      -1.402   9.289  -0.214  0.00  0.00    +0.032 A 
ATOM     37  C   UNL     1      -2.359   8.315   0.103  0.00  0.00    +0.113 A 
ATOM     38  N   UNL     1      -3.495   8.340   0.827  0.00  0.00    -0.129 NA
ATOM     39  N   UNL     1      -4.047   7.177   0.832  0.00  0.00    -0.064 NA
ENDBRANCH  30  31
ENDBRANCH   2  30
TORSDOF 10
