REMARK  Name = ZINC15305085
REMARK  8 active torsions:
REMARK  status: ('A' for Active; 'I' for Inactive)
REMARK    1  A    between atoms: C_1  and  N_57
REMARK    2  A    between atoms: C_2  and  C_3
REMARK    3  A    between atoms: C_2  and  N_57
REMARK    4  A    between atoms: C_13  and  C_14
REMARK    5  A    between atoms: C_13  and  N_57
REMARK    6  A    between atoms: N_16  and  C_17
REMARK    7  A    between atoms: N_16  and  C_23
REMARK    8  A    between atoms: C_17  and  C_18
REMARK                            x       y       z     vdW  Elec       q    Type
REMARK                         _______ _______ _______ _____ _____    ______ ____
ROOT
ATOM      1  C   UNL     1       5.237  -1.819  -1.559  0.00  0.00    +0.019 C 
ENDROOT
BRANCH   1   3
ATOM      2  C   UNL     1       4.463   0.373  -2.234  0.00  0.00    -0.095 C 
ATOM      3  N   UNL     1       4.092  -0.885  -1.553  0.00  0.00    +0.386 N 
ATOM      4  H   UNL     1       3.307  -1.317  -2.054  0.00  0.00    -0.081 HD
BRANCH   3   5
ATOM      5  C   UNL     1       3.677  -0.604  -0.163  0.00  0.00    -0.043 C 
BRANCH   5   6
ATOM      6  C   UNL     1       2.382   0.167  -0.188  0.00  0.00    -0.060 A 
ATOM      7  C   UNL     1       1.177  -0.509  -0.193  0.00  0.00    +0.005 A 
ATOM      8  C   UNL     1      -0.013   0.194  -0.217  0.00  0.00    +0.049 A 
ATOM      9  C   UNL     1       0.000   1.581  -0.237  0.00  0.00    +0.162 A 
ATOM     10  C   UNL     1       1.212   2.261  -0.230  0.00  0.00    +0.162 A 
ATOM     11  C   UNL     1       2.402   1.549  -0.206  0.00  0.00    +0.051 A 
ATOM     12  O   UNL     1       1.248   3.621  -0.240  0.00  0.00    -0.485 OA
ATOM     13  C   UNL     1       0.048   4.293  -0.641  0.00  0.00    +0.270 C 
ATOM     14  C   UNL     1      -1.134   3.644   0.092  0.00  0.00    +0.270 C 
ATOM     15  O   UNL     1      -1.179   2.259  -0.270  0.00  0.00    -0.485 OA
ENDBRANCH   5   6
ENDBRANCH   3   5
ENDBRANCH   1   3
BRANCH   1  16
ATOM     16  C   UNL     1       5.498  -2.260  -2.977  0.00  0.00    +0.203 C 
ATOM     17  O   UNL     1       4.750  -1.913  -3.866  0.00  0.00    -0.277 OA
ATOM     18  N   UNL     1       6.561  -3.040  -3.255  0.00  0.00    -0.270 N 
BRANCH  18  19
ATOM     19  C   UNL     1       7.354  -3.531  -2.222  0.00  0.00    +0.010 C 
ATOM     20  C   UNL     1       6.816  -4.373  -1.384  0.00  0.00    -0.008 C 
ATOM     21  C   UNL     1       7.545  -4.977  -0.219  0.00  0.00    +0.029 C 
ATOM     22  C   UNL     1       9.055  -4.815  -0.401  0.00  0.00    +0.004 C 
ATOM     23  C   UNL     1       9.348  -3.350  -0.751  0.00  0.00    +0.006 C 
ATOM     24  C   UNL     1       8.778  -3.064  -2.143  0.00  0.00    +0.051 C 
ENDBRANCH  18  19
BRANCH  18  25
ATOM     25  C   UNL     1       6.882  -3.370  -4.646  0.00  0.00    +0.187 C 
BRANCH  25  26
ATOM     26  C   UNL     1       7.706  -2.262  -5.248  0.00  0.00    +0.122 A 
ATOM     27  C   UNL     1       9.049  -2.182  -5.233  0.00  0.00    +0.046 A 
ATOM     28  C   UNL     1       9.396  -0.988  -5.907  0.00  0.00    +0.041 A 
ATOM     29  C   UNL     1       8.245  -0.410  -6.293  0.00  0.00    +0.195 A 
ATOM     30  O   UNL     1       7.225  -1.188  -5.896  0.00  0.00    -0.466 OA
ENDBRANCH  25  26
ENDBRANCH  18  25
ENDBRANCH   1  16
TORSDOF 7
