REMARK  Name = ZINC36545159
REMARK  16 active torsions:
REMARK  status: ('A' for Active; 'I' for Inactive)
REMARK    1  A    between atoms: C_1  and  C_2
REMARK    2  A    between atoms: C_2  and  C_3
REMARK    3  A    between atoms: C_2  and  C_4
REMARK    4  A    between atoms: C_2  and  C_5
REMARK    5  A    between atoms: C_5  and  C_6
REMARK    6  A    between atoms: C_6  and  C_7
REMARK    7  A    between atoms: C_6  and  C_8
REMARK    8  A    between atoms: C_6  and  N_9
REMARK    9  A    between atoms: C_10  and  C_12
REMARK   10  A    between atoms: C_12  and  C_14
REMARK   11  A    between atoms: C_12  and  N_21
REMARK   12  A    between atoms: C_17  and  O_20
REMARK   13  A    between atoms: N_21  and  C_22
REMARK   14  A    between atoms: C_29  and  C_31
REMARK   15  A    between atoms: C_32  and  O_38
REMARK   16  A    between atoms: C_36  and  O_37
REMARK                            x       y       z     vdW  Elec       q    Type
REMARK                         _______ _______ _______ _____ _____    ______ ____
ROOT
ATOM      1  C   UNL     1       5.411  -0.646  -4.411  0.00  0.00    +0.198 C 
ENDROOT
BRANCH   1   2
ATOM      2  C   UNL     1       5.309  -1.911  -5.225  0.00  0.00    -0.018 A 
ATOM      3  C   UNL     1       6.127  -2.987  -4.934  0.00  0.00    +0.009 A 
ATOM      4  C   UNL     1       6.035  -4.147  -5.678  0.00  0.00    +0.046 A 
ATOM      5  C   UNL     1       5.122  -4.232  -6.718  0.00  0.00    +0.117 A 
ATOM      6  C   UNL     1       4.302  -3.151  -7.008  0.00  0.00    +0.046 A 
ATOM      7  C   UNL     1       4.393  -1.995  -6.258  0.00  0.00    +0.009 A 
BRANCH   5   8
ATOM      8  O   UNL     1       5.030  -5.372  -7.452  0.00  0.00    -0.507 OA
ATOM      9  H   UNL     1       4.396  -6.013  -7.105  0.00  0.00    +0.292 HD
ENDBRANCH   5   8
ENDBRANCH   1   2
BRANCH   1  11
ATOM     10  N   UNL     1       3.494  -1.233  -2.962  0.00  0.00    -0.308 N 
ATOM     11  C   UNL     1       4.788  -0.869  -3.057  0.00  0.00    +0.239 C 
ATOM     12  O   UNL     1       5.452  -0.720  -2.053  0.00  0.00    -0.273 OA
ATOM     13  H   UNL     1       2.963  -1.352  -3.765  0.00  0.00    +0.149 HD
BRANCH  10  14
ATOM     14  C   UNL     1       2.889  -1.449  -1.645  0.00  0.00    +0.030 C 
ATOM     15  C   UNL     1       3.188  -0.250  -0.743  0.00  0.00    +0.031 C 
ATOM     16  C   UNL     1       3.471  -2.717  -1.018  0.00  0.00    +0.031 C 
BRANCH  14  17
ATOM     17  C   UNL     1       1.375  -1.605  -1.800  0.00  0.00    +0.031 C 
BRANCH  17  19
ATOM     18  C   UNL     1       1.065  -1.039  -4.213  0.00  0.00    +0.010 C 
ATOM     19  C   UNL     1       0.850  -0.553  -2.779  0.00  0.00    -0.036 C 
ATOM     20  C   UNL     1       1.605   0.761  -2.567  0.00  0.00    +0.010 C 
ATOM     21  C   UNL     1      -0.643  -0.328  -2.534  0.00  0.00    +0.010 C 
ENDBRANCH  17  19
ENDBRANCH  14  17
ENDBRANCH  10  14
ENDBRANCH   1  11
BRANCH   1  22
ATOM     22  N   UNL     1       6.821  -0.284  -4.247  0.00  0.00    -0.250 N 
ATOM     23  C   UNL     1       7.582  -0.031  -5.330  0.00  0.00    +0.259 C 
ATOM     24  O   UNL     1       7.130  -0.205  -6.446  0.00  0.00    -0.269 OA
BRANCH  22  25
ATOM     25  C   UNL     1       7.377  -0.200  -2.966  0.00  0.00    +0.056 A 
ATOM     26  C   UNL     1       8.009  -1.304  -2.408  0.00  0.00    +0.025 A 
ATOM     27  C   UNL     1       8.557  -1.218  -1.144  0.00  0.00    +0.002 A 
ATOM     28  C   UNL     1       8.477  -0.035  -0.432  0.00  0.00    +0.002 A 
ATOM     29  C   UNL     1       7.849   1.066  -0.983  0.00  0.00    +0.022 A 
ATOM     30  C   UNL     1       7.303   0.989  -2.251  0.00  0.00    +0.062 A 
ATOM     31 CL   UNL     1       6.520   2.374  -2.946  0.00  0.00    -0.082 Cl
ENDBRANCH  22  25
BRANCH  23  32
ATOM     32  C   UNL     1       8.961   0.456  -5.163  0.00  0.00    +0.120 A 
ATOM     33  C   UNL     1      10.018  -0.455  -5.015  0.00  0.00    +0.133 A 
ATOM     34  C   UNL     1      11.313   0.014  -4.858  0.00  0.00    +0.046 A 
ATOM     35  C   UNL     1      11.564   1.374  -4.847  0.00  0.00    +0.007 A 
ATOM     36  C   UNL     1      10.530   2.279  -4.992  0.00  0.00    +0.046 A 
ATOM     37  C   UNL     1       9.229   1.832  -5.156  0.00  0.00    +0.133 A 
BRANCH  37  38
ATOM     38  O   UNL     1       8.216   2.723  -5.304  0.00  0.00    -0.506 OA
ATOM     39  H   UNL     1       7.778   2.962  -4.476  0.00  0.00    +0.292 HD
ENDBRANCH  37  38
BRANCH  33  40
ATOM     40  O   UNL     1       9.774  -1.789  -5.024  0.00  0.00    -0.506 OA
ATOM     41  H   UNL     1       9.814  -2.190  -5.904  0.00  0.00    +0.292 HD
ENDBRANCH  33  40
ENDBRANCH  23  32
ENDBRANCH   1  22
TORSDOF 11
