REMARK  Name = ZINC39324860
REMARK  8 active torsions:
REMARK  status: ('A' for Active; 'I' for Inactive)
REMARK    1  A    between atoms: C_1  and  O_2
REMARK    2  A    between atoms: O_2  and  C_3
REMARK    3  A    between atoms: C_6  and  S_9
REMARK    4  A    between atoms: S_9  and  N_12
REMARK    5  A    between atoms: N_12  and  C_13
REMARK    6  A    between atoms: N_12  and  C_20
REMARK    7  A    between atoms: C_13  and  C_14
REMARK    8  A    between atoms: C_20  and  C_21
REMARK                            x       y       z     vdW  Elec       q    Type
REMARK                         _______ _______ _______ _____ _____    ______ ____
ROOT
ATOM      1  N   UNL     1       4.087  -2.559  -4.196  0.00  0.00    -0.171 NA
ENDROOT
BRANCH   1   2
ATOM      2  S   UNL     1       2.492  -2.247  -4.512  0.00  0.00    +0.061 S 
ATOM      3  O   UNL     1       1.823  -3.500  -4.501  0.00  0.00    -0.153 OA
ATOM      4  O   UNL     1       2.463  -1.377  -5.635  0.00  0.00    -0.153 OA
BRANCH   2   8
ATOM      5  C   UNL     1       0.870   0.115  -1.005  0.00  0.00    +0.120 A 
ATOM      6  C   UNL     1       1.435   0.776  -2.086  0.00  0.00    +0.047 A 
ATOM      7  C   UNL     1       1.929   0.053  -3.154  0.00  0.00    +0.032 A 
ATOM      8  C   UNL     1       1.861  -1.328  -3.147  0.00  0.00    +0.106 A 
ATOM      9  C   UNL     1       1.297  -1.988  -2.071  0.00  0.00    +0.032 A 
ATOM     10  C   UNL     1       0.807  -1.270  -0.998  0.00  0.00    +0.047 A 
BRANCH   5  12
ATOM     11  C   UNL     1       0.481   2.248  -0.029  0.00  0.00    +0.277 C 
ATOM     12  O   UNL     1       0.383   0.824   0.047  0.00  0.00    -0.495 OA
ENDBRANCH   5  12
ENDBRANCH   2   8
ENDBRANCH   1   2
BRANCH   1  13
ATOM     13  C   UNL     1       4.477  -3.831  -3.582  0.00  0.00    +0.146 C 
BRANCH  13  14
ATOM     14  C   UNL     1       4.871  -4.808  -4.659  0.00  0.00    -0.014 A 
ATOM     15  C   UNL     1       3.922  -5.640  -5.233  0.00  0.00    +0.008 A 
ATOM     16  C   UNL     1       4.330  -6.524  -6.220  0.00  0.00    +0.020 A 
ATOM     17  C   UNL     1       5.659  -6.547  -6.596  0.00  0.00    +0.111 A 
ATOM     18  N   UNL     1       6.535  -5.741  -6.028  0.00  0.00    -0.263 NA
ATOM     19  C   UNL     1       6.181  -4.884  -5.090  0.00  0.00    +0.115 A 
ENDBRANCH  13  14
ENDBRANCH   1  13
BRANCH   1  20
ATOM     20  C   UNL     1       5.109  -1.563  -4.530  0.00  0.00    +0.126 C 
BRANCH  20  21
ATOM     21  C   UNL     1       5.855  -1.152  -3.260  0.00  0.00    +0.114 C 
ATOM     22  C   UNL     1       6.982  -0.222  -3.663  0.00  0.00    -0.003 C 
ATOM     23  C   UNL     1       6.996   1.020  -3.110  0.00  0.00    -0.003 A 
ATOM     24  C   UNL     1       8.050   1.979  -3.445  0.00  0.00    +0.059 A 
ATOM     25  C   UNL     1       8.036   3.214  -2.875  0.00  0.00    +0.163 A 
ATOM     26  C   UNL     1       7.022   3.586  -1.969  0.00  0.00    +0.164 A 
ATOM     27  C   UNL     1       6.008   2.717  -1.618  0.00  0.00    +0.073 A 
ATOM     28  C   UNL     1       5.946   1.427  -2.156  0.00  0.00    +0.044 A 
ATOM     29  N   UNL     1       4.956   0.604  -1.803  0.00  0.00    -0.284 N 
ATOM     30  C   UNL     1       4.838  -0.624  -2.274  0.00  0.00    +0.225 C 
ATOM     31  O   UNL     1       3.913  -1.329  -1.915  0.00  0.00    -0.275 OA
ATOM     32  O   UNL     1       7.021   4.829  -1.417  0.00  0.00    -0.485 OA
ATOM     33  C   UNL     1       8.246   5.565  -1.476  0.00  0.00    +0.270 C 
ATOM     34  C   UNL     1       8.798   5.468  -2.904  0.00  0.00    +0.270 C 
ATOM     35  O   UNL     1       9.031   4.087  -3.200  0.00  0.00    -0.485 OA
ATOM     36  H   UNL     1       4.293   0.923  -1.171  0.00  0.00    +0.155 HD
ENDBRANCH  20  21
ENDBRANCH   1  20
TORSDOF 7
