REMARK  Name = ZINC02265216
REMARK  14 active torsions:
REMARK  status: ('A' for Active; 'I' for Inactive)
REMARK    1  A    between atoms: C_1  and  C_2
REMARK    2  A    between atoms: C_2  and  C_3
REMARK    3  A    between atoms: C_3  and  S_4
REMARK    4  A    between atoms: S_4  and  C_5
REMARK    5  A    between atoms: C_14  and  C_16
REMARK    6  A    between atoms: C_14  and  C_17
REMARK    7  A    between atoms: C_17  and  C_18
REMARK    8  A    between atoms: C_19  and  S_21
REMARK    9  A    between atoms: S_21  and  C_22
REMARK   10  A    between atoms: C_22  and  C_23
REMARK   11  A    between atoms: N_25  and  C_26
REMARK   12  A    between atoms: C_26  and  C_28
REMARK   13  A    between atoms: C_26  and  C_29
REMARK   14  A    between atoms: C_29  and  C_30
REMARK                            x       y       z     vdW  Elec       q    Type
REMARK                         _______ _______ _______ _____ _____    ______ ____
ROOT
ATOM      1  C   UNL     1      -4.342   6.987   5.943  0.00  0.00    +0.190 A 
ATOM      2  N   UNL     1      -4.335   7.356   7.217  0.00  0.00    -0.215 NA
ATOM      3  C   UNL     1      -4.005   6.492   8.158  0.00  0.00    +0.114 A 
ATOM      4  C   UNL     1      -3.651   5.163   7.850  0.00  0.00    +0.043 A 
ATOM      5  C   UNL     1      -3.307   4.318   8.992  0.00  0.00    -0.020 A 
ATOM      6  C   UNL     1      -3.362   4.886  10.216  0.00  0.00    +0.021 A 
ATOM      7  S   UNL     1      -3.867   6.558   9.926  0.00  0.00    -0.071 S 
ATOM      8  C   UNL     1      -3.052   4.216  11.518  0.00  0.00    +0.203 C 
ATOM      9  O   UNL     1      -2.385   2.977  11.230  0.00  0.00    -0.368 OA
ATOM     10  C   UNL     1      -3.047   2.193  10.234  0.00  0.00    +0.071 C 
ATOM     11  C   UNL     1      -2.900   2.852   8.860  0.00  0.00    +0.071 C 
ATOM     12  C   UNL     1      -4.532   2.079  10.586  0.00  0.00    +0.042 C 
ATOM     13  C   UNL     1      -3.678   4.827   6.467  0.00  0.00    +0.110 A 
ATOM     14  N   UNL     1      -4.015   5.752   5.582  0.00  0.00    -0.215 NA
ENDROOT
BRANCH  10  15
ATOM     15  C   UNL     1      -2.427   0.794  10.194  0.00  0.00    +0.032 C 
ATOM     16  C   UNL     1      -2.682   0.085  11.526  0.00  0.00    +0.007 C 
ENDBRANCH  10  15
BRANCH   1  17
ATOM     17  S   UNL     1      -4.786   8.160   4.706  0.00  0.00    -0.086 S 
BRANCH  17  18
ATOM     18  C   UNL     1      -4.623   7.132   3.225  0.00  0.00    +0.077 C 
BRANCH  18  20
ATOM     19  C   UNL     1      -4.832   7.093   0.736  0.00  0.00    +0.004 C 
ATOM     20  C   UNL     1      -4.970   7.962   1.987  0.00  0.00    +0.008 C 
ENDBRANCH  18  20
ENDBRANCH  17  18
ENDBRANCH   1  17
BRANCH  13  21
ATOM     21  S   UNL     1      -3.260   3.199   5.937  0.00  0.00    -0.096 S 
BRANCH  21  22
ATOM     22  C   UNL     1      -3.472   3.386   4.149  0.00  0.00    +0.171 C 
BRANCH  22  23
ATOM     23  C   UNL     1      -3.159   2.080   3.467  0.00  0.00    +0.223 C 
ATOM     24  O   UNL     1      -2.825   1.117   4.125  0.00  0.00    -0.275 OA
ATOM     25  N   UNL     1      -3.249   1.981   2.126  0.00  0.00    -0.312 N 
ATOM     26  H   UNL     1      -3.517   2.751   1.600  0.00  0.00    +0.149 HD
BRANCH  25  27
ATOM     27  C   UNL     1      -2.945   0.711   1.462  0.00  0.00    +0.074 C 
ATOM     28  C   UNL     1      -4.191  -0.178   1.465  0.00  0.00    +0.028 C 
BRANCH  27  29
ATOM     29  C   UNL     1      -2.514   0.980   0.019  0.00  0.00    +0.057 C 
BRANCH  29  30
ATOM     30  C   UNL     1      -1.219   1.751   0.017  0.00  0.00    -0.046 A 
ATOM     31  C   UNL     1      -0.013   1.076   0.008  0.00  0.00    +0.004 A 
ATOM     32  C   UNL     1       1.175   1.783   0.000  0.00  0.00    +0.000 A 
ATOM     33  C   UNL     1       1.156   3.165   0.008  0.00  0.00    +0.000 A 
ATOM     34  C   UNL     1      -0.050   3.840   0.022  0.00  0.00    +0.000 A 
ATOM     35  C   UNL     1      -1.238   3.133   0.030  0.00  0.00    +0.004 A 
ENDBRANCH  29  30
ENDBRANCH  27  29
ENDBRANCH  25  27
ENDBRANCH  22  23
ENDBRANCH  21  22
ENDBRANCH  13  21
TORSDOF 10
