REMARK  Name = ZINC27527427
REMARK  4 active torsions:
REMARK  status: ('A' for Active; 'I' for Inactive)
REMARK    1  A    between atoms: N_9  and  N_19
REMARK    2  A    between atoms: C_10  and  C_12
REMARK    3  A    between atoms: C_20  and  C_22
REMARK    4  A    between atoms: C_23  and  C_24
REMARK                            x       y       z     vdW  Elec       q    Type
REMARK                         _______ _______ _______ _____ _____    ______ ____
ROOT
ATOM      1  C   UNL     1       0.014   4.091   0.451  0.00  0.00    +0.001 A 
ATOM      2  C   UNL     1      -1.187   3.393   0.454  0.00  0.00    +0.002 A 
ATOM      3  C   UNL     1      -1.210   2.034   0.309  0.00  0.00    +0.028 A 
ATOM      4  C   UNL     1      -0.013   1.332   0.144  0.00  0.00    +0.079 A 
ATOM      5  C   UNL     1       1.210   2.042   0.141  0.00  0.00    +0.066 A 
ATOM      6  C   UNL     1       1.211   3.426   0.296  0.00  0.00    +0.015 A 
ATOM      7  C   UNL     1       2.455   1.279  -0.029  0.00  0.00    +0.279 A 
ATOM      8  O   UNL     1       3.539   1.833  -0.039  0.00  0.00    -0.265 OA
ATOM      9  N   UNL     1       2.351  -0.063  -0.172  0.00  0.00    -0.205 N 
ATOM     10  C   UNL     1       1.124  -0.668  -0.156  0.00  0.00    +0.165 A 
ATOM     11  N   UNL     1       0.004  -0.007  -0.007  0.00  0.00    -0.227 NA
ENDROOT
BRANCH  10  12
ATOM     12  C   UNL     1       1.060  -2.135  -0.316  0.00  0.00    +0.054 A 
ATOM     13  C   UNL     1       0.307  -2.696  -1.350  0.00  0.00    +0.014 A 
ATOM     14  C   UNL     1       0.252  -4.066  -1.493  0.00  0.00    +0.001 A 
ATOM     15  C   UNL     1       0.941  -4.887  -0.616  0.00  0.00    +0.003 A 
ATOM     16  C   UNL     1       1.688  -4.341   0.410  0.00  0.00    +0.039 A 
ATOM     17  C   UNL     1       1.757  -2.968   0.564  0.00  0.00    +0.134 A 
ATOM     18  F   UNL     1       2.492  -2.434   1.564  0.00  0.00    -0.205 F 
ENDBRANCH  10  12
BRANCH   9  19
ATOM     19  N   UNL     1       3.507  -0.837  -0.337  0.00  0.00    -0.215 N 
ATOM     20  C   UNL     1       4.133  -0.868  -1.530  0.00  0.00    +0.255 C 
ATOM     21  O   UNL     1       3.694  -0.224  -2.464  0.00  0.00    -0.269 OA
ATOM     22  H   UNL     1       3.904  -1.420   0.508  0.00  0.00    +0.176 HD
BRANCH  20  23
ATOM     23  C   UNL     1       5.340  -1.677  -1.702  0.00  0.00    +0.069 C 
ATOM     24  C   UNL     1       5.966  -1.708  -2.896  0.00  0.00    +0.013 C 
BRANCH  24  25
ATOM     25  C   UNL     1       7.181  -2.522  -3.070  0.00  0.00    -0.025 A 
ATOM     26  C   UNL     1       7.691  -3.259  -1.997  0.00  0.00    +0.009 A 
ATOM     27  C   UNL     1       8.826  -4.023  -2.168  0.00  0.00    +0.016 A 
ATOM     28  C   UNL     1       9.467  -4.052  -3.396  0.00  0.00    +0.018 A 
ATOM     29  C   UNL     1       8.970  -3.320  -4.461  0.00  0.00    +0.016 A 
ATOM     30  C   UNL     1       7.833  -2.556  -4.306  0.00  0.00    +0.009 A 
ATOM     31 BR   UNL     1      11.028  -5.096  -3.618  0.00  0.00    -0.050 Br
ENDBRANCH  24  25
ENDBRANCH  20  23
ENDBRANCH   9  19
TORSDOF 4
