REMARK  Name = ZINC03084580
REMARK  10 active torsions:
REMARK  status: ('A' for Active; 'I' for Inactive)
REMARK    1  A    between atoms: C_1  and  C_2
REMARK    2  A    between atoms: C_2  and  N_3
REMARK    3  A    between atoms: N_3  and  N_4
REMARK    4  A    between atoms: C_5  and  C_7
REMARK    5  A    between atoms: C_9  and  O_15
REMARK    6  A    between atoms: C_11  and  O_13
REMARK    7  A    between atoms: O_13  and  C_14
REMARK    8  A    between atoms: O_15  and  C_16
REMARK    9  A    between atoms: C_17  and  C_18
REMARK   10  A    between atoms: N_20  and  C_21
REMARK                            x       y       z     vdW  Elec       q    Type
REMARK                         _______ _______ _______ _____ _____    ______ ____
ROOT
ATOM      1  N   UNL     1       4.545   4.755   0.979  0.00  0.00    -0.268 N 
ATOM      2  H   UNL     1       5.235   4.679   1.832  0.00  0.00    +0.170 HD
ENDROOT
BRANCH   1   3
ATOM      3  N   UNL     1       3.341   4.038   0.986  0.00  0.00    -0.233 N 
ATOM      4  C   UNL     1       3.028   3.257   2.038  0.00  0.00    +0.260 C 
ATOM      5  O   UNL     1       3.791   3.174   2.982  0.00  0.00    -0.269 OA
ATOM      6  H   UNL     1       2.651   4.114   0.132  0.00  0.00    +0.173 HD
BRANCH   4   7
ATOM      7  C   UNL     1       1.758   2.502   2.046  0.00  0.00    +0.045 A 
ATOM      8  C   UNL     1       0.881   2.595   0.965  0.00  0.00    +0.059 A 
ATOM      9  C   UNL     1      -0.308   1.886   0.976  0.00  0.00    +0.124 A 
ATOM     10  C   UNL     1      -0.628   1.082   2.060  0.00  0.00    +0.091 A 
ATOM     11  C   UNL     1       0.240   0.986   3.138  0.00  0.00    +0.124 A 
ATOM     12  C   UNL     1       1.432   1.692   3.135  0.00  0.00    +0.059 A 
BRANCH  11  13
ATOM     13  O   UNL     1      -0.078   0.197   4.198  0.00  0.00    -0.495 OA
ATOM     14  C   UNL     1      -1.322  -0.503   4.135  0.00  0.00    +0.277 C 
ENDBRANCH  11  13
BRANCH   9  15
ATOM     15  O   UNL     1      -1.160   1.973  -0.079  0.00  0.00    -0.495 OA
ATOM     16  C   UNL     1      -2.366   1.210  -0.004  0.00  0.00    +0.277 C 
ENDBRANCH   9  15
ENDBRANCH   4   7
ENDBRANCH   1   3
BRANCH   1  18
ATOM     17  C   UNL     1       3.898   5.599  -1.191  0.00  0.00    +0.062 C 
ATOM     18  C   UNL     1       4.843   5.497  -0.021  0.00  0.00    +0.024 C 
ATOM     19  C   UNL     1       6.138   6.267  -0.029  0.00  0.00    +0.087 C 
BRANCH  19  20
ATOM     20  C   UNL     1       6.246   7.055  -1.309  0.00  0.00    +0.243 C 
ATOM     21  O   UNL     1       5.358   6.997  -2.134  0.00  0.00    -0.270 OA
ATOM     22  N   UNL     1       7.329   7.825  -1.537  0.00  0.00    -0.281 N 
ATOM     23  H   UNL     1       8.090   7.949  -0.753  0.00  0.00    +0.155 HD
BRANCH  22  24
ATOM     24  C   UNL     1       7.484   8.465  -2.772  0.00  0.00    +0.048 A 
ATOM     25  C   UNL     1       6.868   7.950  -3.905  0.00  0.00    +0.024 A 
ATOM     26  C   UNL     1       7.021   8.587  -5.122  0.00  0.00    +0.002 A 
ATOM     27  C   UNL     1       7.793   9.730  -5.214  0.00  0.00    +0.001 A 
ATOM     28  C   UNL     1       8.412  10.243  -4.089  0.00  0.00    +0.017 A 
ATOM     29  C   UNL     1       8.260   9.614  -2.868  0.00  0.00    +0.039 A 
ATOM     30 BR   UNL     1       9.107  10.315  -1.329  0.00  0.00    -0.048 Br
ENDBRANCH  22  24
ENDBRANCH  19  20
ENDBRANCH   1  18
TORSDOF 7
