REMARK  Name = ZINC03378257
REMARK  12 active torsions:
REMARK  status: ('A' for Active; 'I' for Inactive)
REMARK    1  A    between atoms: C_1  and  C_2
REMARK    2  A    between atoms: C_2  and  C_4
REMARK    3  A    between atoms: C_7  and  S_10
REMARK    4  A    between atoms: S_10  and  N_13
REMARK    5  A    between atoms: N_13  and  C_14
REMARK    6  A    between atoms: C_17  and  C_20
REMARK    7  A    between atoms: N_22  and  C_23
REMARK    8  A    between atoms: C_23  and  C_24
REMARK    9  A    between atoms: C_24  and  C_26
REMARK   10  A    between atoms: C_24  and  N_60
REMARK   11  A    between atoms: C_32  and  N_60
REMARK   12  A    between atoms: C_33  and  N_60
REMARK                            x       y       z     vdW  Elec       q    Type
REMARK                         _______ _______ _______ _____ _____    ______ ____
ROOT
ATOM      1  C   UNL     1      -0.934  -5.441   3.913  0.00  0.00    +0.048 A 
ATOM      2  C   UNL     1      -1.366  -4.517   4.860  0.00  0.00    +0.025 A 
ATOM      3  C   UNL     1      -1.309  -3.170   4.585  0.00  0.00    +0.015 A 
ATOM      4  C   UNL     1      -0.817  -2.730   3.353  0.00  0.00    +0.037 A 
ATOM      5  C   UNL     1      -0.389  -3.660   2.401  0.00  0.00    +0.015 A 
ATOM      6  C   UNL     1      -0.443  -5.006   2.685  0.00  0.00    +0.025 A 
ENDROOT
BRANCH   4   7
ATOM      7  C   UNL     1      -0.755  -1.286   3.054  0.00  0.00    +0.244 C 
ATOM      8  O   UNL     1      -1.132  -0.478   3.880  0.00  0.00    -0.270 OA
ATOM      9  N   UNL     1      -0.280  -0.864   1.866  0.00  0.00    -0.313 N 
ATOM     10  H   UNL     1       0.021  -1.509   1.206  0.00  0.00    +0.149 HD
BRANCH   9  11
ATOM     11  C   UNL     1      -0.218   0.570   1.569  0.00  0.00    +0.094 C 
BRANCH  11  12
ATOM     12  C   UNL     1       0.240   0.772   0.123  0.00  0.00    -0.021 C 
BRANCH  12  13
ATOM     13  C   UNL     1       0.252   2.245  -0.198  0.00  0.00    -0.059 A 
ATOM     14  C   UNL     1      -0.931   2.899  -0.486  0.00  0.00    +0.002 A 
ATOM     15  C   UNL     1      -0.921   4.250  -0.777  0.00  0.00    +0.000 A 
ATOM     16  C   UNL     1       0.274   4.946  -0.788  0.00  0.00    +0.000 A 
ATOM     17  C   UNL     1       1.458   4.290  -0.505  0.00  0.00    +0.000 A 
ATOM     18  C   UNL     1       1.447   2.940  -0.210  0.00  0.00    +0.002 A 
ENDBRANCH  12  13
BRANCH  12  21
ATOM     19  C   UNL     1      -2.055   0.099  -0.255  0.00  0.00    -0.096 C 
ATOM     20  C   UNL     1      -0.633   0.663  -2.132  0.00  0.00    -0.096 C 
ATOM     21  N   UNL     1      -0.676   0.053  -0.786  0.00  0.00    +0.382 N 
ATOM     22  H   UNL     1      -0.378  -0.927  -0.854  0.00  0.00    -0.082 HD
ENDBRANCH  12  21
ENDBRANCH  11  12
ENDBRANCH   9  11
ENDBRANCH   4   7
BRANCH   1  23
ATOM     23  N   UNL     1      -0.993  -6.801   4.194  0.00  0.00    -0.216 N 
ATOM     24  H   UNL     1      -0.684  -7.133   5.051  0.00  0.00    +0.174 HD
BRANCH  23  25
ATOM     25  S   UNL     1      -1.591  -7.855   3.065  0.00  0.00    +0.072 S 
ATOM     26  O   UNL     1      -0.864  -7.622   1.867  0.00  0.00    -0.150 OA
ATOM     27  O   UNL     1      -1.643  -9.131   3.688  0.00  0.00    -0.150 OA
BRANCH  25  31
ATOM     28  C   UNL     1      -5.878  -6.642   2.237  0.00  0.00    +0.017 A 
ATOM     29  C   UNL     1      -4.847  -6.185   1.411  0.00  0.00    +0.013 A 
ATOM     30  C   UNL     1      -3.545  -6.559   1.669  0.00  0.00    +0.029 A 
ATOM     31  C   UNL     1      -3.258  -7.383   2.743  0.00  0.00    +0.109 A 
ATOM     32  C   UNL     1      -4.274  -7.844   3.562  0.00  0.00    +0.029 A 
ATOM     33  C   UNL     1      -5.580  -7.475   3.320  0.00  0.00    +0.013 A 
BRANCH  28  35
ATOM     34  C   UNL     1      -8.379  -6.742   2.861  0.00  0.00    +0.091 C 
ATOM     35  C   UNL     1      -7.271  -6.247   1.968  0.00  0.00    +0.160 C 
ATOM     36  O   UNL     1      -7.525  -5.525   1.029  0.00  0.00    -0.292 OA
ENDBRANCH  28  35
ENDBRANCH  25  31
ENDBRANCH  23  25
ENDBRANCH   1  23
TORSDOF 9
