REMARK  Name = ZINC04098309
REMARK  16 active torsions:
REMARK  status: ('A' for Active; 'I' for Inactive)
REMARK    1  A    between atoms: C_1  and  C_2
REMARK    2  A    between atoms: C_6  and  C_34
REMARK    3  A    between atoms: C_8  and  O_10
REMARK    4  A    between atoms: O_10  and  C_11
REMARK    5  A    between atoms: C_11  and  C_13
REMARK    6  A    between atoms: C_13  and  C_14
REMARK    7  A    between atoms: C_14  and  C_15
REMARK    8  A    between atoms: C_14  and  C_16
REMARK    9  A    between atoms: C_17  and  C_33
REMARK   10  A    between atoms: C_18  and  O_29
REMARK   11  A    between atoms: C_20  and  O_28
REMARK   12  A    between atoms: O_29  and  C_30
REMARK   13  A    between atoms: C_30  and  C_32
REMARK   14  A    between atoms: C_34  and  O_35
REMARK   15  A    between atoms: O_35  and  C_36
REMARK   16  A    between atoms: C_36  and  C_38
REMARK                            x       y       z     vdW  Elec       q    Type
REMARK                         _______ _______ _______ _____ _____    ______ ____
ROOT
ATOM      1  C   UNL     1       1.325   2.899  -0.127  0.00  0.00    +0.042 C 
ATOM      2  C   UNL     1       1.410   1.395  -0.190  0.00  0.00    -0.034 C 
ATOM      3  C   UNL     1       0.336   0.720   0.062  0.00  0.00    +0.007 C 
ATOM      4  C   UNL     1       0.263  -0.782   0.025  0.00  0.00    +0.152 C 
ATOM      5  C   UNL     1       1.674  -1.365   0.106  0.00  0.00    +0.050 C 
ATOM      6  C   UNL     1       2.551  -0.681  -0.946  0.00  0.00    +0.063 C 
ATOM      7  C   UNL     1       2.734   0.784  -0.541  0.00  0.00    +0.203 C 
ATOM      8  C   UNL     1       1.622  -2.879  -0.172  0.00  0.00    +0.053 C 
ATOM      9  C   UNL     1       0.505  -3.452   0.740  0.00  0.00    +0.217 C 
ATOM     10  C   UNL     1      -0.814  -3.261  -0.035  0.00  0.00    +0.187 C 
ATOM     11  C   UNL     1      -0.430  -2.609  -1.387  0.00  0.00    +0.186 C 
ATOM     12  C   UNL     1       1.034  -3.042  -1.586  0.00  0.00    +0.131 C 
ATOM     13  C   UNL     1       1.439  -4.163  -2.518  0.00  0.00    +0.199 C 
ATOM     14  O   UNL     1       1.765  -2.790  -2.765  0.00  0.00    -0.365 OA
ATOM     15  O   UNL     1      -0.402  -1.185  -1.173  0.00  0.00    -0.363 OA
ATOM     16  C   UNL     1       2.973  -3.571   0.022  0.00  0.00    +0.019 C 
ENDROOT
BRANCH  10  17
ATOM     17  O   UNL     1      -1.692  -2.402   0.694  0.00  0.00    -0.385 OA
ATOM     18  H   UNL     1      -2.529  -2.221   0.243  0.00  0.00    +0.210 HD
ENDBRANCH  10  17
BRANCH   7  19
ATOM     19  O   UNL     1       3.618   0.858   0.609  0.00  0.00    -0.457 OA
BRANCH  19  20
ATOM     20  C   UNL     1       4.452   1.907   0.670  0.00  0.00    +0.308 C 
ATOM     21  O   UNL     1       4.431   2.748  -0.198  0.00  0.00    -0.251 OA
BRANCH  20  22
ATOM     22  C   UNL     1       5.416   2.038   1.821  0.00  0.00    +0.123 C 
BRANCH  22  23
ATOM     23  C   UNL     1       6.136   3.385   1.733  0.00  0.00    -0.007 C 
ATOM     24  C   UNL     1       5.125   4.517   1.922  0.00  0.00    +0.008 C 
ATOM     25  C   UNL     1       7.203   3.465   2.827  0.00  0.00    +0.008 C 
ENDBRANCH  22  23
ENDBRANCH  20  22
ENDBRANCH  19  20
ENDBRANCH   7  19
BRANCH   9  26
ATOM     26  O   UNL     1       0.738  -4.863   0.991  0.00  0.00    -0.458 OA
BRANCH  26  27
ATOM     27  C   UNL     1       0.267  -5.362   2.144  0.00  0.00    +0.304 C 
ATOM     28  O   UNL     1      -0.321  -4.645   2.918  0.00  0.00    -0.251 OA
ATOM     29  C   UNL     1       0.471  -6.819   2.474  0.00  0.00    +0.136 C 
ENDBRANCH  26  27
ENDBRANCH   9  26
BRANCH   5  30
ATOM     30  C   UNL     1       2.251  -1.120   1.501  0.00  0.00    +0.242 C 
BRANCH  30  31
ATOM     31  O   UNL     1       3.631  -1.567   1.540  0.00  0.00    -0.464 OA
BRANCH  31  32
ATOM     32  C   UNL     1       4.254  -1.521   2.728  0.00  0.00    +0.304 C 
ATOM     33  O   UNL     1       3.697  -1.034   3.683  0.00  0.00    -0.251 OA
ATOM     34  C   UNL     1       5.648  -2.077   2.870  0.00  0.00    +0.136 C 
ENDBRANCH  31  32
ENDBRANCH  30  31
ENDBRANCH   5  30
TORSDOF 10
