REMARK  Name = ZINC05447406
REMARK  5 active torsions:
REMARK  status: ('A' for Active; 'I' for Inactive)
REMARK    1  A    between atoms: N_10  and  N_11
REMARK    2  A    between atoms: C_12  and  C_13
REMARK    3  A    between atoms: C_16  and  C_18
REMARK    4  A    between atoms: C_18  and  C_20
REMARK    5  A    between atoms: C_18  and  O_24
REMARK                            x       y       z     vdW  Elec       q    Type
REMARK                         _______ _______ _______ _____ _____    ______ ____
ROOT
ATOM      1  N   UNL     1      -3.039   7.542   0.072  0.00  0.00    -0.185 NA
ATOM      2  C   UNL     1      -3.340   8.808   0.082  0.00  0.00    +0.176 C 
ENDROOT
BRANCH   1  12
ATOM      3  C   UNL     1       1.175   1.793   0.001  0.00  0.00    +0.002 A 
ATOM      4  C   UNL     1      -0.013   1.076   0.008  0.00  0.00    +0.001 A 
ATOM      5  C   UNL     1      -1.216   1.758   0.017  0.00  0.00    +0.017 A 
ATOM      6  C   UNL     1      -1.216   3.130   0.031  0.00  0.00    +0.041 A 
ATOM      7  C   UNL     1      -0.026   3.894   0.023  0.00  0.00    +0.080 A 
ATOM      8  C   UNL     1       1.184   3.163   0.007  0.00  0.00    +0.029 A 
ATOM      9  N   UNL     1      -0.191   5.234   0.032  0.00  0.00    -0.224 NA
ATOM     10  C   UNL     1      -1.378   5.799   0.046  0.00  0.00    +0.179 A 
ATOM     11  S   UNL     1      -2.472   4.387   0.050  0.00  0.00    -0.051 S 
ATOM     12  N   UNL     1      -1.697   7.141   0.057  0.00  0.00    -0.215 N 
ATOM     13  H   UNL     1      -0.992   7.808   0.053  0.00  0.00    +0.176 HD
ENDBRANCH   1  12
BRANCH   2  14
ATOM     14  C   UNL     1      -4.745   9.227   0.098  0.00  0.00    +0.148 A 
ATOM     15  C   UNL     1      -5.197  10.514   0.114  0.00  0.00    +0.051 A 
ATOM     16  C   UNL     1      -6.603  10.449   0.122  0.00  0.00    +0.048 A 
ATOM     17  C   UNL     1      -6.940   9.144   0.120  0.00  0.00    +0.138 A 
ATOM     18  O   UNL     1      -5.816   8.408   0.105  0.00  0.00    -0.456 OA
BRANCH  17  19
ATOM     19  C   UNL     1      -8.345   8.599   0.132  0.00  0.00    +0.231 C 
BRANCH  19  20
ATOM     20  C   UNL     1      -8.744   8.188  -1.287  0.00  0.00    +0.223 C 
ATOM     21 CL   UNL     1      -7.613   6.918  -1.885  0.00  0.00    -0.080 Cl
ATOM     22 CL   UNL     1     -10.426   7.536  -1.272  0.00  0.00    -0.080 Cl
ATOM     23 CL   UNL     1      -8.665   9.624  -2.374  0.00  0.00    -0.080 Cl
ENDBRANCH  19  20
BRANCH  19  24
ATOM     24  O   UNL     1      -8.408   7.461   0.994  0.00  0.00    -0.380 OA
ATOM     25  H   UNL     1      -7.823   6.737   0.732  0.00  0.00    +0.211 HD
ENDBRANCH  19  24
ENDBRANCH  17  19
ENDBRANCH   2  14
TORSDOF 5
