REMARK  Name = ZINC63029967
REMARK  10 active torsions:
REMARK  status: ('A' for Active; 'I' for Inactive)
REMARK    1  A    between atoms: C_1  and  C_2
REMARK    2  A    between atoms: C_2  and  N_3
REMARK    3  A    between atoms: N_3  and  C_4
REMARK    4  A    between atoms: C_4  and  C_6
REMARK    5  A    between atoms: C_4  and  C_17
REMARK    6  A    between atoms: C_6  and  C_7
REMARK    7  A    between atoms: C_12  and  N_13
REMARK    8  A    between atoms: C_17  and  C_18
REMARK    9  A    between atoms: C_17  and  C_19
REMARK   10  A    between atoms: C_17  and  C_20
REMARK                            x       y       z     vdW  Elec       q    Type
REMARK                         _______ _______ _______ _____ _____    ______ ____
ROOT
ATOM      1  C   UNL     1      -2.884  -2.316  -0.195  0.00  0.00    +0.022 C 
ENDROOT
BRANCH   1   2
ATOM      2  C   UNL     1      -3.283  -2.056  -1.625  0.00  0.00    -0.019 A 
ATOM      3  C   UNL     1      -3.736  -0.804  -2.000  0.00  0.00    +0.007 A 
ATOM      4  C   UNL     1      -4.102  -0.566  -3.311  0.00  0.00    +0.015 A 
ATOM      5  C   UNL     1      -4.014  -1.579  -4.249  0.00  0.00    +0.020 A 
ATOM      6  C   UNL     1      -3.561  -2.830  -3.874  0.00  0.00    +0.048 A 
ATOM      7  C   UNL     1      -3.190  -3.067  -2.563  0.00  0.00    +0.130 A 
ATOM      8 BR   UNL     1      -4.515  -1.253  -6.043  0.00  0.00    -0.050 Br
BRANCH   7   9
ATOM      9  N   UNL     1      -2.700  -4.405  -2.163  0.00  0.00    +0.057 N 
ATOM     10  O   UNL     1      -2.526  -5.260  -2.999  0.00  0.00    -0.126 OA
ATOM     11  O   UNL     1      -2.473  -4.642  -0.999  0.00  0.00    -0.126 OA
ENDBRANCH   7   9
ENDBRANCH   1   2
BRANCH   1  12
ATOM     12  C   UNL     1      -1.359  -2.398  -0.098  0.00  0.00    -0.062 C 
BRANCH  12  13
ATOM     13  C   UNL     1      -0.960  -2.797   1.324  0.00  0.00    -0.050 C 
ATOM     14  C   UNL     1      -1.427  -1.720   2.305  0.00  0.00    +0.009 C 
ATOM     15  C   UNL     1      -1.614  -4.132   1.682  0.00  0.00    +0.009 C 
ATOM     16  C   UNL     1       0.562  -2.936   1.406  0.00  0.00    +0.009 C 
ENDBRANCH  12  13
BRANCH  12  17
ATOM     17  N   UNL     1      -0.776  -1.089  -0.422  0.00  0.00    +0.381 N 
ATOM     18  H   UNL     1       0.145  -1.022  -0.016  0.00  0.00    -0.086 HD
ATOM     19  H   UNL     1      -1.363  -0.358  -0.049  0.00  0.00    -0.086 HD
BRANCH  17  21
ATOM     20  C   UNL     1      -0.007   0.388  -2.217  0.00  0.00    -0.017 C 
ATOM     21  C   UNL     1      -0.680  -0.944  -1.881  0.00  0.00    -0.086 C 
ENDBRANCH  17  21
ENDBRANCH  12  17
ENDBRANCH   1  12
TORSDOF 6
