REMARK  Name = ZINC60243801
REMARK  6 active torsions:
REMARK  status: ('A' for Active; 'I' for Inactive)
REMARK    1  A    between atoms: C_4  and  S_7
REMARK    2  A    between atoms: S_7  and  N_10
REMARK    3  A    between atoms: N_10  and  C_11
REMARK    4  A    between atoms: C_16  and  N_17
REMARK    5  A    between atoms: C_18  and  C_20
REMARK    6  A    between atoms: C_20  and  N_21
REMARK                            x       y       z     vdW  Elec       q    Type
REMARK                         _______ _______ _______ _____ _____    ______ ____
ROOT
ATOM      1  C   UNL     1       3.525  -1.812   2.390  0.00  0.00    +0.069 A 
ATOM      2  C   UNL     1       2.874  -2.946   1.927  0.00  0.00    +0.026 A 
ATOM      3  C   UNL     1       2.058  -3.670   2.776  0.00  0.00    +0.002 A 
ATOM      4  C   UNL     1       1.888  -3.266   4.088  0.00  0.00    +0.002 A 
ATOM      5  C   UNL     1       2.532  -2.137   4.557  0.00  0.00    +0.025 A 
ATOM      6  C   UNL     1       3.357  -1.408   3.714  0.00  0.00    +0.056 A 
ENDROOT
BRANCH   6   7
ATOM      7  N   UNL     1       4.016  -0.266   4.190  0.00  0.00    -0.282 N 
ATOM      8  C   UNL     1       4.447  -0.220   5.466  0.00  0.00    +0.239 C 
ATOM      9  O   UNL     1       4.196  -1.132   6.224  0.00  0.00    -0.273 OA
ATOM     10  H   UNL     1       4.161   0.491   3.601  0.00  0.00    +0.155 HD
BRANCH   8  11
ATOM     11  C   UNL     1       5.242   0.966   5.950  0.00  0.00    +0.245 C 
BRANCH  11  12
ATOM     12  N   UNL     1       5.590   0.778   7.360  0.00  0.00    -0.201 N 
ATOM     13  C   UNL     1       6.747   0.159   7.695  0.00  0.00    +0.278 A 
ATOM     14  O   UNL     1       7.515  -0.249   6.843  0.00  0.00    -0.265 OA
ATOM     15  C   UNL     1       7.039   0.000   9.127  0.00  0.00    +0.068 A 
ATOM     16  C   UNL     1       8.204  -0.622   9.573  0.00  0.00    +0.015 A 
ATOM     17  C   UNL     1       8.434  -0.747  10.925  0.00  0.00    +0.001 A 
ATOM     18  C   UNL     1       7.515  -0.258  11.845  0.00  0.00    +0.002 A 
ATOM     19  C   UNL     1       6.359   0.360  11.426  0.00  0.00    +0.030 A 
ATOM     20  C   UNL     1       6.103   0.499  10.060  0.00  0.00    +0.100 A 
ATOM     21  N   UNL     1       4.974   1.103   9.611  0.00  0.00    -0.131 NA
ATOM     22  N   UNL     1       4.729   1.242   8.359  0.00  0.00    -0.062 NA
ENDBRANCH  11  12
ENDBRANCH   8  11
ENDBRANCH   6   7
BRANCH   1  23
ATOM     23  N   UNL     1       4.352  -1.078   1.532  0.00  0.00    -0.214 N 
ATOM     24  H   UNL     1       5.156  -0.659   1.875  0.00  0.00    +0.174 HD
BRANCH  23  25
ATOM     25  S   UNL     1       3.957  -0.925  -0.069  0.00  0.00    +0.072 S 
ATOM     26  O   UNL     1       3.761  -2.241  -0.566  0.00  0.00    -0.150 OA
ATOM     27  O   UNL     1       4.902  -0.029  -0.636  0.00  0.00    -0.150 OA
BRANCH  25  31
ATOM     28  C   UNL     1      -0.065   1.143  -0.265  0.00  0.00    +0.000 A 
ATOM     29  C   UNL     1       1.097   1.891  -0.268  0.00  0.00    +0.002 A 
ATOM     30  C   UNL     1       2.326   1.260  -0.208  0.00  0.00    +0.029 A 
ATOM     31  C   UNL     1       2.391  -0.120  -0.144  0.00  0.00    +0.108 A 
ATOM     32  C   UNL     1       1.228  -0.868  -0.141  0.00  0.00    +0.029 A 
ATOM     33  C   UNL     1       0.000  -0.236  -0.202  0.00  0.00    +0.002 A 
ENDBRANCH  25  31
ENDBRANCH  23  25
ENDBRANCH   1  23
TORSDOF 6
