REMARK  Name = ZINC27515748
REMARK  7 active torsions:
REMARK  status: ('A' for Active; 'I' for Inactive)
REMARK    1  A    between atoms: C_1  and  C_2
REMARK    2  A    between atoms: C_3  and  C_28
REMARK    3  A    between atoms: C_4  and  C_10
REMARK    4  A    between atoms: C_13  and  C_16
REMARK    5  A    between atoms: C_18  and  C_21
REMARK    6  A    between atoms: N_30  and  C_31
REMARK    7  A    between atoms: C_34  and  N_37
REMARK                            x       y       z     vdW  Elec       q    Type
REMARK                         _______ _______ _______ _____ _____    ______ ____
ROOT
ATOM      1  C   UNL     1       0.179   4.487  -0.722  0.00  0.00    +0.061 C 
ATOM      2  C   UNL     1      -0.057   3.138  -0.092  0.00  0.00    +0.019 C 
ATOM      3  C   UNL     1      -1.305   2.794   0.290  0.00  0.00    +0.056 C 
ATOM      4  C   UNL     1      -1.499   1.427   0.915  0.00  0.00    +0.142 C 
ATOM      5  N   UNL     1      -0.301   0.586   1.066  0.00  0.00    -0.288 N 
ATOM      6  C   UNL     1       0.881   1.069   0.635  0.00  0.00    +0.304 C 
ATOM      7  O   UNL     1       1.876   0.381   0.750  0.00  0.00    -0.252 OA
ATOM      8  N   UNL     1       0.995   2.285   0.085  0.00  0.00    -0.273 N 
ATOM      9  H   UNL     1      -0.383  -0.413   1.520  0.00  0.00    +0.151 HD
ATOM     10  H   UNL     1       2.005   2.584  -0.233  0.00  0.00    +0.156 HD
ENDROOT
BRANCH   4  11
ATOM     11  C   UNL     1      -2.100   1.628   2.283  0.00  0.00    -0.023 A 
ATOM     12  C   UNL     1      -1.299   2.036   3.334  0.00  0.00    +0.006 A 
ATOM     13  C   UNL     1      -1.844   2.227   4.587  0.00  0.00    +0.012 A 
ATOM     14  C   UNL     1      -3.205   1.996   4.795  0.00  0.00    +0.017 A 
ATOM     15  C   UNL     1      -4.007   1.580   3.731  0.00  0.00    +0.012 A 
ATOM     16  C   UNL     1      -3.450   1.398   2.482  0.00  0.00    +0.006 A 
BRANCH  14  17
ATOM     17  C   UNL     1      -3.794   2.193   6.136  0.00  0.00    +0.135 A 
ATOM     18  C   UNL     1      -3.124   2.594   7.247  0.00  0.00    +0.058 A 
ATOM     19  C   UNL     1      -4.075   2.648   8.298  0.00  0.00    +0.020 A 
ATOM     20  C   UNL     1      -5.268   2.277   7.765  0.00  0.00    +0.204 A 
ATOM     21  O   UNL     1      -5.088   2.011   6.462  0.00  0.00    -0.462 OA
BRANCH  19  22
ATOM     22  C   UNL     1      -3.816   3.036   9.708  0.00  0.00    -0.015 A 
ATOM     23  C   UNL     1      -2.530   3.389  10.110  0.00  0.00    +0.011 A 
ATOM     24  C   UNL     1      -2.294   3.754  11.420  0.00  0.00    +0.039 A 
ATOM     25  C   UNL     1      -3.333   3.758  12.337  0.00  0.00    +0.123 A 
ATOM     26  C   UNL     1      -4.612   3.402  11.943  0.00  0.00    +0.039 A 
ATOM     27  C   UNL     1      -4.857   3.042  10.633  0.00  0.00    +0.011 A 
ATOM     28  F   UNL     1      -3.097   4.111  13.620  0.00  0.00    -0.205 F 
ENDBRANCH  19  22
ENDBRANCH  14  17
ENDBRANCH   4  11
BRANCH   3  29
ATOM     29  C   UNL     1      -2.397   3.679   0.109  0.00  0.00    +0.248 C 
ATOM     30  O   UNL     1      -3.202   3.477  -0.781  0.00  0.00    -0.270 OA
ATOM     31  N   UNL     1      -2.543   4.743   0.922  0.00  0.00    -0.282 N 
ATOM     32  H   UNL     1      -1.771   4.975   1.670  0.00  0.00    +0.155 HD
BRANCH  31  33
ATOM     33  C   UNL     1      -3.678   5.554   0.815  0.00  0.00    +0.034 A 
ATOM     34  C   UNL     1      -4.246   5.794  -0.429  0.00  0.00    +0.025 A 
ATOM     35  C   UNL     1      -5.371   6.590  -0.531  0.00  0.00    +0.034 A 
ATOM     36  C   UNL     1      -5.923   7.157   0.603  0.00  0.00    +0.126 A 
ATOM     37  C   UNL     1      -5.356   6.924   1.842  0.00  0.00    +0.034 A 
ATOM     38  C   UNL     1      -4.236   6.124   1.952  0.00  0.00    +0.025 A 
BRANCH  36  39
ATOM     39  N   UNL     1      -7.125   8.014   0.489  0.00  0.00    +0.056 N 
ATOM     40  O   UNL     1      -7.613   8.514   1.487  0.00  0.00    -0.126 OA
ATOM     41  O   UNL     1      -7.625   8.220  -0.602  0.00  0.00    -0.126 OA
ENDBRANCH  36  39
ENDBRANCH  31  33
ENDBRANCH   3  29
TORSDOF 6
