REMARK  Name = ZINC06239205
REMARK  11 active torsions:
REMARK  status: ('A' for Active; 'I' for Inactive)
REMARK    1  A    between atoms: C_1  and  O_2
REMARK    2  A    between atoms: O_2  and  C_3
REMARK    3  A    between atoms: C_3  and  C_4
REMARK    4  A    between atoms: C_4  and  N_5
REMARK    5  A    between atoms: C_6  and  C_10
REMARK    6  A    between atoms: C_10  and  C_12
REMARK    7  A    between atoms: C_10  and  N_61
REMARK    8  A    between atoms: C_27  and  C_28
REMARK    9  A    between atoms: C_27  and  N_61
REMARK   10  A    between atoms: C_33  and  C_34
REMARK   11  A    between atoms: C_33  and  N_61
REMARK                            x       y       z     vdW  Elec       q    Type
REMARK                         _______ _______ _______ _____ _____    ______ ____
ROOT
ATOM      1  C   UNL     1       3.703   1.470  -0.516  0.00  0.00    +0.040 C 
ENDROOT
BRANCH   1   2
ATOM      2  C   UNL     1       4.447   1.834   0.743  0.00  0.00    +0.011 A 
ATOM      3  C   UNL     1       5.237   0.914   1.352  0.00  0.00    +0.017 A 
ATOM      4  C   UNL     1       5.946   1.298   2.572  0.00  0.00    +0.002 A 
ATOM      5  C   UNL     1       6.776   0.390   3.241  0.00  0.00    +0.059 A 
ATOM      6  C   UNL     1       7.432   0.781   4.388  0.00  0.00    +0.167 A 
ATOM      7  C   UNL     1       7.270   2.081   4.885  0.00  0.00    +0.168 A 
ATOM      8  C   UNL     1       6.451   2.983   4.231  0.00  0.00    +0.075 A 
ATOM      9  C   UNL     1       5.784   2.604   3.072  0.00  0.00    +0.053 A 
ATOM     10  N   UNL     1       4.965   3.493   2.406  0.00  0.00    -0.322 N 
ATOM     11  H   UNL     1       4.847   4.419   2.764  0.00  0.00    +0.169 HD
ATOM     12  C   UNL     1       4.323   3.131   1.281  0.00  0.00    +0.251 A 
ATOM     13  O   UNL     1       3.612   3.944   0.715  0.00  0.00    -0.268 OA
ATOM     14  O   UNL     1       8.020   2.207   6.017  0.00  0.00    -0.453 OA
ATOM     15  C   UNL     1       8.959   1.117   5.982  0.00  0.00    +0.466 C 
ATOM     16  O   UNL     1       8.283   0.104   5.213  0.00  0.00    -0.453 OA
ENDBRANCH   1   2
BRANCH   1  18
ATOM     17  N   UNL     1       1.339   0.550  -0.253  0.00  0.00    -0.228 N 
ATOM     18  C   UNL     1       2.220   1.568  -0.270  0.00  0.00    +0.143 A 
ATOM     19  N   UNL     1       1.536   2.660  -0.030  0.00  0.00    -0.115 NA
ATOM     20  N   UNL     1       0.301   2.331   0.126  0.00  0.00    -0.023 NA
ATOM     21  N   UNL     1       0.178   1.057  -0.008  0.00  0.00    -0.044 NA
BRANCH  17  22
ATOM     22  C   UNL     1       1.642  -0.866  -0.472  0.00  0.00    +0.175 C 
BRANCH  22  23
ATOM     23  C   UNL     1       1.523  -1.189  -1.962  0.00  0.00    +0.183 C 
BRANCH  23  25
ATOM     24  C   UNL     1       1.735  -2.978  -3.543  0.00  0.00    +0.194 C 
ATOM     25  O   UNL     1       1.818  -2.571  -2.176  0.00  0.00    -0.381 OA
ENDBRANCH  23  25
ENDBRANCH  22  23
ENDBRANCH  17  22
ENDBRANCH   1  18
BRANCH   1  26
ATOM     26  N   UNL     1       4.076   2.420  -1.585  0.00  0.00    +0.397 N 
ATOM     27  H   UNL     1       3.853   3.374  -1.276  0.00  0.00    -0.079 HD
BRANCH  26  28
ATOM     28  C   UNL     1       3.313   2.123  -2.815  0.00  0.00    -0.001 C 
BRANCH  28  29
ATOM     29  C   UNL     1       1.960   2.779  -2.713  0.00  0.00    +0.089 A 
ATOM     30  C   UNL     1       1.687   4.066  -2.992  0.00  0.00    +0.042 A 
ATOM     31  C   UNL     1       0.305   4.251  -2.761  0.00  0.00    +0.041 A 
ATOM     32  C   UNL     1      -0.184   3.066  -2.355  0.00  0.00    +0.195 A 
ATOM     33  O   UNL     1       0.822   2.176  -2.333  0.00  0.00    -0.470 OA
ENDBRANCH  28  29
ENDBRANCH  26  28
BRANCH  26  34
ATOM     34  C   UNL     1       5.527   2.331  -1.856  0.00  0.00    -0.034 C 
BRANCH  34  35
ATOM     35  C   UNL     1       6.253   3.228  -0.887  0.00  0.00    -0.027 A 
ATOM     36  C   UNL     1       7.088   2.891   0.126  0.00  0.00    +0.009 A 
ATOM     37  C   UNL     1       7.648   3.894   0.895  0.00  0.00    +0.008 A 
ATOM     38  C   UNL     1       7.344   5.185   0.614  0.00  0.00    +0.045 A 
ATOM     39  S   UNL     1       6.242   5.010  -0.779  0.00  0.00    -0.103 S 
ENDBRANCH  34  35
ENDBRANCH  26  34
ENDBRANCH   1  26
TORSDOF 10
