REMARK  Name = ZINC13003124
REMARK  7 active torsions:
REMARK  status: ('A' for Active; 'I' for Inactive)
REMARK    1  A    between atoms: C_1  and  C_2
REMARK    2  A    between atoms: C_3  and  C_16
REMARK    3  A    between atoms: C_4  and  C_15
REMARK    4  A    between atoms: C_16  and  C_17
REMARK    5  A    between atoms: C_17  and  C_18
REMARK    6  A    between atoms: N_20  and  C_21
REMARK    7  A    between atoms: C_21  and  C_22
REMARK                            x       y       z     vdW  Elec       q    Type
REMARK                         _______ _______ _______ _____ _____    ______ ____
ROOT
ATOM      1  C   UNL     1       1.148  11.508  -0.952  0.00  0.00    +0.048 C 
ENDROOT
BRANCH   1   4
ATOM      2  C   UNL     1       0.431  12.740  -3.493  0.00  0.00    +0.066 C 
ATOM      3  C   UNL     1       1.853  12.804  -2.998  0.00  0.00    +0.045 A 
ATOM      4  C   UNL     1       2.195  12.211  -1.777  0.00  0.00    -0.005 A 
ATOM      5  C   UNL     1       3.479  12.282  -1.341  0.00  0.00    +0.047 A 
ATOM      6  N   UNL     1       4.408  12.920  -2.108  0.00  0.00    -0.217 N 
ATOM      7  C   UNL     1       4.034  13.485  -3.294  0.00  0.00    +0.164 A 
ATOM      8  N   UNL     1       2.771  13.416  -3.713  0.00  0.00    -0.232 NA
ATOM      9  C   UNL     1       5.189  14.069  -3.856  0.00  0.00    +0.046 A 
ATOM     10  C   UNL     1       5.433  14.780  -5.040  0.00  0.00    +0.014 A 
ATOM     11  C   UNL     1       6.689  15.229  -5.314  0.00  0.00    +0.001 A 
ATOM     12  C   UNL     1       7.742  14.993  -4.431  0.00  0.00    +0.002 A 
ATOM     13  C   UNL     1       7.545  14.307  -3.273  0.00  0.00    +0.030 A 
ATOM     14  C   UNL     1       6.259  13.826  -2.954  0.00  0.00    +0.095 A 
ATOM     15  N   UNL     1       5.778  13.142  -1.921  0.00  0.00    -0.165 NA
ATOM     16  C   UNL     1       3.873  11.658  -0.028  0.00  0.00    +0.066 C 
ENDBRANCH   1   4
BRANCH   1  17
ATOM     17  C   UNL     1       1.087  10.033  -1.355  0.00  0.00    +0.100 C 
BRANCH  17  18
ATOM     18  C   UNL     1       0.040   9.330  -0.530  0.00  0.00    +0.213 C 
ATOM     19  O   UNL     1      -0.595   9.947   0.299  0.00  0.00    -0.276 OA
ATOM     20  N   UNL     1      -0.191   8.015  -0.714  0.00  0.00    -0.312 N 
ATOM     21  H   UNL     1       0.317   7.521  -1.377  0.00  0.00    +0.149 HD
BRANCH  20  22
ATOM     22  C   UNL     1      -1.208   7.331   0.088  0.00  0.00    +0.152 C 
BRANCH  22  23
ATOM     23  C   UNL     1      -1.270   5.856  -0.315  0.00  0.00    +0.228 C 
ATOM     24  C   UNL     1      -2.417   5.163   0.432  0.00  0.00    +0.275 C 
ATOM     25  O   UNL     1      -2.437   3.785   0.043  0.00  0.00    -0.485 OA
ATOM     26  C   UNL     1      -1.241   3.136   0.031  0.00  0.00    +0.162 A 
ATOM     27  C   UNL     1      -1.219   1.749   0.017  0.00  0.00    +0.049 A 
ATOM     28  C   UNL     1      -0.013   1.076   0.008  0.00  0.00    +0.004 A 
ATOM     29  C   UNL     1       1.176   1.782   0.000  0.00  0.00    +0.004 A 
ATOM     30  C   UNL     1       1.161   3.164   0.009  0.00  0.00    +0.049 A 
ATOM     31  C   UNL     1      -0.046   3.846   0.026  0.00  0.00    +0.163 A 
ATOM     32  O   UNL     1      -0.045   5.207   0.043  0.00  0.00    -0.480 OA
ENDBRANCH  22  23
ENDBRANCH  20  22
ENDBRANCH  17  18
ENDBRANCH   1  17
TORSDOF 5
