REMARK  Name = ZINC63175158
REMARK  5 active torsions:
REMARK  status: ('A' for Active; 'I' for Inactive)
REMARK    1  A    between atoms: C_1  and  C_2
REMARK    2  A    between atoms: C_5  and  S_9
REMARK    3  A    between atoms: S_9  and  N_12
REMARK    4  A    between atoms: N_12  and  C_13
REMARK    5  A    between atoms: C_18  and  N_20
REMARK                            x       y       z     vdW  Elec       q    Type
REMARK                         _______ _______ _______ _____ _____    ______ ____
ROOT
ATOM      1  S   UNL     1       0.030  -4.620  -0.004  0.00  0.00    +0.060 S 
ATOM      2  O   UNL     1      -0.869  -5.213   0.924  0.00  0.00    -0.153 OA
ATOM      3  O   UNL     1      -0.017  -4.903  -1.396  0.00  0.00    -0.153 OA
ENDROOT
BRANCH   1   8
ATOM      4  C   UNL     1      -0.591   1.354   0.569  0.00  0.00    +0.044 C 
ATOM      5  C   UNL     1      -0.436  -0.138   0.425  0.00  0.00    -0.049 A 
ATOM      6  C   UNL     1      -1.199  -0.990   1.202  0.00  0.00    +0.005 A 
ATOM      7  C   UNL     1      -1.057  -2.358   1.070  0.00  0.00    +0.030 A 
ATOM      8  C   UNL     1      -0.152  -2.876   0.163  0.00  0.00    +0.119 A 
ATOM      9  C   UNL     1       0.611  -2.024  -0.615  0.00  0.00    +0.044 A 
ATOM     10  C   UNL     1       0.465  -0.654  -0.487  0.00  0.00    +0.020 A 
ATOM     11 BR   UNL     1       1.850  -2.731  -1.856  0.00  0.00    -0.048 Br
ENDBRANCH   1   8
BRANCH   1  12
ATOM     12  N   UNL     1       1.558  -5.005   0.505  0.00  0.00    -0.188 NA
ATOM     13  H   UNL     1       2.205  -5.358  -0.125  0.00  0.00    +0.148 HD
BRANCH  12  14
ATOM     14  C   UNL     1       1.933  -4.810   1.908  0.00  0.00    +0.062 C 
ATOM     15  C   UNL     1       1.822  -6.141   2.673  0.00  0.00    +0.019 C 
ATOM     16  C   UNL     1       3.234  -6.461   3.207  0.00  0.00    -0.000 C 
ATOM     17  C   UNL     1       4.183  -5.684   2.261  0.00  0.00    -0.015 C 
ATOM     18  C   UNL     1       3.407  -4.366   2.005  0.00  0.00    -0.056 C 
BRANCH  18  19
ATOM     19  N   UNL     1       3.842  -3.750   0.744  0.00  0.00    +0.381 N 
ATOM     20  H   UNL     1       3.268  -2.943   0.549  0.00  0.00    -0.090 HD
ATOM     21  H   UNL     1       4.807  -3.466   0.824  0.00  0.00    -0.090 HD
ATOM     22  H   UNL     1       3.749  -4.418  -0.006  0.00  0.00    -0.090 HD
ENDBRANCH  18  19
ENDBRANCH  12  14
ENDBRANCH   1  12
TORSDOF 4
