REMARK  Name = ZINC50867605
REMARK  5 active torsions:
REMARK  status: ('A' for Active; 'I' for Inactive)
REMARK    1  A    between atoms: C_1  and  C_2
REMARK    2  A    between atoms: C_5  and  C_7
REMARK    3  A    between atoms: C_10  and  C_12
REMARK    4  A    between atoms: C_16  and  N_18
REMARK    5  A    between atoms: N_18  and  C_19
REMARK                            x       y       z     vdW  Elec       q    Type
REMARK                         _______ _______ _______ _____ _____    ______ ____
ROOT
ATOM      1  C   UNL     1      -0.906  -5.459   1.211  0.00  0.00    +0.198 A 
ATOM      2  N   UNL     1      -1.461  -6.308   2.068  0.00  0.00    -0.229 NA
ATOM      3  C   UNL     1      -1.764  -7.545   1.702  0.00  0.00    +0.050 A 
ATOM      4  C   UNL     1      -1.495  -7.949   0.409  0.00  0.00    +0.014 A 
ATOM      5  C   UNL     1      -0.911  -7.036  -0.472  0.00  0.00    +0.126 A 
ATOM      6  N   UNL     1      -0.638  -5.809  -0.042  0.00  0.00    -0.210 NA
ATOM      7  C   UNL     1      -1.921  -9.386   0.220  0.00  0.00    +0.041 C 
ATOM      8  C   UNL     1      -2.079  -9.951   1.649  0.00  0.00    +0.011 C 
ATOM      9  C   UNL     1      -2.391  -8.684   2.474  0.00  0.00    +0.056 C 
ENDROOT
BRANCH   1  13
ATOM     10  C   UNL     1       0.118  -2.011   1.645  0.00  0.00    +0.109 A 
ATOM     11  C   UNL     1      -0.346  -2.255   2.888  0.00  0.00    +0.046 A 
ATOM     12  C   UNL     1      -0.798  -3.587   2.905  0.00  0.00    +0.053 A 
ATOM     13  C   UNL     1      -0.584  -4.090   1.659  0.00  0.00    +0.172 A 
ATOM     14  O   UNL     1      -0.033  -3.119   0.905  0.00  0.00    -0.456 OA
BRANCH  10  18
ATOM     15  C   UNL     1      -0.019   1.526   0.010  0.00  0.00    +0.008 C 
ATOM     16  C   UNL     1       0.002  -0.004   0.002  0.00  0.00    -0.003 C 
ATOM     17  C   UNL     1       1.351  -0.691  -0.221  0.00  0.00    +0.015 C 
ATOM     18  C   UNL     1       0.703  -0.708   1.166  0.00  0.00    +0.058 C 
ENDBRANCH  10  18
ENDBRANCH   1  13
BRANCH   5  19
ATOM     19  N   UNL     1      -0.625  -7.403  -1.778  0.00  0.00    -0.332 N 
ATOM     20  C   UNL     1      -0.012  -6.437  -2.693  0.00  0.00    +0.127 C 
ATOM     21  H   UNL     1      -0.832  -8.299  -2.085  0.00  0.00    +0.147 HD
ENDBRANCH   5  19
TORSDOF 3
