REMARK  Name = ZINC17245424
REMARK  11 active torsions:
REMARK  status: ('A' for Active; 'I' for Inactive)
REMARK    1  A    between atoms: C_1  and  C_2
REMARK    2  A    between atoms: N_7  and  S_9
REMARK    3  A    between atoms: S_9  and  C_12
REMARK    4  A    between atoms: C_15  and  C_18
REMARK    5  A    between atoms: N_20  and  C_21
REMARK    6  A    between atoms: C_21  and  C_22
REMARK    7  A    between atoms: C_22  and  N_67
REMARK    8  A    between atoms: C_23  and  N_67
REMARK    9  A    between atoms: C_24  and  N_67
REMARK   10  A    between atoms: C_29  and  O_34
REMARK   11  A    between atoms: O_34  and  C_35
REMARK                            x       y       z     vdW  Elec       q    Type
REMARK                         _______ _______ _______ _____ _____    ______ ____
ROOT
ATOM      1  C   UNL     1       1.201   3.146   0.092  0.00  0.00    +0.252 C 
ATOM      2  O   UNL     1       0.060   3.546  -0.033  0.00  0.00    -0.270 OA
ATOM      3  N   UNL     1       2.227   4.020   0.068  0.00  0.00    -0.248 N 
ATOM      4  C   UNL     1       1.976   5.381   0.023  0.00  0.00    +0.168 A 
ATOM      5  N   UNL     1       0.822   6.005  -0.002  0.00  0.00    -0.224 NA
ATOM      6  C   UNL     1       0.725   7.352  -0.045  0.00  0.00    +0.084 A 
ATOM      7  C   UNL     1      -0.448   8.142  -0.074  0.00  0.00    +0.074 A 
ATOM      8  C   UNL     1      -0.369   9.513  -0.117  0.00  0.00    +0.122 A 
ATOM      9  C   UNL     1       0.859  10.168  -0.134  0.00  0.00    +0.047 A 
ATOM     10  C   UNL     1       2.023   9.423  -0.106  0.00  0.00    +0.021 A 
ATOM     11  C   UNL     1       1.952   8.053  -0.063  0.00  0.00    +0.041 A 
ATOM     12  S   UNL     1       3.142   6.735  -0.009  0.00  0.00    -0.052 S 
ENDROOT
BRANCH   1  16
ATOM     13  C   UNL     1       1.957  -1.001   0.607  0.00  0.00    +0.106 A 
ATOM     14  C   UNL     1       2.722  -0.267  -0.281  0.00  0.00    +0.029 A 
ATOM     15  C   UNL     1       2.482   1.081  -0.454  0.00  0.00    +0.015 A 
ATOM     16  C   UNL     1       1.464   1.703   0.271  0.00  0.00    +0.037 A 
ATOM     17  C   UNL     1       0.695   0.956   1.166  0.00  0.00    +0.015 A 
ATOM     18  C   UNL     1       0.947  -0.391   1.329  0.00  0.00    +0.029 A 
BRANCH  13  19
ATOM     19  S   UNL     1       2.271  -2.722   0.821  0.00  0.00    +0.061 S 
ATOM     20  O   UNL     1       1.064  -3.298   1.303  0.00  0.00    -0.153 OA
ATOM     21  O   UNL     1       2.907  -3.169  -0.368  0.00  0.00    -0.153 OA
BRANCH  19  27
ATOM     22  C   UNL     1       3.323  -2.133   5.751  0.00  0.00    +0.009 C 
ATOM     23  C   UNL     1       3.656  -1.927   4.272  0.00  0.00    +0.002 C 
ATOM     24  C   UNL     1       5.169  -2.037   4.068  0.00  0.00    +0.006 C 
ATOM     25  C   UNL     1       5.506  -1.799   2.595  0.00  0.00    +0.017 C 
ATOM     26  C   UNL     1       4.823  -2.877   1.738  0.00  0.00    +0.109 C 
ATOM     27  N   UNL     1       3.385  -2.869   2.037  0.00  0.00    -0.176 NA
ATOM     28  C   UNL     1       2.953  -3.001   3.436  0.00  0.00    +0.112 C 
ENDBRANCH  19  27
ENDBRANCH  13  19
ENDBRANCH   1  16
BRANCH   8  29
ATOM     29  O   UNL     1      -1.514  10.245  -0.145  0.00  0.00    -0.495 OA
ATOM     30  C   UNL     1      -1.375  11.667  -0.190  0.00  0.00    +0.277 C 
ENDBRANCH   8  29
BRANCH   3  31
ATOM     31  C   UNL     1       3.607   3.530   0.088  0.00  0.00    +0.097 C 
BRANCH  31  32
ATOM     32  C   UNL     1       4.161   3.506  -1.337  0.00  0.00    -0.060 C 
BRANCH  32  35
ATOM     33  C   UNL     1       5.961   2.635  -2.703  0.00  0.00    -0.097 C 
ATOM     34  C   UNL     1       6.457   3.727  -0.600  0.00  0.00    -0.097 C 
ATOM     35  N   UNL     1       5.494   2.867  -1.320  0.00  0.00    +0.377 N 
ATOM     36  H   UNL     1       5.426   1.964  -0.835  0.00  0.00    -0.083 HD
ENDBRANCH  32  35
ENDBRANCH  31  32
ENDBRANCH   3  31
TORSDOF 7
