REMARK  Name = ZINC37538546
REMARK  11 active torsions:
REMARK  status: ('A' for Active; 'I' for Inactive)
REMARK    1  A    between atoms: C_1  and  C_2
REMARK    2  A    between atoms: C_11  and  O_12
REMARK    3  A    between atoms: C_16  and  O_17
REMARK    4  A    between atoms: C_18  and  C_24
REMARK    5  A    between atoms: C_18  and  O_29
REMARK    6  A    between atoms: C_19  and  C_20
REMARK    7  A    between atoms: C_19  and  O_23
REMARK    8  A    between atoms: C_24  and  C_25
REMARK    9  A    between atoms: C_25  and  C_26
REMARK   10  A    between atoms: C_26  and  C_27
REMARK   11  A    between atoms: C_26  and  C_28
REMARK                            x       y       z     vdW  Elec       q    Type
REMARK                         _______ _______ _______ _____ _____    ______ ____
ROOT
ATOM      1  C   UNL     1       0.513   1.724  -0.463  0.00  0.00    +0.019 C 
ATOM      2  C   UNL     1       0.457   0.196  -0.503  0.00  0.00    +0.103 C 
ATOM      3  C   UNL     1       1.265  -0.318  -1.675  0.00  0.00    +0.173 C 
ATOM      4  O   UNL     1       0.723  -0.711  -2.687  0.00  0.00    -0.292 OA
ATOM      5  C   UNL     1       2.730  -0.324  -1.546  0.00  0.00    +0.066 A 
ATOM      6  C   UNL     1       3.328  -0.102  -0.289  0.00  0.00    +0.002 A 
ATOM      7  C   UNL     1       4.682  -0.119  -0.165  0.00  0.00    +0.019 A 
ATOM      8  C   UNL     1       5.503  -0.347  -1.285  0.00  0.00    +0.027 A 
ATOM      9  C   UNL     1       4.918  -0.563  -2.556  0.00  0.00    +0.028 A 
ATOM     10  C   UNL     1       3.514  -0.551  -2.679  0.00  0.00    +0.135 A 
ATOM     11  C   UNL     1       5.742  -0.783  -3.671  0.00  0.00    +0.012 A 
ATOM     12  C   UNL     1       7.096  -0.792  -3.525  0.00  0.00    +0.004 A 
ATOM     13  C   UNL     1       7.682  -0.584  -2.280  0.00  0.00    +0.046 A 
ATOM     14  C   UNL     1       6.907  -0.364  -1.163  0.00  0.00    +0.125 A 
ATOM     15  C   UNL     1       2.496   0.163   0.938  0.00  0.00    +0.131 C 
ATOM     16  C   UNL     1       1.079  -0.382   0.775  0.00  0.00    +0.209 C 
ENDROOT
BRANCH  16  17
ATOM     17  C   UNL     1       0.244   0.016   1.965  0.00  0.00    +0.391 C 
ATOM     18  O   UNL     1      -0.265  -0.842   2.667  0.00  0.00    -0.243 OA
ATOM     19  O   UNL     1       0.078   1.195   2.226  0.00  0.00    -0.243 OA
ENDBRANCH  16  17
BRANCH  10  20
ATOM     20  O   UNL     1       2.931  -0.759  -3.883  0.00  0.00    -0.505 OA
ATOM     21  H   UNL     1       2.782   0.049  -4.393  0.00  0.00    +0.292 HD
ENDBRANCH  10  20
BRANCH  14  22
ATOM     22  O   UNL     1       7.491  -0.163   0.047  0.00  0.00    -0.506 OA
ATOM     23  H   UNL     1       7.636  -0.974   0.553  0.00  0.00    +0.292 HD
ENDBRANCH  14  22
BRANCH  16  24
ATOM     24  O   UNL     1       1.125  -1.808   0.680  0.00  0.00    -0.374 OA
ATOM     25  H   UNL     1       0.258  -2.223   0.571  0.00  0.00    +0.211 HD
ENDBRANCH  16  24
BRANCH  15  26
ATOM     26  O   UNL     1       2.432   1.573   1.164  0.00  0.00    -0.380 OA
ATOM     27  H   UNL     1       3.294   1.988   1.305  0.00  0.00    +0.211 HD
ENDBRANCH  15  26
BRANCH  15  28
ATOM     28  C   UNL     1       3.155  -0.507   2.145  0.00  0.00    +0.043 C 
BRANCH  28  29
ATOM     29  C   UNL     1       3.387  -1.989   1.842  0.00  0.00    +0.006 C 
BRANCH  29  30
ATOM     30  C   UNL     1       4.177  -2.626   2.987  0.00  0.00    -0.017 C 
ATOM     31  C   UNL     1       3.334  -2.602   4.263  0.00  0.00    +0.007 C 
ATOM     32  C   UNL     1       4.517  -4.074   2.628  0.00  0.00    +0.007 C 
ENDBRANCH  29  30
ENDBRANCH  28  29
ENDBRANCH  15  28
TORSDOF 8
