REMARK  Name = ZINC36031996
REMARK  9 active torsions:
REMARK  status: ('A' for Active; 'I' for Inactive)
REMARK    1  A    between atoms: C_1  and  C_2
REMARK    2  A    between atoms: C_2  and  O_3
REMARK    3  A    between atoms: O_3  and  C_4
REMARK    4  A    between atoms: C_6  and  C_14
REMARK    5  A    between atoms: C_8  and  N_11
REMARK    6  A    between atoms: C_9  and  O_10
REMARK    7  A    between atoms: C_17  and  C_28
REMARK    8  A    between atoms: C_23  and  N_27
REMARK    9  A    between atoms: C_24  and  C_25
REMARK                            x       y       z     vdW  Elec       q    Type
REMARK                         _______ _______ _______ _____ _____    ______ ____
ROOT
ATOM      1  C   UNL     1      -0.229  -4.969   0.478  0.00  0.00    +0.102 C 
ATOM      2  C   UNL     1      -1.260  -5.861  -0.165  0.00  0.00    +0.054 A 
ATOM      3  C   UNL     1      -2.545  -5.545  -0.617  0.00  0.00    +0.100 A 
ATOM      4  N   UNL     1      -3.083  -6.644  -1.109  0.00  0.00    -0.171 NA
ATOM      5  N   UNL     1      -2.153  -7.688  -0.982  0.00  0.00    -0.246 N 
ATOM      6  H   UNL     1      -2.285  -8.607  -1.262  0.00  0.00    +0.192 HD
ATOM      7  C   UNL     1      -1.043  -7.187  -0.400  0.00  0.00    +0.223 A 
ATOM      8  O   UNL     1       0.117  -7.810  -0.072  0.00  0.00    -0.423 OA
ATOM      9  C   UNL     1       0.966  -7.157   0.747  0.00  0.00    +0.200 C 
ATOM     10  C   UNL     1       0.862  -5.842   1.046  0.00  0.00    +0.098 C 
ENDROOT
BRANCH   3  11
ATOM     11  C   UNL     1      -3.189  -4.209  -0.554  0.00  0.00    +0.003 A 
ATOM     12  C   UNL     1      -2.934  -3.361   0.522  0.00  0.00    +0.011 A 
ATOM     13  C   UNL     1      -3.535  -2.119   0.576  0.00  0.00    +0.020 A 
ATOM     14  C   UNL     1      -4.390  -1.717  -0.436  0.00  0.00    +0.041 A 
ATOM     15  C   UNL     1      -4.646  -2.557  -1.507  0.00  0.00    +0.020 A 
ATOM     16  C   UNL     1      -4.045  -3.798  -1.573  0.00  0.00    +0.011 A 
ATOM     17 CL   UNL     1      -5.144  -0.155  -0.362  0.00  0.00    -0.084 Cl
ENDBRANCH   3  11
BRANCH   1  20
ATOM     18  C   UNL     1       0.777  -1.811  -1.336  0.00  0.00    +0.164 A 
ATOM     19  C   UNL     1       0.243  -2.669  -0.388  0.00  0.00    +0.054 A 
ATOM     20  C   UNL     1       0.352  -4.037  -0.555  0.00  0.00    -0.029 A 
ATOM     21  C   UNL     1       0.992  -4.552  -1.667  0.00  0.00    +0.041 A 
ATOM     22  C   UNL     1       1.526  -3.702  -2.617  0.00  0.00    +0.171 A 
ATOM     23  C   UNL     1       1.416  -2.330  -2.458  0.00  0.00    +0.189 A 
BRANCH  22  24
ATOM     24  N   UNL     1       2.210  -4.257  -3.806  0.00  0.00    +0.060 N 
ATOM     25  O   UNL     1       2.302  -5.454  -3.946  0.00  0.00    -0.126 OA
ATOM     26  O   UNL     1       2.678  -3.513  -4.636  0.00  0.00    -0.126 OA
ENDBRANCH  22  24
BRANCH  23  27
ATOM     27  O   UNL     1       1.936  -1.492  -3.394  0.00  0.00    -0.502 OA
ATOM     28  H   UNL     1       2.856  -1.241  -3.231  0.00  0.00    +0.292 HD
ENDBRANCH  23  27
BRANCH  18  29
ATOM     29  O   UNL     1       0.671  -0.465  -1.174  0.00  0.00    -0.488 OA
BRANCH  29  31
ATOM     30  C   UNL     1      -0.019   1.526   0.010  0.00  0.00    +0.048 C 
ATOM     31  C   UNL     1       0.002  -0.004   0.002  0.00  0.00    +0.226 C 
ENDBRANCH  29  31
ENDBRANCH  18  29
ENDBRANCH   1  20
BRANCH   9  32
ATOM     32  N   UNL     1       1.996  -7.868   1.310  0.00  0.00    -0.328 N 
ATOM     33  H   UNL     1       2.097  -8.812   1.115  0.00  0.00    +0.145 HD
ATOM     34  H   UNL     1       2.623  -7.425   1.904  0.00  0.00    +0.145 HD
ENDBRANCH   9  32
BRANCH  10  35
ATOM     35  C   UNL     1       1.821  -5.257   1.934  0.00  0.00    +0.101 C 
ATOM     36  N   UNL     1       2.583  -4.793   2.638  0.00  0.00    -0.191 NA
ENDBRANCH  10  35
TORSDOF 8
