REMARK  Name = ZINC44854887
REMARK  7 active torsions:
REMARK  status: ('A' for Active; 'I' for Inactive)
REMARK    1  A    between atoms: C_1  and  C_2
REMARK    2  A    between atoms: C_2  and  C_4
REMARK    3  A    between atoms: C_2  and  N_16
REMARK    4  A    between atoms: C_7  and  N_10
REMARK    5  A    between atoms: C_17  and  C_19
REMARK    6  A    between atoms: N_23  and  S_32
REMARK    7  A    between atoms: S_32  and  C_35
REMARK                            x       y       z     vdW  Elec       q    Type
REMARK                         _______ _______ _______ _____ _____    ______ ____
ROOT
ATOM      1  N   UNL     1       0.705  -0.474   1.198  0.00  0.00    -0.306 N 
ATOM      2  C   UNL     1       2.048  -0.585   1.191  0.00  0.00    +0.254 C 
ATOM      3  O   UNL     1       2.675  -0.295   0.194  0.00  0.00    -0.272 OA
ATOM      4  H   UNL     1       0.204  -0.706   1.996  0.00  0.00    +0.149 HD
ENDROOT
BRANCH   2   5
ATOM      5  C   UNL     1       2.771  -1.068   2.421  0.00  0.00    +0.260 C 
ATOM      6  C   UNL     1       2.360  -2.505   2.709  0.00  0.00    +0.075 C 
ATOM      7  C   UNL     1       2.911  -3.014   4.028  0.00  0.00    +0.135 C 
ATOM      8  N   UNL     1       4.380  -3.050   3.989  0.00  0.00    -0.204 N 
ATOM      9  C   UNL     1       5.075  -1.856   4.228  0.00  0.00    +0.094 A 
ATOM     10  C   UNL     1       5.876  -1.714   5.350  0.00  0.00    +0.048 A 
ATOM     11  C   UNL     1       6.545  -0.522   5.568  0.00  0.00    +0.043 A 
ATOM     12  C   UNL     1       6.416   0.522   4.670  0.00  0.00    +0.024 A 
ATOM     13  C   UNL     1       5.619   0.383   3.547  0.00  0.00    +0.049 A 
ATOM     14  C   UNL     1       4.951  -0.807   3.323  0.00  0.00    +0.144 A 
ATOM     15  O   UNL     1       4.177  -0.967   2.207  0.00  0.00    -0.478 OA
ATOM     16 CL   UNL     1       7.551  -0.339   6.971  0.00  0.00    -0.083 Cl
BRANCH   8  17
ATOM     17  S   UNL     1       5.190  -4.459   3.671  0.00  0.00    +0.043 S 
ATOM     18  O   UNL     1       6.456  -4.297   4.294  0.00  0.00    -0.155 OA
ATOM     19  O   UNL     1       4.303  -5.488   4.088  0.00  0.00    -0.155 OA
ATOM     20  C   UNL     1       5.380  -4.490   1.867  0.00  0.00    +0.218 C 
ENDBRANCH   8  17
ENDBRANCH   2   5
BRANCH   1  22
ATOM     21  C   UNL     1      -0.019   1.526  -0.009  0.00  0.00    +0.033 C 
ATOM     22  C   UNL     1       0.002  -0.004   0.002  0.00  0.00    +0.100 C 
BRANCH  22  23
ATOM     23  C   UNL     1      -1.412  -0.526   0.013  0.00  0.00    -0.027 A 
ATOM     24  C   UNL     1      -2.127  -0.555   1.196  0.00  0.00    +0.007 A 
ATOM     25  C   UNL     1      -3.423  -1.033   1.209  0.00  0.00    +0.023 A 
ATOM     26  C   UNL     1      -4.008  -1.483   0.032  0.00  0.00    +0.030 A 
ATOM     27  C   UNL     1      -3.286  -1.452  -1.154  0.00  0.00    +0.023 A 
ATOM     28  C   UNL     1      -1.993  -0.969  -1.161  0.00  0.00    +0.007 A 
BRANCH  26  29
ATOM     29  N   UNL     1      -5.318  -1.967   0.042  0.00  0.00    -0.330 N 
ATOM     30  C   UNL     1      -5.990  -2.334  -1.212  0.00  0.00    +0.105 C 
ATOM     31  C   UNL     1      -6.517  -3.767  -1.087  0.00  0.00    +0.019 C 
ATOM     32  C   UNL     1      -7.403  -3.875   0.156  0.00  0.00    +0.003 C 
ATOM     33  C   UNL     1      -6.577  -3.554   1.403  0.00  0.00    +0.019 C 
ATOM     34  C   UNL     1      -6.048  -2.125   1.308  0.00  0.00    +0.105 C 
ENDBRANCH  26  29
ENDBRANCH  22  23
ENDBRANCH   1  22
TORSDOF 5
