REMARK  Name = ZINC21776630
REMARK  12 active torsions:
REMARK  status: ('A' for Active; 'I' for Inactive)
REMARK    1  A    between atoms: C_1  and  C_2
REMARK    2  A    between atoms: C_4  and  C_34
REMARK    3  A    between atoms: C_5  and  C_33
REMARK    4  A    between atoms: C_6  and  S_9
REMARK    5  A    between atoms: C_7  and  C_8
REMARK    6  A    between atoms: S_9  and  N_12
REMARK    7  A    between atoms: N_12  and  C_13
REMARK    8  A    between atoms: C_13  and  C_14
REMARK    9  A    between atoms: C_14  and  C_16
REMARK   10  A    between atoms: C_14  and  N_26
REMARK   11  A    between atoms: N_24  and  C_25
REMARK   12  A    between atoms: N_29  and  C_32
REMARK                            x       y       z     vdW  Elec       q    Type
REMARK                         _______ _______ _______ _____ _____    ______ ____
ROOT
ATOM      1  C   UNL     1      -2.087  -1.117  -0.766  0.00  0.00    +0.102 C 
ENDROOT
BRANCH   1   2
ATOM      2  C   UNL     1      -3.094  -0.756  -1.827  0.00  0.00    -0.029 A 
ATOM      3  C   UNL     1      -2.728  -0.763  -3.161  0.00  0.00    +0.007 A 
ATOM      4  C   UNL     1      -3.647  -0.436  -4.136  0.00  0.00    +0.024 A 
ATOM      5  C   UNL     1      -4.949  -0.085  -3.782  0.00  0.00    +0.033 A 
ATOM      6  C   UNL     1      -5.306  -0.081  -2.440  0.00  0.00    -0.025 A 
ATOM      7  C   UNL     1      -4.385  -0.412  -1.469  0.00  0.00    +0.010 A 
ATOM      8  C   UNL     1      -6.765   0.322  -2.346  0.00  0.00    +0.056 C 
ATOM      9  C   UNL     1      -7.267   0.133  -3.796  0.00  0.00    +0.109 C 
ATOM     10  N   UNL     1      -6.029   0.291  -4.590  0.00  0.00    -0.332 N 
ATOM     11  C   UNL     1      -6.080  -0.521  -5.813  0.00  0.00    +0.129 C 
ENDBRANCH   1   2
BRANCH   1  12
ATOM     12  N   UNL     1      -1.109  -0.030  -0.629  0.00  0.00    -0.298 NA
ATOM     13  C   UNL     1      -0.571   0.363  -1.939  0.00  0.00    +0.066 C 
ATOM     14  C   UNL     1       0.499   1.440  -1.746  0.00  0.00    -0.064 C 
ATOM     15  N   UNL     1      -0.091   2.595  -1.054  0.00  0.00    +0.379 N 
ATOM     16  C   UNL     1      -0.629   2.202   0.256  0.00  0.00    -0.064 C 
ATOM     17  C   UNL     1      -1.699   1.125   0.062  0.00  0.00    +0.066 C 
ATOM     18  C   UNL     1       0.887   3.683  -0.917  0.00  0.00    -0.096 C 
ATOM     19  H   UNL     1      -0.926   2.967  -1.667  0.00  0.00    -0.082 HD
ENDBRANCH   1  12
BRANCH   1  20
ATOM     20  C   UNL     1      -1.364  -2.405  -1.166  0.00  0.00    +0.129 C 
BRANCH  20  21
ATOM     21  N   UNL     1      -0.334  -2.716  -0.172  0.00  0.00    -0.188 NA
ATOM     22  H   UNL     1       0.100  -1.912   0.441  0.00  0.00    +0.148 HD
BRANCH  21  23
ATOM     23  S   UNL     1       0.356  -4.221  -0.136  0.00  0.00    +0.059 S 
ATOM     24  O   UNL     1       1.322  -4.201   0.905  0.00  0.00    -0.153 OA
ATOM     25  O   UNL     1      -0.712  -5.158  -0.166  0.00  0.00    -0.153 OA
BRANCH  23  31
ATOM     26  C   UNL     1       4.799  -4.154  -2.888  0.00  0.00    +0.044 C 
ATOM     27  C   UNL     1       3.309  -4.376  -2.857  0.00  0.00    -0.045 A 
ATOM     28  C   UNL     1       2.639  -4.738  -4.011  0.00  0.00    +0.007 A 
ATOM     29  C   UNL     1       1.272  -4.942  -3.981  0.00  0.00    -0.045 A 
ATOM     30  C   UNL     1       0.575  -4.784  -2.798  0.00  0.00    -0.021 A 
ATOM     31  C   UNL     1       1.244  -4.423  -1.644  0.00  0.00    +0.112 A 
ATOM     32  C   UNL     1       2.611  -4.214  -1.674  0.00  0.00    -0.021 A 
ATOM     33  C   UNL     1       3.340  -3.813  -0.418  0.00  0.00    +0.046 C 
ATOM     34  C   UNL     1      -0.915  -5.006  -2.767  0.00  0.00    +0.046 C 
ATOM     35  C   UNL     1       0.542  -5.337  -5.239  0.00  0.00    +0.044 C 
ENDBRANCH  23  31
ENDBRANCH  21  23
ENDBRANCH  20  21
ENDBRANCH   1  20
TORSDOF 6
