REMARK  Name = ZINC35486214
REMARK  16 active torsions:
REMARK  status: ('A' for Active; 'I' for Inactive)
REMARK    1  A    between atoms: C_1  and  C_2
REMARK    2  A    between atoms: C_2  and  N_3
REMARK    3  A    between atoms: N_3  and  C_4
REMARK    4  A    between atoms: N_3  and  C_6
REMARK    5  A    between atoms: C_4  and  C_5
REMARK    6  A    between atoms: C_6  and  C_7
REMARK    7  A    between atoms: C_7  and  N_8
REMARK    8  A    between atoms: C_9  and  C_25
REMARK    9  A    between atoms: C_16  and  C_24
REMARK   10  A    between atoms: C_28  and  O_33
REMARK   11  A    between atoms: C_29  and  O_31
REMARK   12  A    between atoms: O_31  and  C_32
REMARK   13  A    between atoms: O_33  and  C_34
REMARK   14  A    between atoms: C_34  and  C_35
REMARK   15  A    between atoms: C_35  and  C_36
REMARK   16  A    between atoms: C_35  and  C_37
REMARK                            x       y       z     vdW  Elec       q    Type
REMARK                         _______ _______ _______ _____ _____    ______ ____
ROOT
ATOM      1  N   UNL     1      -2.896  -4.091   0.190  0.00  0.00    -0.285 N 
ATOM      2  C   UNL     1      -2.723  -5.090  -0.878  0.00  0.00    +0.145 C 
ATOM      3  C   UNL     1      -2.792  -6.421  -0.205  0.00  0.00    +0.072 A 
ATOM      4  C   UNL     1      -2.696  -7.782  -0.744  0.00  0.00    +0.199 A 
ATOM      5  O   UNL     1      -2.360  -8.024  -1.890  0.00  0.00    -0.287 OA
ATOM      6  C   UNL     1      -3.049  -8.837   0.240  0.00  0.00    +0.065 A 
ATOM      7  C   UNL     1      -3.200 -10.162  -0.169  0.00  0.00    +0.018 A 
ATOM      8  C   UNL     1      -3.530 -11.121   0.749  0.00  0.00    -0.050 A 
ATOM      9  C   UNL     1      -3.714 -10.779   2.081  0.00  0.00    +0.007 A 
ATOM     10  C   UNL     1      -3.567  -9.476   2.502  0.00  0.00    +0.047 A 
ATOM     11  C   UNL     1      -3.228  -8.480   1.586  0.00  0.00    +0.139 A 
ATOM     12  O   UNL     1      -3.080  -7.209   2.023  0.00  0.00    -0.450 OA
ATOM     13  C   UNL     1      -2.981  -6.204   1.130  0.00  0.00    +0.199 A 
ATOM     14  C   UNL     1      -3.041  -4.750   1.357  0.00  0.00    +0.283 C 
ATOM     15  O   UNL     1      -3.200  -4.221   2.440  0.00  0.00    -0.267 OA
ATOM     16  C   UNL     1      -3.694 -12.553   0.311  0.00  0.00    +0.044 C 
ENDROOT
BRANCH   2  17
ATOM     17  C   UNL     1      -3.829  -4.962  -1.894  0.00  0.00    -0.019 A 
ATOM     18  C   UNL     1      -5.122  -4.707  -1.477  0.00  0.00    +0.009 A 
ATOM     19  C   UNL     1      -6.140  -4.588  -2.405  0.00  0.00    +0.050 A 
ATOM     20  C   UNL     1      -5.865  -4.724  -3.756  0.00  0.00    +0.162 A 
ATOM     21  C   UNL     1      -4.564  -4.980  -4.176  0.00  0.00    +0.162 A 
ATOM     22  C   UNL     1      -3.547  -5.093  -3.241  0.00  0.00    +0.055 A 
BRANCH  21  23
ATOM     23  O   UNL     1      -4.289  -5.115  -5.501  0.00  0.00    -0.491 OA
ATOM     24  C   UNL     1      -2.930  -5.377  -5.858  0.00  0.00    +0.277 C 
ENDBRANCH  21  23
BRANCH  20  25
ATOM     25  O   UNL     1      -6.866  -4.608  -4.670  0.00  0.00    -0.488 OA
BRANCH  25  26
ATOM     26  C   UNL     1      -8.177  -4.345  -4.167  0.00  0.00    +0.232 C 
BRANCH  26  27
ATOM     27  C   UNL     1      -9.161  -4.248  -5.334  0.00  0.00    +0.020 C 
ATOM     28  C   UNL     1      -9.260  -5.606  -6.032  0.00  0.00    +0.010 C 
ATOM     29  C   UNL     1     -10.540  -3.844  -4.807  0.00  0.00    +0.010 C 
ENDBRANCH  26  27
ENDBRANCH  25  26
ENDBRANCH  20  25
ENDBRANCH   2  17
BRANCH   1  30
ATOM     30  C   UNL     1      -2.903  -2.637   0.015  0.00  0.00    +0.090 C 
BRANCH  30  31
ATOM     31  C   UNL     1      -1.476  -2.100   0.149  0.00  0.00    -0.060 C 
BRANCH  31  32
ATOM     32  N   UNL     1      -1.465  -0.661  -0.147  0.00  0.00    +0.380 N 
ATOM     33  H   UNL     1      -1.873  -0.501  -1.056  0.00  0.00    -0.082 HD
BRANCH  32  35
ATOM     34  C   UNL     1      -2.336   1.535   0.497  0.00  0.00    -0.017 C 
ATOM     35  C   UNL     1      -2.244   0.054   0.873  0.00  0.00    -0.082 C 
ENDBRANCH  32  35
BRANCH  32  36
ATOM     36  C   UNL     1      -0.080  -0.171  -0.138  0.00  0.00    -0.082 C 
ATOM     37  C   UNL     1       0.691  -0.800  -1.300  0.00  0.00    -0.017 C 
ENDBRANCH  32  36
ENDBRANCH  31  32
ENDBRANCH  30  31
ENDBRANCH   1  30
TORSDOF 10
