REMARK  Name = ZINC44784188
REMARK  4 active torsions:
REMARK  status: ('A' for Active; 'I' for Inactive)
REMARK    1  A    between atoms: C_4  and  C_7
REMARK    2  A    between atoms: C_4  and  C_11
REMARK    3  A    between atoms: N_8  and  O_9
REMARK    4  A    between atoms: N_13  and  C_14
REMARK                            x       y       z     vdW  Elec       q    Type
REMARK                         _______ _______ _______ _____ _____    ______ ____
ROOT
ATOM      1  C   UNL     1      -0.238   0.802   0.308  0.00  0.00    +0.000 C 
ATOM      2  C   UNL     1       0.998   1.702   0.248  0.00  0.00    +0.001 C 
ATOM      3  C   UNL     1       1.684   1.538  -1.109  0.00  0.00    +0.024 C 
ATOM      4  C   UNL     1       2.105   0.078  -1.295  0.00  0.00    +0.105 C 
ATOM      5  C   UNL     1       0.869  -0.821  -1.235  0.00  0.00    +0.024 C 
ATOM      6  C   UNL     1       0.183  -0.657   0.122  0.00  0.00    +0.001 C 
ENDROOT
BRANCH   4   7
ATOM      7  C   UNL     1       2.780  -0.084  -2.632  0.00  0.00    +0.147 C 
ATOM      8  N   UNL     1       3.882   0.545  -2.880  0.00  0.00    -0.076 NA
ATOM      9  N   UNL     1       2.224  -0.901  -3.590  0.00  0.00    -0.343 N 
ATOM     10  H   UNL     1       1.441  -1.434  -3.378  0.00  0.00    +0.144 HD
ATOM     11  H   UNL     1       2.615  -0.946  -4.477  0.00  0.00    +0.144 HD
BRANCH   8  12
ATOM     12  O   UNL     1       4.521   1.284  -1.855  0.00  0.00    -0.408 OA
ATOM     13  H   UNL     1       5.338   1.719  -2.136  0.00  0.00    +0.328 HD
ENDBRANCH   8  12
ENDBRANCH   4   7
BRANCH   4  14
ATOM     14  C   UNL     1       3.063  -0.311  -0.198  0.00  0.00    +0.227 C 
ATOM     15  O   UNL     1       3.474   0.529   0.574  0.00  0.00    -0.275 OA
ATOM     16  N   UNL     1       3.462  -1.593  -0.075  0.00  0.00    -0.310 N 
ATOM     17  H   UNL     1       3.191  -2.250  -0.735  0.00  0.00    +0.149 HD
BRANCH  16  18
ATOM     18  C   UNL     1       4.303  -1.993   1.055  0.00  0.00    +0.095 C 
ATOM     19  C   UNL     1       5.783  -1.755   0.710  0.00  0.00    +0.046 C 
ATOM     20  C   UNL     1       6.687  -2.461   1.749  0.00  0.00    +0.168 C 
ATOM     21  S   UNL     1       5.640  -3.866   2.307  0.00  0.00    -0.029 S 
ATOM     22  O   UNL     1       5.359  -3.712   3.691  0.00  0.00    -0.174 OA
ATOM     23  O   UNL     1       6.209  -5.081   1.839  0.00  0.00    -0.174 OA
ATOM     24  C   UNL     1       4.112  -3.509   1.342  0.00  0.00    +0.188 C 
ENDBRANCH  16  18
ENDBRANCH   4  14
TORSDOF 4
