REMARK  Name = ZINC03365993
REMARK  6 active torsions:
REMARK  status: ('A' for Active; 'I' for Inactive)
REMARK    1  A    between atoms: C_1  and  C_2
REMARK    2  A    between atoms: C_2  and  C_30
REMARK    3  A    between atoms: C_13  and  C_15
REMARK    4  A    between atoms: C_15  and  O_16
REMARK    5  A    between atoms: O_16  and  C_17
REMARK    6  A    between atoms: C_17  and  C_19
REMARK                            x       y       z     vdW  Elec       q    Type
REMARK                         _______ _______ _______ _____ _____    ______ ____
ROOT
ATOM      1  C   UNL     1      -5.041   1.003   0.236  0.00  0.00    +0.042 C 
ATOM      2  C   UNL     1      -3.754   1.815   0.395  0.00  0.00    +0.113 C 
ATOM      3  C   UNL     1      -3.977   3.218  -0.107  0.00  0.00    +0.241 C 
ATOM      4  O   UNL     1      -5.078   3.719  -0.017  0.00  0.00    -0.273 OA
ATOM      5  N   UNL     1      -2.967   3.923  -0.645  0.00  0.00    -0.282 N 
ATOM      6  C   UNL     1      -1.701   3.351  -0.811  0.00  0.00    +0.055 A 
ATOM      7  C   UNL     1      -0.599   4.139  -1.103  0.00  0.00    +0.025 A 
ATOM      8  C   UNL     1       0.641   3.552  -1.272  0.00  0.00    +0.002 A 
ATOM      9  C   UNL     1       0.788   2.182  -1.153  0.00  0.00    +0.002 A 
ATOM     10  C   UNL     1      -0.306   1.387  -0.860  0.00  0.00    +0.025 A 
ATOM     11  C   UNL     1      -1.550   1.968  -0.692  0.00  0.00    +0.059 A 
ATOM     12  N   UNL     1      -2.679   1.190  -0.390  0.00  0.00    -0.253 N 
ATOM     13  C   UNL     1      -2.773  -0.089  -0.805  0.00  0.00    +0.258 C 
ATOM     14  O   UNL     1      -3.703  -0.777  -0.441  0.00  0.00    -0.271 OA
ATOM     15  C   UNL     1      -3.354   1.855   1.871  0.00  0.00    +0.042 C 
ATOM     16  H   UNL     1      -3.122   4.837  -0.932  0.00  0.00    +0.155 HD
ENDROOT
BRANCH  13  17
ATOM     17  C   UNL     1      -1.724  -0.663  -1.722  0.00  0.00    +0.328 C 
BRANCH  17  18
ATOM     18  O   UNL     1      -2.257  -1.834  -2.394  0.00  0.00    -0.451 OA
BRANCH  18  19
ATOM     19  C   UNL     1      -1.438  -2.471  -3.256  0.00  0.00    +0.348 C 
ATOM     20  O   UNL     1      -0.310  -2.058  -3.441  0.00  0.00    -0.244 OA
BRANCH  19  21
ATOM     21  C   UNL     1      -1.909  -3.661  -3.971  0.00  0.00    +0.116 A 
ATOM     22  C   UNL     1      -1.240  -4.428  -4.875  0.00  0.00    +0.070 A 
ATOM     23  C   UNL     1      -1.873  -5.544  -5.453  0.00  0.00    +0.009 A 
ATOM     24  C   UNL     1      -1.346  -6.459  -6.401  0.00  0.00    +0.013 A 
ATOM     25  C   UNL     1      -2.098  -7.489  -6.865  0.00  0.00    +0.039 A 
ATOM     26  C   UNL     1      -3.407  -7.689  -6.434  0.00  0.00    +0.124 A 
ATOM     27  C   UNL     1      -3.959  -6.821  -5.511  0.00  0.00    +0.054 A 
ATOM     28  C   UNL     1      -3.205  -5.771  -5.032  0.00  0.00    +0.024 A 
ATOM     29  S   UNL     1      -3.503  -4.457  -3.876  0.00  0.00    -0.080 S 
ATOM     30  F   UNL     1      -4.131  -8.723  -6.914  0.00  0.00    -0.205 F 
ATOM     31 CL   UNL     1       0.394  -4.034  -5.311  0.00  0.00    -0.082 Cl
ENDBRANCH  19  21
ENDBRANCH  18  19
ENDBRANCH  17  18
ENDBRANCH  13  17
TORSDOF 4
