REMARK  Name = ZINC66922601
REMARK  12 active torsions:
REMARK  status: ('A' for Active; 'I' for Inactive)
REMARK    1  A    between atoms: C_1  and  C_2
REMARK    2  A    between atoms: C_2  and  C_3
REMARK    3  A    between atoms: N_5  and  C_6
REMARK    4  A    between atoms: C_9  and  O_25
REMARK    5  A    between atoms: C_10  and  C_12
REMARK    6  A    between atoms: N_14  and  C_15
REMARK    7  A    between atoms: C_15  and  C_17
REMARK    8  A    between atoms: C_15  and  C_18
REMARK    9  A    between atoms: N_20  and  C_21
REMARK   10  A    between atoms: C_21  and  C_22
REMARK   11  A    between atoms: C_21  and  C_23
REMARK   12  A    between atoms: C_21  and  C_24
REMARK                            x       y       z     vdW  Elec       q    Type
REMARK                         _______ _______ _______ _____ _____    ______ ____
ROOT
ATOM      1  C   UNL     1       1.619  -2.341   2.498  0.00  0.00    +0.034 A 
ATOM      2  C   UNL     1       2.152  -1.478   3.449  0.00  0.00    +0.027 A 
ATOM      3  C   UNL     1       2.887  -1.974   4.506  0.00  0.00    +0.048 A 
ATOM      4  C   UNL     1       3.099  -3.340   4.627  0.00  0.00    +0.129 A 
ATOM      5  C   UNL     1       2.565  -4.215   3.673  0.00  0.00    +0.080 A 
ATOM      6  C   UNL     1       1.818  -3.706   2.608  0.00  0.00    +0.040 A 
ENDROOT
BRANCH   1   9
ATOM      7  C   UNL     1       1.210  -0.643   0.879  0.00  0.00    +0.217 C 
ATOM      8  O   UNL     1       2.104   0.018   1.365  0.00  0.00    -0.275 OA
ATOM      9  N   UNL     1       0.874  -1.828   1.428  0.00  0.00    -0.285 N 
ATOM     10  H   UNL     1       0.117  -2.325   1.082  0.00  0.00    +0.155 HD
BRANCH   7  12
ATOM     11  C   UNL     1       1.048   1.216  -0.753  0.00  0.00    +0.013 C 
ATOM     12  C   UNL     1       0.475  -0.140  -0.336  0.00  0.00    +0.093 C 
ENDBRANCH   7  12
ENDBRANCH   1   9
BRANCH   5  13
ATOM     13  C   UNL     1       2.786  -5.669   3.795  0.00  0.00    +0.248 C 
ATOM     14  O   UNL     1       3.433  -6.110   4.725  0.00  0.00    -0.270 OA
ATOM     15  N   UNL     1       2.271  -6.509   2.875  0.00  0.00    -0.300 N 
ATOM     16  H   UNL     1       1.754  -6.157   2.133  0.00  0.00    +0.150 HD
BRANCH  15  17
ATOM     17  C   UNL     1       2.490  -7.952   2.996  0.00  0.00    +0.156 C 
ATOM     18  C   UNL     1       1.432  -8.553   3.924  0.00  0.00    +0.038 C 
BRANCH  17  19
ATOM     19  C   UNL     1       2.387  -8.592   1.636  0.00  0.00    +0.233 C 
ATOM     20  O   UNL     1       2.154  -7.909   0.661  0.00  0.00    -0.274 OA
ATOM     21  N   UNL     1       2.555  -9.922   1.502  0.00  0.00    -0.309 N 
ATOM     22  H   UNL     1       2.742 -10.468   2.282  0.00  0.00    +0.149 HD
BRANCH  21  23
ATOM     23  C   UNL     1       2.455 -10.544   0.179  0.00  0.00    +0.026 C 
ATOM     24  C   UNL     1       3.514  -9.943  -0.748  0.00  0.00    +0.031 C 
ATOM     25  C   UNL     1       2.684 -12.052   0.306  0.00  0.00    +0.031 C 
ATOM     26  C   UNL     1       1.063 -10.287  -0.401  0.00  0.00    +0.031 C 
ENDBRANCH  21  23
ENDBRANCH  17  19
ENDBRANCH  15  17
ENDBRANCH   5  13
BRANCH   4  27
ATOM     27  O   UNL     1       3.823  -3.826   5.668  0.00  0.00    -0.506 OA
ATOM     28  H   UNL     1       3.294  -4.039   6.449  0.00  0.00    +0.292 HD
ENDBRANCH   4  27
TORSDOF 7
