REMARK  Name = ZINC64044003
REMARK  9 active torsions:
REMARK  status: ('A' for Active; 'I' for Inactive)
REMARK    1  A    between atoms: C_1  and  O_2
REMARK    2  A    between atoms: O_2  and  C_3
REMARK    3  A    between atoms: C_5  and  C_10
REMARK    4  A    between atoms: N_24  and  C_25
REMARK    5  A    between atoms: C_25  and  C_26
REMARK    6  A    between atoms: C_30  and  O_32
REMARK    7  A    between atoms: O_32  and  C_33
REMARK    8  A    between atoms: C_33  and  C_34
REMARK    9  A    between atoms: C_34  and  O_35
REMARK                            x       y       z     vdW  Elec       q    Type
REMARK                         _______ _______ _______ _____ _____    ______ ____
ROOT
ATOM      1  C   UNL     1      -4.872   0.257   0.038  0.00  0.00    +0.114 C 
ATOM      2  C   UNL     1      -5.438   0.307   1.459  0.00  0.00    +0.128 C 
ATOM      3  C   UNL     1      -6.801   0.982   1.351  0.00  0.00    -0.035 C 
ATOM      4  C   UNL     1      -6.786   1.994   2.207  0.00  0.00    -0.001 A 
ATOM      5  C   UNL     1      -7.828   2.952   2.612  0.00  0.00    +0.010 A 
ATOM      6  C   UNL     1      -7.458   3.891   3.522  0.00  0.00    +0.001 A 
ATOM      7  C   UNL     1      -6.171   3.973   4.064  0.00  0.00    +0.002 A 
ATOM      8  C   UNL     1      -5.154   3.130   3.753  0.00  0.00    +0.026 A 
ATOM      9  C   UNL     1      -5.422   2.096   2.810  0.00  0.00    +0.043 A 
ATOM     10  N   UNL     1      -4.637   1.139   2.355  0.00  0.00    -0.376 N 
ATOM     11  C   UNL     1      -7.829   0.533   0.342  0.00  0.00    +0.049 C 
ATOM     12  C   UNL     1      -7.088   0.411  -1.002  0.00  0.00    +0.090 C 
ATOM     13  N   UNL     1      -5.867  -0.384  -0.836  0.00  0.00    -0.289 NA
ATOM     14  H   UNL     1      -3.700   1.006   2.567  0.00  0.00    +0.160 HD
ENDROOT
BRANCH   1  17
ATOM     15  C   UNL     1      -1.201  -0.638   0.010  0.00  0.00    +0.155 A 
ATOM     16  C   UNL     1      -2.375   0.100   0.019  0.00  0.00    +0.053 A 
ATOM     17  C   UNL     1      -3.596  -0.546   0.028  0.00  0.00    -0.024 A 
ATOM     18  C   UNL     1      -3.650  -1.927   0.027  0.00  0.00    +0.008 A 
ATOM     19  C   UNL     1      -2.482  -2.667   0.018  0.00  0.00    +0.042 A 
ATOM     20  C   UNL     1      -1.256  -2.026   0.003  0.00  0.00    +0.165 A 
ATOM     21  F   UNL     1      -0.115  -2.748  -0.012  0.00  0.00    -0.202 F 
BRANCH  15  23
ATOM     22  C   UNL     1      -0.017   1.425   0.010  0.00  0.00    +0.277 C 
ATOM     23  O   UNL     1       0.002  -0.004   0.002  0.00  0.00    -0.492 OA
ENDBRANCH  15  23
ENDBRANCH   1  17
BRANCH  13  24
ATOM     24  C   UNL     1      -5.281  -0.728  -2.138  0.00  0.00    +0.120 C 
BRANCH  24  25
ATOM     25  C   UNL     1      -6.244  -1.594  -2.909  0.00  0.00    -0.030 A 
ATOM     26  C   UNL     1      -6.195  -2.969  -2.777  0.00  0.00    +0.005 A 
ATOM     27  C   UNL     1      -7.077  -3.766  -3.483  0.00  0.00    +0.004 A 
ATOM     28  C   UNL     1      -8.010  -3.189  -4.323  0.00  0.00    +0.045 A 
ATOM     29  C   UNL     1      -8.061  -1.809  -4.458  0.00  0.00    +0.121 A 
ATOM     30  C   UNL     1      -7.179  -1.012  -3.744  0.00  0.00    +0.050 A 
BRANCH  29  31
ATOM     31  O   UNL     1      -8.977  -1.239  -5.284  0.00  0.00    -0.490 OA
BRANCH  31  32
ATOM     32  C   UNL     1      -9.857  -2.122  -5.984  0.00  0.00    +0.256 C 
BRANCH  32  33
ATOM     33  C   UNL     1     -10.811  -1.304  -6.857  0.00  0.00    +0.196 C 
BRANCH  33  34
ATOM     34  O   UNL     1     -10.065  -0.630  -7.873  0.00  0.00    -0.392 OA
ATOM     35  H   UNL     1     -10.607  -0.091  -8.466  0.00  0.00    +0.210 HD
ENDBRANCH  33  34
ENDBRANCH  32  33
ENDBRANCH  31  32
ENDBRANCH  29  31
ENDBRANCH  24  25
ENDBRANCH  13  24
TORSDOF 8
