REMARK  Name = ZINC59829206
REMARK  13 active torsions:
REMARK  status: ('A' for Active; 'I' for Inactive)
REMARK    1  A    between atoms: C_1  and  C_2
REMARK    2  A    between atoms: C_4  and  C_32
REMARK    3  A    between atoms: C_5  and  C_31
REMARK    4  A    between atoms: C_6  and  S_9
REMARK    5  A    between atoms: C_7  and  C_8
REMARK    6  A    between atoms: S_9  and  N_12
REMARK    7  A    between atoms: N_12  and  C_13
REMARK    8  A    between atoms: C_13  and  C_14
REMARK    9  A    between atoms: C_14  and  C_15
REMARK   10  A    between atoms: C_15  and  C_16
REMARK   11  A    between atoms: C_17  and  C_29
REMARK   12  A    between atoms: C_18  and  N_28
REMARK   13  A    between atoms: N_19  and  C_21
REMARK                            x       y       z     vdW  Elec       q    Type
REMARK                         _______ _______ _______ _____ _____    ______ ____
ROOT
ATOM      1  C   UNL     1       4.794  -0.975   4.300  0.00  0.00    +0.060 C 
ENDROOT
BRANCH   1   2
ATOM      2  C   UNL     1       6.030  -1.434   5.030  0.00  0.00    +0.083 A 
ATOM      3  C   UNL     1       6.234  -1.379   6.429  0.00  0.00    +0.114 A 
ATOM      4  C   UNL     1       7.501  -1.901   6.676  0.00  0.00    +0.138 A 
ATOM      5  N   UNL     1       8.027  -2.250   5.480  0.00  0.00    -0.217 N 
ATOM      6  N   UNL     1       7.092  -1.954   4.482  0.00  0.00    -0.168 NA
BRANCH   5   7
ATOM      7  C   UNL     1       9.293  -2.818   5.275  0.00  0.00    +0.068 A 
ATOM      8  C   UNL     1      10.360  -2.447   6.082  0.00  0.00    +0.030 A 
ATOM      9  C   UNL     1      11.605  -3.007   5.879  0.00  0.00    +0.040 A 
ATOM     10  C   UNL     1      11.791  -3.938   4.871  0.00  0.00    +0.124 A 
ATOM     11  C   UNL     1      10.728  -4.309   4.064  0.00  0.00    +0.040 A 
ATOM     12  C   UNL     1       9.479  -3.756   4.269  0.00  0.00    +0.030 A 
ATOM     13  F   UNL     1      13.011  -4.485   4.673  0.00  0.00    -0.205 F 
ENDBRANCH   5   7
BRANCH   4  14
ATOM     14  N   UNL     1       8.107  -2.036   7.910  0.00  0.00    -0.342 N 
ATOM     15  H   UNL     1       7.642  -1.753   8.713  0.00  0.00    +0.144 HD
ATOM     16  H   UNL     1       8.998  -2.414   7.974  0.00  0.00    +0.144 HD
ENDBRANCH   4  14
BRANCH   3  17
ATOM     17  C   UNL     1       5.314  -0.880   7.405  0.00  0.00    +0.104 C 
ATOM     18  N   UNL     1       4.583  -0.484   8.180  0.00  0.00    -0.191 NA
ENDBRANCH   3  17
ENDBRANCH   1   2
BRANCH   1  19
ATOM     19  C   UNL     1       3.804  -2.136   4.194  0.00  0.00    +0.023 C 
BRANCH  19  20
ATOM     20  C   UNL     1       2.549  -1.671   3.453  0.00  0.00    +0.106 C 
BRANCH  20  21
ATOM     21  N   UNL     1       1.601  -2.783   3.351  0.00  0.00    -0.190 NA
ATOM     22  H   UNL     1       1.897  -3.690   3.526  0.00  0.00    +0.148 HD
BRANCH  21  23
ATOM     23  S   UNL     1       0.024  -2.492   2.938  0.00  0.00    +0.059 S 
ATOM     24  O   UNL     1      -0.425  -1.431   3.771  0.00  0.00    -0.153 OA
ATOM     25  O   UNL     1      -0.626  -3.755   2.898  0.00  0.00    -0.153 OA
BRANCH  23  31
ATOM     26  C   UNL     1      -0.192  -3.212  -2.234  0.00  0.00    +0.044 C 
ATOM     27  C   UNL     1      -0.079  -2.260  -1.072  0.00  0.00    -0.045 A 
ATOM     28  C   UNL     1       0.023  -0.900  -1.300  0.00  0.00    +0.007 A 
ATOM     29  C   UNL     1       0.126  -0.027  -0.233  0.00  0.00    -0.045 A 
ATOM     30  C   UNL     1       0.126  -0.513   1.061  0.00  0.00    -0.021 A 
ATOM     31  C   UNL     1       0.023  -1.872   1.289  0.00  0.00    +0.112 A 
ATOM     32  C   UNL     1      -0.085  -2.745   0.223  0.00  0.00    -0.021 A 
ATOM     33  C   UNL     1      -0.202  -4.227   0.471  0.00  0.00    +0.046 C 
ATOM     34  C   UNL     1       0.240   0.440   2.223  0.00  0.00    +0.046 C 
ATOM     35  C   UNL     1       0.239   1.455  -0.482  0.00  0.00    +0.044 C 
ENDBRANCH  23  31
ENDBRANCH  21  23
ENDBRANCH  20  21
ENDBRANCH  19  20
ENDBRANCH   1  19
TORSDOF 9
