REMARK  Name = ZINC10749978
REMARK  5 active torsions:
REMARK  status: ('A' for Active; 'I' for Inactive)
REMARK    1  A    between atoms: C_1  and  C_2
REMARK    2  A    between atoms: C_2  and  O_3
REMARK    3  A    between atoms: O_3  and  C_4
REMARK    4  A    between atoms: C_11  and  C_13
REMARK    5  A    between atoms: C_19  and  C_21
REMARK                            x       y       z     vdW  Elec       q    Type
REMARK                         _______ _______ _______ _____ _____    ______ ____
ROOT
ATOM      1  C   UNL     1      -5.131  -2.842   0.022  0.00  0.00    +0.115 A 
ATOM      2  C   UNL     1      -6.203  -1.989   0.031  0.00  0.00    +0.080 A 
ATOM      3  S   UNL     1      -5.370  -0.407   0.041  0.00  0.00    -0.060 S 
ATOM      4  C   UNL     1      -3.696  -1.033   0.021  0.00  0.00    +0.165 A 
ATOM      5  N   UNL     1      -3.899  -2.337   0.017  0.00  0.00    -0.221 NA
ATOM      6  N   UNL     1      -2.497  -0.332   0.017  0.00  0.00    -0.261 N 
ATOM      7  C   UNL     1      -2.505   1.016   0.022  0.00  0.00    +0.250 C 
ATOM      8  O   UNL     1      -3.561   1.617   0.030  0.00  0.00    -0.270 OA
ATOM      9  H   UNL     1      -1.655  -0.813   0.010  0.00  0.00    +0.157 HD
ENDROOT
BRANCH   7  10
ATOM     10  C   UNL     1      -1.229   1.762   0.017  0.00  0.00    +0.037 A 
ATOM     11  C   UNL     1      -0.013   1.076   0.008  0.00  0.00    +0.013 A 
ATOM     12  C   UNL     1       1.167   1.784   0.001  0.00  0.00    +0.004 A 
ATOM     13  C   UNL     1       1.162   3.175   0.009  0.00  0.00    -0.044 A 
ATOM     14  C   UNL     1      -0.035   3.858   0.019  0.00  0.00    -0.043 A 
ATOM     15  C   UNL     1      -1.230   3.154   0.029  0.00  0.00    +0.017 A 
ATOM     16  C   UNL     1      -0.110   5.362   0.017  0.00  0.00    +0.035 C 
ATOM     17  C   UNL     1       1.226   5.967   0.444  0.00  0.00    +0.005 C 
ATOM     18  C   UNL     1       2.335   5.337  -0.406  0.00  0.00    +0.005 C 
ATOM     19  C   UNL     1       2.495   3.878   0.014  0.00  0.00    +0.035 C 
ENDBRANCH   7  10
BRANCH   1  27
ATOM     20  C   UNL     1      -7.303  -7.314   0.013  0.00  0.00    +0.163 A 
ATOM     21  C   UNL     1      -6.843  -8.619   0.004  0.00  0.00    +0.049 A 
ATOM     22  C   UNL     1      -5.483  -8.889  -0.004  0.00  0.00    +0.004 A 
ATOM     23  C   UNL     1      -4.569  -7.859  -0.004  0.00  0.00    +0.012 A 
ATOM     24  C   UNL     1      -5.018  -6.536   0.005  0.00  0.00    +0.024 A 
ATOM     25  C   UNL     1      -6.396  -6.258   0.014  0.00  0.00    +0.177 A 
ATOM     26  O   UNL     1      -6.540  -4.916   0.021  0.00  0.00    -0.450 OA
ATOM     27  C   UNL     1      -5.339  -4.304   0.017  0.00  0.00    +0.155 A 
ATOM     28  C   UNL     1      -4.351  -5.232   0.003  0.00  0.00    +0.060 A 
BRANCH  20  29
ATOM     29  O   UNL     1      -8.639  -7.064   0.022  0.00  0.00    -0.489 OA
BRANCH  29  31
ATOM     30  C   UNL     1     -10.966  -7.719   0.031  0.00  0.00    +0.048 C 
ATOM     31  C   UNL     1      -9.512  -8.195   0.021  0.00  0.00    +0.226 C 
ENDBRANCH  29  31
ENDBRANCH  20  29
ENDBRANCH   1  27
TORSDOF 4
