REMARK  Name = ZINC19970207
REMARK  6 active torsions:
REMARK  status: ('A' for Active; 'I' for Inactive)
REMARK    1  A    between atoms: C_1  and  C_2
REMARK    2  A    between atoms: C_2  and  C_3
REMARK    3  A    between atoms: C_6  and  N_19
REMARK    4  A    between atoms: C_8  and  C_9
REMARK    5  A    between atoms: C_9  and  C_11
REMARK    6  A    between atoms: C_9  and  N_18
REMARK                            x       y       z     vdW  Elec       q    Type
REMARK                         _______ _______ _______ _____ _____    ______ ____
ROOT
ATOM      1  C   UNL     1      -1.093   1.197  -1.149  0.00  0.00    -0.012 C 
ENDROOT
BRANCH   1   2
ATOM      2  C   UNL     1      -0.378   0.023  -0.530  0.00  0.00    -0.045 A 
ATOM      3  C   UNL     1       0.085   0.102   0.770  0.00  0.00    +0.003 A 
ATOM      4  C   UNL     1       0.736  -0.976   1.340  0.00  0.00    +0.000 A 
ATOM      5  C   UNL     1       0.934  -2.130   0.605  0.00  0.00    +0.001 A 
ATOM      6  C   UNL     1       0.476  -2.208  -0.696  0.00  0.00    +0.014 A 
ATOM      7  C   UNL     1      -0.180  -1.132  -1.264  0.00  0.00    +0.015 A 
ATOM      8  I   UNL     1      -0.875  -1.250  -3.237  0.00  0.00    -0.044 I 
ENDBRANCH   1   2
BRANCH   1  14
ATOM      9  C   UNL     1      -3.443   1.761  -1.798  0.00  0.00    -0.046 A 
ATOM     10  C   UNL     1      -4.809   1.573  -1.698  0.00  0.00    +0.006 A 
ATOM     11  C   UNL     1      -5.314   0.624  -0.829  0.00  0.00    +0.033 A 
ATOM     12  C   UNL     1      -4.452  -0.140  -0.063  0.00  0.00    +0.126 A 
ATOM     13  C   UNL     1      -3.087   0.045  -0.167  0.00  0.00    +0.035 A 
ATOM     14  C   UNL     1      -2.582   0.994  -1.036  0.00  0.00    -0.052 A 
BRANCH  12  15
ATOM     15  N   UNL     1      -4.993  -1.157   0.867  0.00  0.00    +0.056 N 
ATOM     16  O   UNL     1      -4.234  -1.829   1.542  0.00  0.00    -0.126 OA
ATOM     17  O   UNL     1      -6.197  -1.320   0.958  0.00  0.00    -0.126 OA
ENDBRANCH  12  15
BRANCH   9  19
ATOM     18  C   UNL     1      -2.540   2.140  -4.076  0.00  0.00    +0.009 C 
ATOM     19  C   UNL     1      -2.893   2.800  -2.741  0.00  0.00    +0.032 C 
ENDBRANCH   9  19
ENDBRANCH   1  14
BRANCH   1  20
ATOM     20  N   UNL     1      -0.712   2.428  -0.445  0.00  0.00    +0.385 N 
ATOM     21  H   UNL     1       0.375   2.576  -0.527  0.00  0.00    -0.089 HD
ATOM     22  H   UNL     1      -0.991   2.346   0.616  0.00  0.00    -0.089 HD
ATOM     23  H   UNL     1      -1.233   3.285  -0.896  0.00  0.00    -0.089 HD
ENDBRANCH   1  20
TORSDOF 5
