REMARK  Name = ZINC58949895
REMARK  6 active torsions:
REMARK  status: ('A' for Active; 'I' for Inactive)
REMARK    1  A    between atoms: C_1  and  C_2
REMARK    2  A    between atoms: C_2  and  C_26
REMARK    3  A    between atoms: C_6  and  C_15
REMARK    4  A    between atoms: C_8  and  C_12
REMARK    5  A    between atoms: C_9  and  N_11
REMARK    6  A    between atoms: C_18  and  N_20
REMARK                            x       y       z     vdW  Elec       q    Type
REMARK                         _______ _______ _______ _____ _____    ______ ____
ROOT
ATOM      1  C   UNL     1       0.093   1.493   0.092  0.00  0.00    +0.012 C 
ATOM      2  C   UNL     1       0.077  -0.036   0.032  0.00  0.00    -0.021 C 
ATOM      3  C   UNL     1      -1.364  -0.539   0.136  0.00  0.00    +0.081 C 
ATOM      4  C   UNL     1      -1.377  -2.050   0.117  0.00  0.00    +0.115 C 
ATOM      5  C   UNL     1      -0.350  -2.752   0.628  0.00  0.00    +0.046 C 
ATOM      6  C   UNL     1      -0.369  -4.261   0.617  0.00  0.00    +0.102 C 
ATOM      7  C   UNL     1      -1.770  -4.763   0.401  0.00  0.00    +0.083 C 
ATOM      8  C   UNL     1      -2.725  -3.941  -0.105  0.00  0.00    +0.193 C 
ATOM      9  O   UNL     1      -2.444  -2.668  -0.426  0.00  0.00    -0.446 OA
ATOM     10  C   UNL     1       0.772  -2.107   1.184  0.00  0.00    +0.164 C 
ATOM     11  O   UNL     1       1.672  -2.775   1.653  0.00  0.00    -0.292 OA
ATOM     12  C   UNL     1       0.877  -0.607   1.207  0.00  0.00    +0.086 C 
ATOM     13  C   UNL     1       0.695  -0.504  -1.287  0.00  0.00    +0.012 C 
ENDROOT
BRANCH   7  14
ATOM     14  C   UNL     1      -2.093  -6.092   0.726  0.00  0.00    +0.243 C 
ATOM     15  O   UNL     1      -2.285  -6.406   1.888  0.00  0.00    -0.271 OA
ATOM     16  N   UNL     1      -2.191  -7.019  -0.247  0.00  0.00    -0.325 N 
ATOM     17  H   UNL     1      -2.038  -6.769  -1.172  0.00  0.00    +0.145 HD
ATOM     18  H   UNL     1      -2.414  -7.936  -0.023  0.00  0.00    +0.145 HD
ENDBRANCH   7  14
BRANCH   6  19
ATOM     19  C   UNL     1       0.514  -4.763  -0.497  0.00  0.00    +0.004 A 
ATOM     20  C   UNL     1       1.607  -5.562  -0.426  0.00  0.00    +0.014 A 
ATOM     21  C   UNL     1       2.268  -5.897  -1.592  0.00  0.00    +0.041 A 
ATOM     22  C   UNL     1       1.805  -5.418  -2.772  0.00  0.00    +0.164 A 
ATOM     23  S   UNL     1       0.387  -4.466  -2.253  0.00  0.00    -0.069 S 
BRANCH  22  24
ATOM     24  N   UNL     1       2.335  -5.632  -4.138  0.00  0.00    +0.063 N 
ATOM     25  O   UNL     1       3.315  -6.319  -4.305  0.00  0.00    -0.126 OA
ATOM     26  O   UNL     1       1.787  -5.120  -5.086  0.00  0.00    -0.126 OA
ENDBRANCH  22  24
ENDBRANCH   6  19
BRANCH   8  27
ATOM     27  N   UNL     1      -3.995  -4.419  -0.292  0.00  0.00    -0.329 N 
ATOM     28  H   UNL     1      -4.229  -5.308   0.019  0.00  0.00    +0.145 HD
ATOM     29  H   UNL     1      -4.660  -3.869  -0.735  0.00  0.00    +0.145 HD
ENDBRANCH   8  27
TORSDOF 4
