REMARK  Name = ZINC08893203
REMARK  6 active torsions:
REMARK  status: ('A' for Active; 'I' for Inactive)
REMARK    1  A    between atoms: C_1  and  C_2
REMARK    2  A    between atoms: C_5  and  S_8
REMARK    3  A    between atoms: S_8  and  N_11
REMARK    4  A    between atoms: C_15  and  C_17
REMARK    5  A    between atoms: C_23  and  C_30
REMARK    6  A    between atoms: C_24  and  C_29
REMARK                            x       y       z     vdW  Elec       q    Type
REMARK                         _______ _______ _______ _____ _____    ______ ____
ROOT
ATOM      1  N   UNL     1       9.373   0.832  -0.833  0.00  0.00    -0.165 NA
ATOM      2  C   UNL     1      10.053   1.136  -2.105  0.00  0.00    +0.110 C 
ATOM      3  C   UNL     1       9.922   2.671  -2.268  0.00  0.00    +0.019 C 
ATOM      4  C   UNL     1       8.500   2.924  -1.700  0.00  0.00    +0.031 C 
ATOM      5  C   UNL     1       8.398   1.897  -0.553  0.00  0.00    +0.166 C 
ENDROOT
BRANCH   5   6
ATOM      6  C   UNL     1       7.007   1.318  -0.506  0.00  0.00    +0.238 C 
ATOM      7  O   UNL     1       6.838   0.131  -0.687  0.00  0.00    -0.274 OA
ATOM      8  N   UNL     1       5.952   2.120  -0.262  0.00  0.00    -0.263 N 
ATOM      9  C   UNL     1       4.673   1.589  -0.219  0.00  0.00    +0.165 A 
ATOM     10  N   UNL     1       3.534   2.202   0.002  0.00  0.00    -0.224 NA
ATOM     11  C   UNL     1       2.350   1.551   0.015  0.00  0.00    +0.083 A 
ATOM     12  C   UNL     1       1.061   2.088   0.239  0.00  0.00    -0.021 A 
ATOM     13  C   UNL     1      -0.047   1.282   0.218  0.00  0.00    -0.045 A 
ATOM     14  C   UNL     1       0.053  -0.081  -0.021  0.00  0.00    +0.005 A 
ATOM     15  C   UNL     1       1.298  -0.640  -0.243  0.00  0.00    +0.017 A 
ATOM     16  C   UNL     1       2.413   0.160  -0.225  0.00  0.00    +0.041 A 
ATOM     17  S   UNL     1       4.155  -0.106  -0.450  0.00  0.00    -0.052 S 
ATOM     18  C   UNL     1      -1.405   1.891   0.455  0.00  0.00    +0.044 C 
ATOM     19  C   UNL     1       0.904   3.564   0.502  0.00  0.00    +0.046 C 
ATOM     20  H   UNL     1       6.087   3.070  -0.117  0.00  0.00    +0.157 HD
ENDBRANCH   5   6
BRANCH   1  21
ATOM     21  S   UNL     1       9.660  -0.489   0.123  0.00  0.00    +0.062 S 
ATOM     22  O   UNL     1      10.978  -0.928  -0.175  0.00  0.00    -0.153 OA
ATOM     23  O   UNL     1       9.255  -0.134   1.439  0.00  0.00    -0.153 OA
BRANCH  21  28
ATOM     24  C   UNL     1       5.929  -4.863  -1.707  0.00  0.00    +0.044 C 
ATOM     25  C   UNL     1       6.861  -3.770  -1.250  0.00  0.00    -0.050 A 
ATOM     26  C   UNL     1       8.116  -3.651  -1.816  0.00  0.00    +0.005 A 
ATOM     27  C   UNL     1       8.971  -2.648  -1.397  0.00  0.00    +0.029 A 
ATOM     28  C   UNL     1       8.570  -1.766  -0.411  0.00  0.00    +0.106 A 
ATOM     29  C   UNL     1       7.317  -1.889   0.159  0.00  0.00    +0.029 A 
ATOM     30  C   UNL     1       6.460  -2.888  -0.265  0.00  0.00    +0.005 A 
ENDBRANCH  21  28
ENDBRANCH   1  21
TORSDOF 3
