REMARK  Name = ZINC09024049
REMARK  7 active torsions:
REMARK  status: ('A' for Active; 'I' for Inactive)
REMARK    1  A    between atoms: C_1  and  C_2
REMARK    2  A    between atoms: C_5  and  S_7
REMARK    3  A    between atoms: S_7  and  N_10
REMARK    4  A    between atoms: C_14  and  C_16
REMARK    5  A    between atoms: C_19  and  S_21
REMARK    6  A    between atoms: S_21  and  C_24
REMARK    7  A    between atoms: C_24  and  C_25
REMARK                            x       y       z     vdW  Elec       q    Type
REMARK                         _______ _______ _______ _____ _____    ______ ____
ROOT
ATOM      1  C   UNL     1      -6.720   5.495  -1.309  0.00  0.00    +0.238 A 
ATOM      2  N   UNL     1      -6.034   6.602  -1.315  0.00  0.00    -0.109 NA
ATOM      3  N   UNL     1      -4.782   6.329  -1.426  0.00  0.00    -0.090 NA
ATOM      4  C   UNL     1      -4.627   5.037  -1.496  0.00  0.00    +0.361 A 
ATOM      5  O   UNL     1      -5.848   4.480  -1.428  0.00  0.00    -0.406 OA
ENDROOT
BRANCH   1  10
ATOM      6  N   UNL     1      -8.712   6.264  -0.135  0.00  0.00    -0.164 NA
ATOM      7  C   UNL     1      -9.627   7.252  -0.735  0.00  0.00    +0.110 C 
ATOM      8  C   UNL     1     -10.147   6.577  -2.029  0.00  0.00    +0.019 C 
ATOM      9  C   UNL     1      -8.882   5.820  -2.515  0.00  0.00    +0.031 C 
ATOM     10  C   UNL     1      -8.218   5.374  -1.195  0.00  0.00    +0.167 C 
BRANCH   6  11
ATOM     11  S   UNL     1      -8.309   6.172   1.469  0.00  0.00    +0.068 S 
ATOM     12  O   UNL     1      -9.368   6.787   2.190  0.00  0.00    -0.152 OA
ATOM     13  O   UNL     1      -7.902   4.831   1.709  0.00  0.00    -0.152 OA
BRANCH  11  18
ATOM     14  C   UNL     1      -3.012   8.738   2.066  0.00  0.00    +0.051 C 
ATOM     15  C   UNL     1      -4.461   8.333   1.974  0.00  0.00    -0.011 A 
ATOM     16  C   UNL     1      -5.572   9.087   2.163  0.00  0.00    +0.013 A 
ATOM     17  C   UNL     1      -6.814   8.497   2.021  0.00  0.00    +0.036 A 
ATOM     18  C   UNL     1      -6.885   7.181   1.707  0.00  0.00    +0.143 A 
ATOM     19  S   UNL     1      -5.160   6.736   1.590  0.00  0.00    -0.074 S 
ENDBRANCH  11  18
ENDBRANCH   6  11
ENDBRANCH   1  10
BRANCH   4  20
ATOM     20  S   UNL     1      -3.096   4.178  -1.656  0.00  0.00    +0.053 S 
ATOM     21  O   UNL     1      -2.225   5.105  -2.289  0.00  0.00    -0.165 OA
ATOM     22  O   UNL     1      -3.433   2.952  -2.288  0.00  0.00    -0.165 OA
BRANCH  20  23
ATOM     23  C   UNL     1      -2.552   3.874   0.048  0.00  0.00    +0.215 C 
BRANCH  23  24
ATOM     24  C   UNL     1      -1.238   3.136   0.031  0.00  0.00    +0.009 A 
ATOM     25  C   UNL     1      -0.050   3.842   0.023  0.00  0.00    +0.008 A 
ATOM     26  C   UNL     1       1.156   3.166   0.008  0.00  0.00    +0.000 A 
ATOM     27  C   UNL     1       1.174   1.783   0.000  0.00  0.00    +0.003 A 
ATOM     28  C   UNL     1      -0.013   1.076   0.008  0.00  0.00    +0.038 A 
ATOM     29  C   UNL     1      -1.221   1.752   0.017  0.00  0.00    +0.128 A 
ATOM     30  F   UNL     1      -2.382   1.062   0.019  0.00  0.00    -0.205 F 
ENDBRANCH  23  24
ENDBRANCH  20  23
ENDBRANCH   4  20
TORSDOF 6
