REMARK  Name = ZINC16020005
REMARK  8 active torsions:
REMARK  status: ('A' for Active; 'I' for Inactive)
REMARK    1  A    between atoms: C_1  and  C_2
REMARK    2  A    between atoms: C_2  and  C_3
REMARK    3  A    between atoms: C_14  and  C_17
REMARK    4  A    between atoms: C_17  and  C_18
REMARK    5  A    between atoms: C_21  and  O_25
REMARK    6  A    between atoms: C_22  and  O_24
REMARK    7  A    between atoms: N_28  and  C_31
REMARK    8  A    between atoms: C_31  and  C_32
REMARK                            x       y       z     vdW  Elec       q    Type
REMARK                         _______ _______ _______ _____ _____    ______ ____
ROOT
ATOM      1  C   UNL     1       0.707  -0.490  -1.238  0.00  0.00    -0.047 A 
ATOM      2  C   UNL     1      -0.009  -0.719  -2.398  0.00  0.00    +0.005 A 
ATOM      3  C   UNL     1       0.631  -1.163  -3.536  0.00  0.00    +0.024 A 
ATOM      4  C   UNL     1       2.006  -1.384  -3.525  0.00  0.00    +0.039 A 
ATOM      5  C   UNL     1       2.717  -1.153  -2.351  0.00  0.00    +0.004 A 
ATOM      6  C   UNL     1       2.074  -0.703  -1.220  0.00  0.00    +0.011 A 
ATOM      7  C   UNL     1       4.148  -1.487  -2.665  0.00  0.00    +0.136 C 
ATOM      8  C   UNL     1       5.073  -0.286  -2.436  0.00  0.00    +0.122 C 
ATOM      9  C   UNL     1       6.393  -0.906  -1.897  0.00  0.00    +0.107 C 
ATOM     10  C   UNL     1       6.128  -2.426  -1.856  0.00  0.00    +0.072 C 
ATOM     11  N   UNL     1       4.655  -2.562  -1.791  0.00  0.00    -0.295 NA
ATOM     12  C   UNL     1       7.395  -0.591  -2.984  0.00  0.00    +0.227 C 
ATOM     13  O   UNL     1       8.567  -0.898  -2.967  0.00  0.00    -0.275 OA
ATOM     14  N   UNL     1       6.786   0.079  -3.970  0.00  0.00    -0.237 N 
ATOM     15  C   UNL     1       5.470   0.314  -3.765  0.00  0.00    +0.229 C 
ATOM     16  O   UNL     1       4.725   0.905  -4.517  0.00  0.00    -0.275 OA
ATOM     17  C   UNL     1       4.143  -1.911  -4.108  0.00  0.00    +0.243 C 
ATOM     18  O   UNL     1       5.102  -2.264  -4.762  0.00  0.00    -0.273 OA
ATOM     19  N   UNL     1       2.868  -1.824  -4.532  0.00  0.00    -0.283 N 
ATOM     20  H   UNL     1       4.333  -2.440  -0.843  0.00  0.00    +0.124 HD
ATOM     21  H   UNL     1       2.581  -2.042  -5.433  0.00  0.00    +0.155 HD
ENDROOT
BRANCH   1  23
ATOM     22  C   UNL     1      -0.019   1.526   0.010  0.00  0.00    +0.009 C 
ATOM     23  C   UNL     1       0.002  -0.004   0.002  0.00  0.00    +0.032 C 
ENDBRANCH   1  23
BRANCH  10  24
ATOM     24  C   UNL     1       6.794  -3.050  -0.628  0.00  0.00    +0.054 C 
BRANCH  24  25
ATOM     25  C   UNL     1       6.628  -4.547  -0.673  0.00  0.00    -0.042 A 
ATOM     26  C   UNL     1       5.520  -5.136  -0.092  0.00  0.00    +0.007 A 
ATOM     27  C   UNL     1       5.364  -6.509  -0.131  0.00  0.00    +0.049 A 
ATOM     28  C   UNL     1       6.319  -7.298  -0.753  0.00  0.00    +0.158 A 
ATOM     29  C   UNL     1       7.434  -6.705  -1.337  0.00  0.00    +0.158 A 
ATOM     30  C   UNL     1       7.582  -5.328  -1.299  0.00  0.00    +0.052 A 
BRANCH  29  31
ATOM     31  O   UNL     1       8.374  -7.475  -1.948  0.00  0.00    -0.503 OA
ATOM     32  H   UNL     1       8.207  -7.626  -2.889  0.00  0.00    +0.292 HD
ENDBRANCH  29  31
BRANCH  28  33
ATOM     33  O   UNL     1       6.167  -8.649  -0.791  0.00  0.00    -0.503 OA
ATOM     34  H   UNL     1       5.685  -8.969  -1.566  0.00  0.00    +0.292 HD
ENDBRANCH  28  33
ENDBRANCH  24  25
ENDBRANCH  10  24
BRANCH  14  35
ATOM     35  C   UNL     1       7.489   0.530  -5.173  0.00  0.00    +0.151 C 
BRANCH  35  36
ATOM     36  C   UNL     1       7.417  -0.544  -6.228  0.00  0.00    -0.029 A 
ATOM     37  C   UNL     1       8.398  -1.516  -6.293  0.00  0.00    +0.008 A 
ATOM     38  C   UNL     1       8.332  -2.502  -7.260  0.00  0.00    +0.038 A 
ATOM     39  C   UNL     1       7.284  -2.515  -8.164  0.00  0.00    +0.123 A 
ATOM     40  C   UNL     1       6.302  -1.541  -8.098  0.00  0.00    +0.038 A 
ATOM     41  C   UNL     1       6.367  -0.560  -7.127  0.00  0.00    +0.008 A 
ATOM     42  F   UNL     1       7.219  -3.478  -9.110  0.00  0.00    -0.205 F 
ENDBRANCH  35  36
ENDBRANCH  14  35
TORSDOF 7
