REMARK  Name = ZINC43062832
REMARK  11 active torsions:
REMARK  status: ('A' for Active; 'I' for Inactive)
REMARK    1  A    between atoms: C_1  and  C_2
REMARK    2  A    between atoms: C_2  and  C_3
REMARK    3  A    between atoms: C_2  and  N_4
REMARK    4  A    between atoms: N_4  and  C_5
REMARK    5  A    between atoms: N_4  and  C_22
REMARK    6  A    between atoms: C_5  and  C_6
REMARK    7  A    between atoms: C_6  and  N_7
REMARK    8  A    between atoms: N_10  and  C_11
REMARK    9  A    between atoms: N_10  and  C_12
REMARK   10  A    between atoms: C_22  and  C_23
REMARK   11  A    between atoms: C_22  and  C_24
REMARK                            x       y       z     vdW  Elec       q    Type
REMARK                         _______ _______ _______ _____ _____    ______ ____
ROOT
ATOM      1  N   UNL     1      -4.520   0.820  -1.906  0.00  0.00    -0.301 N 
ATOM      2  C   UNL     1      -5.723   1.403  -1.734  0.00  0.00    +0.302 C 
ATOM      3  O   UNL     1      -6.143   1.614  -0.613  0.00  0.00    -0.253 OA
ATOM      4  N   UNL     1      -6.462   1.752  -2.807  0.00  0.00    -0.282 N 
ATOM      5  C   UNL     1      -5.957   1.498  -4.158  0.00  0.00    +0.134 C 
ATOM      6  H   UNL     1      -4.186   0.652  -2.800  0.00  0.00    +0.150 HD
ENDROOT
BRANCH   4   7
ATOM      7  C   UNL     1      -7.770   2.386  -2.621  0.00  0.00    +0.108 C 
ATOM      8  C   UNL     1      -8.874   1.542  -3.292  0.00  0.00    +0.032 C 
ATOM      9  C   UNL     1      -8.967   2.175  -4.696  0.00  0.00    +0.037 C 
ATOM     10  C   UNL     1      -8.498   3.603  -4.519  0.00  0.00    -0.042 A 
ATOM     11  C   UNL     1      -7.809   3.725  -3.324  0.00  0.00    -0.024 A 
ATOM     12  C   UNL     1      -7.285   4.951  -2.950  0.00  0.00    +0.006 A 
ATOM     13  C   UNL     1      -7.448   6.055  -3.765  0.00  0.00    +0.000 A 
ATOM     14  C   UNL     1      -8.135   5.935  -4.958  0.00  0.00    +0.000 A 
ATOM     15  C   UNL     1      -8.661   4.708  -5.337  0.00  0.00    +0.004 A 
ENDBRANCH   4   7
BRANCH   1  16
ATOM     16  C   UNL     1      -3.718   0.441  -0.740  0.00  0.00    +0.087 C 
BRANCH  16  17
ATOM     17  C   UNL     1      -2.408  -0.196  -1.208  0.00  0.00    -0.059 C 
BRANCH  17  18
ATOM     18  N   UNL     1      -1.616  -0.603  -0.040  0.00  0.00    +0.384 N 
ATOM     19  H   UNL     1      -1.479   0.191   0.567  0.00  0.00    -0.081 HD
BRANCH  18  21
ATOM     20  C   UNL     1       0.420  -0.018  -1.267  0.00  0.00    -0.014 C 
ATOM     21  C   UNL     1      -0.311  -1.110  -0.485  0.00  0.00    -0.074 C 
ATOM     22  C   UNL     1       0.523  -1.511   0.733  0.00  0.00    -0.014 C 
ENDBRANCH  18  21
BRANCH  18  23
ATOM     23  C   UNL     1      -2.329  -1.660   0.690  0.00  0.00    -0.074 C 
ATOM     24  C   UNL     1      -2.028  -3.016   0.048  0.00  0.00    -0.014 C 
ATOM     25  C   UNL     1      -1.868  -1.673   2.148  0.00  0.00    -0.014 C 
ENDBRANCH  18  23
ENDBRANCH  17  18
ENDBRANCH  16  17
ENDBRANCH   1  16
TORSDOF 6
