REMARK  Name = ZINC15731407
REMARK  10 active torsions:
REMARK  status: ('A' for Active; 'I' for Inactive)
REMARK    1  A    between atoms: C_1  and  C_2
REMARK    2  A    between atoms: C_3  and  C_21
REMARK    3  A    between atoms: N_7  and  S_10
REMARK    4  A    between atoms: S_10  and  C_13
REMARK    5  A    between atoms: N_23  and  C_24
REMARK    6  A    between atoms: C_24  and  C_25
REMARK    7  A    between atoms: C_25  and  C_26
REMARK    8  A    between atoms: C_26  and  N_69
REMARK    9  A    between atoms: C_27  and  N_69
REMARK   10  A    between atoms: C_28  and  N_69
REMARK                            x       y       z     vdW  Elec       q    Type
REMARK                         _______ _______ _______ _____ _____    ______ ____
ROOT
ATOM      1  C   UNL     1       6.755   0.903   6.870  0.00  0.00    +0.052 C 
ATOM      2  C   UNL     1       7.033   2.025   5.904  0.00  0.00    +0.045 C 
ATOM      3  C   UNL     1       6.264   2.355   4.853  0.00  0.00    +0.067 C 
ATOM      4  C   UNL     1       6.933   3.527   4.176  0.00  0.00    +0.146 C 
ATOM      5  C   UNL     1       5.999   4.736   4.182  0.00  0.00    +0.070 C 
ATOM      6  C   UNL     1       6.710   5.931   3.538  0.00  0.00    +0.114 C 
ATOM      7  N   UNL     1       7.188   5.534   2.206  0.00  0.00    -0.176 NA
ATOM      8  C   UNL     1       8.031   4.338   2.085  0.00  0.00    +0.114 C 
ATOM      9  C   UNL     1       7.309   3.157   2.742  0.00  0.00    +0.070 C 
ATOM     10  O   UNL     1       8.129   3.818   4.949  0.00  0.00    -0.450 OA
ATOM     11  C   UNL     1       8.189   2.934   5.962  0.00  0.00    +0.336 C 
ATOM     12  O   UNL     1       9.067   2.893   6.800  0.00  0.00    -0.245 OA
ENDROOT
BRANCH   3  13
ATOM     13  C   UNL     1       5.011   1.695   4.435  0.00  0.00    +0.244 C 
ATOM     14  O   UNL     1       4.578   0.755   5.073  0.00  0.00    -0.270 OA
ATOM     15  N   UNL     1       4.347   2.135   3.348  0.00  0.00    -0.312 N 
ATOM     16  H   UNL     1       4.730   2.834   2.796  0.00  0.00    +0.149 HD
BRANCH  15  17
ATOM     17  C   UNL     1       3.047   1.556   2.999  0.00  0.00    +0.102 C 
BRANCH  17  18
ATOM     18  C   UNL     1       2.577   2.127   1.660  0.00  0.00    +0.000 C 
BRANCH  18  19
ATOM     19  C   UNL     1       1.271   1.447   1.246  0.00  0.00    -0.077 C 
BRANCH  19  21
ATOM     20  C   UNL     1       1.731   1.410  -1.131  0.00  0.00    -0.096 C 
ATOM     21  N   UNL     1       0.861   1.969  -0.075  0.00  0.00    +0.380 N 
ATOM     22  H   UNL     1       0.955   2.992  -0.072  0.00  0.00    -0.082 HD
BRANCH  21  23
ATOM     23  C   UNL     1      -0.549   1.617  -0.342  0.00  0.00    -0.069 C 
ATOM     24  C   UNL     1      -1.433   2.269   0.723  0.00  0.00    -0.015 C 
ATOM     25  C   UNL     1      -2.900   1.932   0.445  0.00  0.00    -0.002 C 
ATOM     26  C   UNL     1      -3.291   2.461  -0.937  0.00  0.00    -0.000 C 
ATOM     27  C   UNL     1      -2.407   1.810  -2.002  0.00  0.00    -0.002 C 
ATOM     28  C   UNL     1      -0.941   2.147  -1.723  0.00  0.00    -0.015 C 
ENDBRANCH  21  23
ENDBRANCH  19  21
ENDBRANCH  18  19
ENDBRANCH  17  18
ENDBRANCH  15  17
ENDBRANCH   3  13
BRANCH   7  29
ATOM     29  S   UNL     1       6.783   6.420   0.867  0.00  0.00    +0.067 S 
ATOM     30  O   UNL     1       6.611   7.761   1.304  0.00  0.00    -0.152 OA
ATOM     31  O   UNL     1       7.707   6.063  -0.151  0.00  0.00    -0.152 OA
BRANCH  29  32
ATOM     32  C   UNL     1       5.201   5.859   0.330  0.00  0.00    +0.143 A 
ATOM     33  C   UNL     1       3.973   6.342   0.641  0.00  0.00    +0.036 A 
ATOM     34  C   UNL     1       2.857   5.738   0.092  0.00  0.00    +0.010 A 
ATOM     35  C   UNL     1       3.023   4.675  -0.732  0.00  0.00    +0.047 A 
ATOM     36  S   UNL     1       4.800   4.503  -0.760  0.00  0.00    -0.077 S 
ENDBRANCH  29  32
ENDBRANCH   7  29
TORSDOF 8
