REMARK  Name = ZINC53008740
REMARK  8 active torsions:
REMARK  status: ('A' for Active; 'I' for Inactive)
REMARK    1  A    between atoms: C_1  and  C_2
REMARK    2  A    between atoms: C_7  and  N_12
REMARK    3  A    between atoms: C_9  and  C_11
REMARK    4  A    between atoms: C_13  and  C_15
REMARK    5  A    between atoms: C_15  and  S_16
REMARK    6  A    between atoms: S_16  and  C_17
REMARK    7  A    between atoms: N_22  and  C_23
REMARK    8  A    between atoms: C_23  and  C_24
REMARK                            x       y       z     vdW  Elec       q    Type
REMARK                         _______ _______ _______ _____ _____    ______ ____
ROOT
ATOM      1  S   UNL     1       1.030   0.774   7.471  0.00  0.00    -0.088 S 
ENDROOT
BRANCH   1   2
ATOM      2  C   UNL     1       1.939   0.065   8.803  0.00  0.00    +0.160 A 
ATOM      3  N   UNL     1       2.700  -1.013   8.816  0.00  0.00    -0.133 NA
ATOM      4  N   UNL     1       3.328  -1.394   9.979  0.00  0.00    -0.125 NA
ATOM      5  C   UNL     1       3.166  -0.681  11.076  0.00  0.00    +0.182 A 
ATOM      6  S   UNL     1       2.085   0.617  10.496  0.00  0.00    -0.025 S 
ATOM      7  N   UNL     1       3.700  -0.882  12.344  0.00  0.00    -0.320 N 
ATOM      8  H   UNL     1       3.489  -0.265  13.062  0.00  0.00    +0.148 HD
BRANCH   7   9
ATOM      9  C   UNL     1       4.581  -2.025  12.595  0.00  0.00    +0.135 C 
BRANCH   9  10
ATOM     10  C   UNL     1       5.026  -2.014  14.059  0.00  0.00    +0.135 C 
ATOM     11  C   UNL     1       6.049  -3.143  14.303  0.00  0.00    +0.035 C 
ATOM     12  C   UNL     1       5.637  -3.664  15.707  0.00  0.00    +0.031 C 
ATOM     13  C   UNL     1       4.100  -3.471  15.652  0.00  0.00    +0.160 C 
ATOM     14  O   UNL     1       3.900  -2.255  14.911  0.00  0.00    -0.375 OA
ENDBRANCH   9  10
ENDBRANCH   7   9
ENDBRANCH   1   2
BRANCH   1  15
ATOM     15  C   UNL     1       1.363  -0.333   6.074  0.00  0.00    +0.172 C 
BRANCH  15  17
ATOM     16  N   UNL     1       0.735  -0.503   3.687  0.00  0.00    -0.312 N 
ATOM     17  C   UNL     1       0.634   0.166   4.853  0.00  0.00    +0.224 C 
ATOM     18  O   UNL     1      -0.044   1.170   4.919  0.00  0.00    -0.275 OA
ATOM     19  H   UNL     1       1.276  -1.306   3.634  0.00  0.00    +0.149 HD
BRANCH  16  25
ATOM     20  C   UNL     1      -0.019   1.526   0.010  0.00  0.00    +0.008 C 
ATOM     21  C   UNL     1       0.002  -0.004   0.002  0.00  0.00    -0.009 C 
ATOM     22  C   UNL     1      -1.433  -0.534   0.013  0.00  0.00    +0.003 C 
ATOM     23  C   UNL     1      -2.149  -0.040   1.272  0.00  0.00    +0.002 C 
ATOM     24  C   UNL     1      -1.409  -0.547   2.511  0.00  0.00    +0.022 C 
ATOM     25  C   UNL     1       0.026  -0.018   2.500  0.00  0.00    +0.076 C 
ATOM     26  C   UNL     1       0.742  -0.511   1.242  0.00  0.00    +0.009 C 
ATOM     27  C   UNL     1       2.178   0.019   1.231  0.00  0.00    +0.009 C 
ENDBRANCH  16  25
ENDBRANCH  15  17
ENDBRANCH   1  15
TORSDOF 6
