REMARK  Name = ZINC01937033
REMARK  7 active torsions:
REMARK  status: ('A' for Active; 'I' for Inactive)
REMARK    1  A    between atoms: C_1  and  C_2
REMARK    2  A    between atoms: C_9  and  N_14
REMARK    3  A    between atoms: C_10  and  C_11
REMARK    4  A    between atoms: C_15  and  C_17
REMARK    5  A    between atoms: C_17  and  C_19
REMARK    6  A    between atoms: C_17  and  N_26
REMARK    7  A    between atoms: C_19  and  C_20
REMARK                            x       y       z     vdW  Elec       q    Type
REMARK                         _______ _______ _______ _____ _____    ______ ____
ROOT
ATOM      1  N   UNL     1       1.942  -5.826   1.699  0.00  0.00    -0.278 N 
ATOM      2  C   UNL     1       2.253  -6.086   2.984  0.00  0.00    +0.239 C 
ATOM      3  O   UNL     1       2.232  -5.193   3.805  0.00  0.00    -0.273 OA
ATOM      4  H   UNL     1       1.959  -6.540   1.042  0.00  0.00    +0.155 HD
ENDROOT
BRANCH   1  12
ATOM      5  C   UNL     1      -0.019   1.526   0.010  0.00  0.00    +0.008 C 
ATOM      6  C   UNL     1       0.002  -0.004   0.002  0.00  0.00    -0.009 C 
ATOM      7  C   UNL     1       0.724  -0.500  -1.254  0.00  0.00    +0.008 C 
ATOM      8  C   UNL     1       0.537  -2.012  -1.399  0.00  0.00    +0.037 C 
ATOM      9  C   UNL     1       0.935  -2.680  -0.091  0.00  0.00    -0.023 A 
ATOM     10  C   UNL     1       1.019  -1.977   1.059  0.00  0.00    -0.004 A 
ATOM     11  S   UNL     1       1.508  -3.164   2.276  0.00  0.00    -0.077 S 
ATOM     12  C   UNL     1       1.599  -4.539   1.315  0.00  0.00    +0.084 A 
ATOM     13  C   UNL     1       1.254  -4.090   0.050  0.00  0.00    +0.068 A 
ATOM     14  C   UNL     1       0.750  -0.515   1.242  0.00  0.00    +0.046 C 
BRANCH  13  15
ATOM     15  C   UNL     1       1.212  -5.001  -1.099  0.00  0.00    +0.244 C 
ATOM     16  O   UNL     1       2.208  -5.170  -1.778  0.00  0.00    -0.270 OA
ATOM     17  N   UNL     1       0.071  -5.651  -1.402  0.00  0.00    -0.325 N 
ATOM     18  H   UNL     1      -0.722  -5.516  -0.860  0.00  0.00    +0.145 HD
ATOM     19  H   UNL     1       0.043  -6.254  -2.161  0.00  0.00    +0.145 HD
ENDBRANCH  13  15
ENDBRANCH   1  12
BRANCH   2  20
ATOM     20  C   UNL     1       2.626  -7.485   3.402  0.00  0.00    +0.175 C 
BRANCH  20  21
ATOM     21  N   UNL     1       2.917  -7.505   4.838  0.00  0.00    -0.222 N 
ATOM     22  C   UNL     1       3.881  -6.777   5.429  0.00  0.00    +0.255 C 
ATOM     23  O   UNL     1       4.637  -6.011   4.866  0.00  0.00    -0.270 OA
ATOM     24  C   UNL     1       3.866  -7.065   6.879  0.00  0.00    +0.049 A 
ATOM     25  C   UNL     1       4.610  -6.622   7.961  0.00  0.00    +0.014 A 
ATOM     26  C   UNL     1       4.332  -7.106   9.230  0.00  0.00    +0.001 A 
ATOM     27  C   UNL     1       3.319  -8.026   9.422  0.00  0.00    +0.001 A 
ATOM     28  C   UNL     1       2.567  -8.478   8.349  0.00  0.00    +0.014 A 
ATOM     29  C   UNL     1       2.833  -8.003   7.075  0.00  0.00    +0.049 A 
ATOM     30  C   UNL     1       2.251  -8.250   5.739  0.00  0.00    +0.255 C 
ATOM     31  O   UNL     1       1.328  -9.001   5.495  0.00  0.00    -0.270 OA
ENDBRANCH  20  21
BRANCH  20  32
ATOM     32  C   UNL     1       3.864  -7.936   2.624  0.00  0.00    +0.067 C 
BRANCH  32  33
ATOM     33  C   UNL     1       4.164  -9.377   2.950  0.00  0.00    -0.045 A 
ATOM     34  C   UNL     1       4.995  -9.687   4.010  0.00  0.00    +0.004 A 
ATOM     35  C   UNL     1       5.270 -11.008   4.309  0.00  0.00    +0.000 A 
ATOM     36  C   UNL     1       4.714 -12.020   3.548  0.00  0.00    +0.000 A 
ATOM     37  C   UNL     1       3.882 -11.709   2.488  0.00  0.00    +0.000 A 
ATOM     38  C   UNL     1       3.603 -10.388   2.192  0.00  0.00    +0.004 A 
ENDBRANCH  32  33
ENDBRANCH  20  32
ENDBRANCH   2  20
TORSDOF 6
