REMARK  Name = ZINC36072583
REMARK  12 active torsions:
REMARK  status: ('A' for Active; 'I' for Inactive)
REMARK    1  A    between atoms: C_1  and  O_2
REMARK    2  A    between atoms: O_2  and  C_3
REMARK    3  A    between atoms: C_8  and  C_9
REMARK    4  A    between atoms: C_9  and  N_10
REMARK    5  A    between atoms: N_10  and  C_11
REMARK    6  A    between atoms: N_10  and  C_23
REMARK    7  A    between atoms: C_11  and  C_12
REMARK    8  A    between atoms: C_12  and  C_13
REMARK    9  A    between atoms: C_23  and  C_24
REMARK   10  A    between atoms: C_26  and  C_29
REMARK   11  A    between atoms: N_31  and  C_32
REMARK   12  A    between atoms: C_32  and  C_33
REMARK                            x       y       z     vdW  Elec       q    Type
REMARK                         _______ _______ _______ _____ _____    ______ ____
ROOT
ATOM      1  N   UNL     1       0.903  -2.768  -1.188  0.00  0.00    +0.388 N 
ATOM      2  H   UNL     1       1.128  -1.795  -1.328  0.00  0.00    -0.081 HD
ENDROOT
BRANCH   1   3
ATOM      3  C   UNL     1       0.017  -2.904  -0.024  0.00  0.00    -0.039 C 
BRANCH   3   9
ATOM      4  C   UNL     1       0.686  -0.864   1.272  0.00  0.00    +0.121 A 
ATOM      5  C   UNL     1       1.270  -0.263   2.378  0.00  0.00    +0.046 A 
ATOM      6  C   UNL     1       1.825  -1.043   3.374  0.00  0.00    +0.004 A 
ATOM      7  C   UNL     1       1.799  -2.421   3.269  0.00  0.00    +0.000 A 
ATOM      8  C   UNL     1       1.218  -3.023   2.168  0.00  0.00    +0.005 A 
ATOM      9  C   UNL     1       0.656  -2.247   1.173  0.00  0.00    -0.022 A 
BRANCH   4  11
ATOM     10  C   UNL     1       0.205   1.318   0.461  0.00  0.00    +0.277 C 
ATOM     11  O   UNL     1       0.138  -0.099   0.292  0.00  0.00    -0.495 OA
ENDBRANCH   4  11
ENDBRANCH   3   9
ENDBRANCH   1   3
BRANCH   1  12
ATOM     12  C   UNL     1       0.226  -3.291  -2.382  0.00  0.00    -0.073 C 
BRANCH  12  13
ATOM     13  C   UNL     1      -0.993  -2.422  -2.698  0.00  0.00    +0.019 C 
BRANCH  13  14
ATOM     14  C   UNL     1      -1.688  -2.958  -3.924  0.00  0.00    -0.024 A 
ATOM     15  C   UNL     1      -1.506  -2.548  -5.189  0.00  0.00    +0.087 A 
ATOM     16  N   UNL     1      -2.309  -3.266  -6.032  0.00  0.00    -0.360 N 
ATOM     17  H   UNL     1      -2.353  -3.149  -6.994  0.00  0.00    +0.165 HD
ATOM     18  C   UNL     1      -3.047  -4.179  -5.312  0.00  0.00    +0.047 A 
ATOM     19  C   UNL     1      -2.686  -4.031  -3.961  0.00  0.00    +0.003 A 
ATOM     20  C   UNL     1      -3.276  -4.840  -2.989  0.00  0.00    +0.010 A 
ATOM     21  C   UNL     1      -4.202  -5.776  -3.357  0.00  0.00    +0.001 A 
ATOM     22  C   UNL     1      -4.559  -5.928  -4.689  0.00  0.00    +0.002 A 
ATOM     23  C   UNL     1      -3.995  -5.134  -5.663  0.00  0.00    +0.026 A 
ENDBRANCH  13  14
ENDBRANCH  12  13
ENDBRANCH   1  12
BRANCH   1  24
ATOM     24  C   UNL     1       2.139  -3.528  -0.954  0.00  0.00    +0.019 C 
BRANCH  24  25
ATOM     25  C   UNL     1       3.105  -3.275  -2.082  0.00  0.00    +0.179 A 
ATOM     26  N   UNL     1       3.925  -2.269  -2.159  0.00  0.00    -0.210 NA
ATOM     27  C   UNL     1       4.635  -2.379  -3.314  0.00  0.00    +0.163 A 
ATOM     28  C   UNL     1       4.205  -3.507  -3.942  0.00  0.00    +0.230 A 
ATOM     29  O   UNL     1       3.260  -4.054  -3.162  0.00  0.00    -0.449 OA
BRANCH  27  30
ATOM     30  C   UNL     1       5.673  -1.450  -3.796  0.00  0.00    +0.266 C 
ATOM     31  O   UNL     1       6.171  -1.611  -4.894  0.00  0.00    -0.268 OA
ATOM     32  N   UNL     1       6.071  -0.423  -3.019  0.00  0.00    -0.308 N 
ATOM     33  H   UNL     1       5.727  -0.336  -2.116  0.00  0.00    +0.149 HD
BRANCH  32  34
ATOM     34  C   UNL     1       7.023   0.562  -3.538  0.00  0.00    +0.136 C 
BRANCH  34  35
ATOM     35  C   UNL     1       7.305   1.615  -2.464  0.00  0.00    +0.135 C 
ATOM     36  C   UNL     1       8.212   2.722  -3.042  0.00  0.00    +0.035 C 
ATOM     37  C   UNL     1       9.162   3.025  -1.851  0.00  0.00    +0.031 C 
ATOM     38  C   UNL     1       9.296   1.617  -1.217  0.00  0.00    +0.160 C 
ATOM     39  O   UNL     1       8.000   1.013  -1.365  0.00  0.00    -0.375 OA
ENDBRANCH  34  35
ENDBRANCH  32  34
ENDBRANCH  27  30
ENDBRANCH  24  25
ENDBRANCH   1  24
TORSDOF 11
