REMARK  Name = ZINC36591666
REMARK  20 active torsions:
REMARK  status: ('A' for Active; 'I' for Inactive)
REMARK    1  A    between atoms: C_1  and  C_2
REMARK    2  A    between atoms: C_2  and  C_3
REMARK    3  A    between atoms: C_2  and  C_4
REMARK    4  A    between atoms: C_2  and  C_5
REMARK    5  A    between atoms: C_5  and  C_6
REMARK    6  A    between atoms: C_6  and  C_7
REMARK    7  A    between atoms: C_6  and  C_8
REMARK    8  A    between atoms: C_6  and  N_9
REMARK    9  A    between atoms: C_10  and  C_12
REMARK   10  A    between atoms: C_12  and  C_14
REMARK   11  A    between atoms: C_12  and  N_23
REMARK   12  A    between atoms: C_15  and  O_22
REMARK   13  A    between atoms: C_17  and  O_21
REMARK   14  A    between atoms: C_19  and  O_20
REMARK   15  A    between atoms: N_23  and  C_35
REMARK   16  A    between atoms: C_24  and  C_26
REMARK   17  A    between atoms: C_30  and  N_32
REMARK   18  A    between atoms: C_35  and  C_36
REMARK   19  A    between atoms: C_35  and  C_37
REMARK   20  A    between atoms: C_35  and  C_38
REMARK                            x       y       z     vdW  Elec       q    Type
REMARK                         _______ _______ _______ _____ _____    ______ ____
ROOT
ATOM      1  C   UNL     1       3.985  -0.769  -2.078  0.00  0.00    +0.200 C 
ENDROOT
BRANCH   1   2
ATOM      2  C   UNL     1       2.966  -0.298  -3.084  0.00  0.00    +0.065 A 
ATOM      3  C   UNL     1       3.158   0.900  -3.755  0.00  0.00    +0.129 A 
ATOM      4  C   UNL     1       2.221   1.333  -4.681  0.00  0.00    +0.091 A 
ATOM      5  C   UNL     1       1.092   0.568  -4.936  0.00  0.00    +0.124 A 
ATOM      6  C   UNL     1       0.901  -0.630  -4.265  0.00  0.00    +0.091 A 
ATOM      7  C   UNL     1       1.841  -1.066  -3.342  0.00  0.00    +0.129 A 
BRANCH   7   8
ATOM      8  O   UNL     1       1.656  -2.243  -2.688  0.00  0.00    -0.506 OA
ATOM      9  H   UNL     1       1.166  -2.159  -1.859  0.00  0.00    +0.292 HD
ENDBRANCH   7   8
BRANCH   5  10
ATOM     10  O   UNL     1       0.174   0.993  -5.842  0.00  0.00    -0.507 OA
ATOM     11  H   UNL     1       0.342   0.689  -6.745  0.00  0.00    +0.292 HD
ENDBRANCH   5  10
BRANCH   3  12
ATOM     12  O   UNL     1       4.263   1.650  -3.506  0.00  0.00    -0.506 OA
ATOM     13  H   UNL     1       4.992   1.494  -4.122  0.00  0.00    +0.292 HD
ENDBRANCH   3  12
ENDBRANCH   1   2
BRANCH   1  15
ATOM     14  N   UNL     1       2.429  -0.625  -0.160  0.00  0.00    -0.308 N 
ATOM     15  C   UNL     1       3.607  -0.266  -0.708  0.00  0.00    +0.239 C 
ATOM     16  O   UNL     1       4.364   0.460  -0.099  0.00  0.00    -0.273 OA
ATOM     17  H   UNL     1       1.824  -1.206  -0.647  0.00  0.00    +0.149 HD
BRANCH  14  18
ATOM     18  C   UNL     1       2.062  -0.136   1.172  0.00  0.00    +0.030 C 
ATOM     19  C   UNL     1       2.022   1.393   1.161  0.00  0.00    +0.031 C 
ATOM     20  C   UNL     1       3.098  -0.611   2.193  0.00  0.00    +0.031 C 
BRANCH  18  21
ATOM     21  C   UNL     1       0.684  -0.680   1.553  0.00  0.00    +0.031 C 
BRANCH  21  23
ATOM     22  C   UNL     1      -0.132  -1.369  -0.706  0.00  0.00    +0.010 C 
ATOM     23  C   UNL     1      -0.314  -0.367   0.436  0.00  0.00    -0.036 C 
ATOM     24  C   UNL     1      -0.069   1.050  -0.086  0.00  0.00    +0.010 C 
ATOM     25  C   UNL     1      -1.740  -0.471   0.982  0.00  0.00    +0.010 C 
ENDBRANCH  21  23
ENDBRANCH  18  21
ENDBRANCH  14  18
ENDBRANCH   1  15
BRANCH   1  26
ATOM     26  N   UNL     1       5.306  -0.251  -2.441  0.00  0.00    -0.277 N 
ATOM     27  C   UNL     1       5.766  -0.400  -3.699  0.00  0.00    +0.248 C 
ATOM     28  O   UNL     1       6.788   0.160  -4.043  0.00  0.00    -0.270 OA
BRANCH  27  29
ATOM     29  C   UNL     1       5.026  -1.244  -4.661  0.00  0.00    +0.039 A 
ATOM     30  C   UNL     1       3.979  -2.056  -4.221  0.00  0.00    +0.013 A 
ATOM     31  C   UNL     1       3.293  -2.841  -5.124  0.00  0.00    +0.003 A 
ATOM     32  C   UNL     1       3.640  -2.825  -6.463  0.00  0.00    +0.033 A 
ATOM     33  C   UNL     1       4.676  -2.023  -6.906  0.00  0.00    +0.127 A 
ATOM     34  C   UNL     1       5.367  -1.228  -6.014  0.00  0.00    +0.045 A 
BRANCH  33  35
ATOM     35  N   UNL     1       5.041  -2.012  -8.341  0.00  0.00    +0.056 N 
ATOM     36  O   UNL     1       4.434  -2.704  -9.124  0.00  0.00    -0.126 OA
ATOM     37  O   UNL     1       5.947  -1.312  -8.729  0.00  0.00    -0.126 OA
ENDBRANCH  33  35
ENDBRANCH  27  29
BRANCH  26  38
ATOM     38  C   UNL     1       6.128   0.429  -1.437  0.00  0.00    +0.030 C 
ATOM     39  C   UNL     1       6.222  -0.440  -0.181  0.00  0.00    +0.031 C 
ATOM     40  C   UNL     1       7.530   0.666  -2.000  0.00  0.00    +0.031 C 
ATOM     41  C   UNL     1       5.488   1.773  -1.079  0.00  0.00    +0.031 C 
ENDBRANCH  26  38
ENDBRANCH   1  26
TORSDOF 12
