REMARK  Name = ZINC04595202
REMARK  8 active torsions:
REMARK  status: ('A' for Active; 'I' for Inactive)
REMARK    1  A    between atoms: C_1  and  C_2
REMARK    2  A    between atoms: C_6  and  C_8
REMARK    3  A    between atoms: C_8  and  O_10
REMARK    4  A    between atoms: O_10  and  C_11
REMARK    5  A    between atoms: C_14  and  C_17
REMARK    6  A    between atoms: N_18  and  N_19
REMARK    7  A    between atoms: C_20  and  C_22
REMARK    8  A    between atoms: C_27  and  N_28
REMARK                            x       y       z     vdW  Elec       q    Type
REMARK                         _______ _______ _______ _____ _____    ______ ____
ROOT
ATOM      1  C   UNL     1       0.907   7.355   0.158  0.00  0.00    +0.132 A 
ATOM      2  C   UNL     1      -0.382   7.872   0.209  0.00  0.00    +0.047 A 
ATOM      3  C   UNL     1      -0.578   9.235   0.254  0.00  0.00    +0.013 A 
ATOM      4  C   UNL     1       0.520  10.098   0.235  0.00  0.00    -0.005 A 
ATOM      5  C   UNL     1       1.815   9.574   0.178  0.00  0.00    +0.013 A 
ATOM      6  C   UNL     1       2.002   8.209   0.140  0.00  0.00    +0.047 A 
ENDROOT
BRANCH   4   7
ATOM      7  C   UNL     1       0.315  11.557   0.277  0.00  0.00    +0.138 C 
ATOM      8  N   UNL     1      -0.888  12.042   0.331  0.00  0.00    -0.187 NA
BRANCH   8   9
ATOM      9  N   UNL     1      -1.083  13.429   0.370  0.00  0.00    -0.203 N 
ATOM     10  C   UNL     1      -2.332  13.933   0.425  0.00  0.00    +0.265 C 
ATOM     11  O   UNL     1      -3.290  13.183   0.441  0.00  0.00    -0.268 OA
ATOM     12  H   UNL     1      -0.319  14.027   0.358  0.00  0.00    +0.178 HD
BRANCH  10  13
ATOM     13  C   UNL     1      -2.537  15.392   0.467  0.00  0.00    +0.059 A 
ATOM     14  C   UNL     1      -1.451  16.259   0.324  0.00  0.00    +0.015 A 
ATOM     15  C   UNL     1      -1.650  17.622   0.359  0.00  0.00    +0.001 A 
ATOM     16  C   UNL     1      -2.922  18.139   0.547  0.00  0.00    +0.002 A 
ATOM     17  C   UNL     1      -4.004  17.296   0.695  0.00  0.00    +0.023 A 
ATOM     18  C   UNL     1      -3.824  15.919   0.657  0.00  0.00    +0.037 A 
BRANCH  18  19
ATOM     19  N   UNL     1      -4.912  15.068   0.806  0.00  0.00    -0.357 N 
ATOM     20  H   UNL     1      -4.780  14.165   1.135  0.00  0.00    +0.142 HD
ATOM     21  H   UNL     1      -5.804  15.377   0.582  0.00  0.00    +0.142 HD
ENDBRANCH  18  19
ENDBRANCH  10  13
ENDBRANCH   8   9
ENDBRANCH   4   7
BRANCH   1  22
ATOM     22  O   UNL     1       1.096   6.010   0.121  0.00  0.00    -0.422 OA
BRANCH  22  23
ATOM     23  C   UNL     1       1.522   5.421   1.255  0.00  0.00    +0.344 C 
ATOM     24  O   UNL     1       1.805   6.098   2.222  0.00  0.00    -0.245 OA
BRANCH  23  30
ATOM     25  C   UNL     1       2.660   1.296   3.821  0.00  0.00    +0.044 C 
ATOM     26  C   UNL     1       2.190   1.962   2.553  0.00  0.00    -0.050 A 
ATOM     27  C   UNL     1       1.872   1.193   1.447  0.00  0.00    +0.003 A 
ATOM     28  C   UNL     1       1.434   1.795   0.281  0.00  0.00    +0.001 A 
ATOM     29  C   UNL     1       1.319   3.168   0.211  0.00  0.00    +0.015 A 
ATOM     30  C   UNL     1       1.644   3.950   1.322  0.00  0.00    +0.060 A 
ATOM     31  C   UNL     1       2.084   3.336   2.496  0.00  0.00    +0.018 A 
ENDBRANCH  23  30
ENDBRANCH  22  23
ENDBRANCH   1  22
TORSDOF 7
