REMARK  Name = ZINC00180781
REMARK  3 active torsions:
REMARK  status: ('A' for Active; 'I' for Inactive)
REMARK    1  A    between atoms: C_5  and  N_7
REMARK    2  A    between atoms: C_8  and  C_14
REMARK    3  A    between atoms: C_17  and  N_20
REMARK                            x       y       z     vdW  Elec       q    Type
REMARK                         _______ _______ _______ _____ _____    ______ ____
ROOT
ATOM      1  N   UNL     1       1.615  -1.826   0.191  0.00  0.00    -0.251 N 
ATOM      2  C   UNL     1       1.366  -2.833   1.240  0.00  0.00    +0.170 C 
ATOM      3  S   UNL     1       0.583  -4.188   0.264  0.00  0.00    -0.124 S 
ATOM      4  C   UNL     1       1.200  -3.638  -1.386  0.00  0.00    +0.167 C 
ATOM      5  C   UNL     1       1.539  -2.187  -1.084  0.00  0.00    +0.231 C 
ATOM      6  O   UNL     1       1.737  -1.389  -1.975  0.00  0.00    -0.274 OA
ENDROOT
BRANCH   1  11
ATOM      7  C   UNL     1       1.224   1.759   0.912  0.00  0.00    +0.002 A 
ATOM      8  C   UNL     1       2.527   2.110   1.217  0.00  0.00    +0.003 A 
ATOM      9  C   UNL     1       3.529   1.157   1.183  0.00  0.00    +0.040 A 
ATOM     10  C   UNL     1       3.230  -0.149   0.843  0.00  0.00    +0.145 A 
ATOM     11  C   UNL     1       1.921  -0.504   0.536  0.00  0.00    +0.073 A 
ATOM     12  C   UNL     1       0.919   0.456   0.572  0.00  0.00    +0.026 A 
ATOM     13  F   UNL     1       4.209  -1.080   0.808  0.00  0.00    -0.204 F 
ENDBRANCH   1  11
BRANCH   2  14
ATOM     14  C   UNL     1       0.420  -2.302   2.287  0.00  0.00    -0.017 A 
ATOM     15  C   UNL     1      -0.828  -1.835   1.917  0.00  0.00    +0.008 A 
ATOM     16  C   UNL     1      -1.695  -1.348   2.877  0.00  0.00    +0.033 A 
ATOM     17  C   UNL     1      -1.315  -1.328   4.206  0.00  0.00    +0.126 A 
ATOM     18  C   UNL     1      -0.068  -1.796   4.575  0.00  0.00    +0.033 A 
ATOM     19  C   UNL     1       0.798  -2.287   3.616  0.00  0.00    +0.008 A 
BRANCH  17  20
ATOM     20  N   UNL     1      -2.244  -0.806   5.234  0.00  0.00    +0.056 N 
ATOM     21  O   UNL     1      -3.334  -0.397   4.910  0.00  0.00    -0.126 OA
ATOM     22  O   UNL     1      -1.911  -0.788   6.396  0.00  0.00    -0.126 OA
ENDBRANCH  17  20
ENDBRANCH   2  14
TORSDOF 3
