REMARK  Name = ZINC06660530
REMARK  7 active torsions:
REMARK  status: ('A' for Active; 'I' for Inactive)
REMARK    1  A    between atoms: C_1  and  N_48
REMARK    2  A    between atoms: C_2  and  N_48
REMARK    3  A    between atoms: C_3  and  C_4
REMARK    4  A    between atoms: C_3  and  N_48
REMARK    5  A    between atoms: C_4  and  N_5
REMARK    6  A    between atoms: C_11  and  C_21
REMARK    7  A    between atoms: C_16  and  O_20
REMARK                            x       y       z     vdW  Elec       q    Type
REMARK                         _______ _______ _______ _____ _____    ______ ____
ROOT
ATOM      1  N   UNL     1       0.677   0.309  -0.002  0.00  0.00    -0.320 N 
ATOM      2  C   UNL     1       1.075   1.606   0.001  0.00  0.00    +0.204 A 
ATOM      3  N   UNL     1       2.335   1.932  -0.010  0.00  0.00    -0.202 NA
ATOM      4  C   UNL     1       3.314   1.007  -0.024  0.00  0.00    +0.229 A 
ATOM      5  C   UNL     1       2.994  -0.317  -0.027  0.00  0.00    +0.066 A 
ATOM      6  C   UNL     1       1.629  -0.691  -0.017  0.00  0.00    +0.115 A 
ATOM      7  C   UNL     1       4.056  -1.379  -0.041  0.00  0.00    +0.091 C 
ATOM      8  C   UNL     1       5.375  -0.797  -0.472  0.00  0.00    +0.007 A 
ATOM      9  C   UNL     1       6.387  -1.640  -0.896  0.00  0.00    +0.012 A 
ATOM     10  C   UNL     1       7.603  -1.122  -1.296  0.00  0.00    +0.046 A 
ATOM     11  C   UNL     1       7.813   0.250  -1.273  0.00  0.00    +0.120 A 
ATOM     12  C   UNL     1       6.803   1.096  -0.847  0.00  0.00    +0.092 A 
ATOM     13  C   UNL     1       5.580   0.574  -0.446  0.00  0.00    +0.138 A 
ATOM     14  O   UNL     1       4.601   1.414  -0.033  0.00  0.00    -0.437 OA
ATOM     15  H   UNL     1       0.363  -2.302  -0.015  0.00  0.00    +0.157 HD
ATOM     16  N   UNL     1       1.337  -1.998  -0.022  0.00  0.00    -0.384 N 
ATOM     17  H   UNL     1       2.093  -2.693  -0.034  0.00  0.00    +0.157 HD
ENDROOT
BRANCH   7  18
ATOM     18  C   UNL     1       4.197  -1.962   1.341  0.00  0.00    -0.035 A 
ATOM     19  C   UNL     1       4.554  -1.149   2.401  0.00  0.00    +0.004 A 
ATOM     20  C   UNL     1       4.679  -1.683   3.670  0.00  0.00    +0.000 A 
ATOM     21  C   UNL     1       4.454  -3.031   3.878  0.00  0.00    +0.000 A 
ATOM     22  C   UNL     1       4.102  -3.845   2.818  0.00  0.00    +0.000 A 
ATOM     23  C   UNL     1       3.973  -3.310   1.549  0.00  0.00    +0.004 A 
ENDBRANCH   7  18
BRANCH  11  24
ATOM     24  O   UNL     1       9.009   0.761  -1.666  0.00  0.00    -0.507 OA
ATOM     25  H   UNL     1       9.057   0.969  -2.609  0.00  0.00    +0.292 HD
ENDBRANCH  11  24
BRANCH   1  26
ATOM     26  C   UNL     1      -0.749  -0.027   0.010  0.00  0.00    +0.106 C 
BRANCH  26  27
ATOM     27  C   UNL     1      -1.202  -0.275   1.451  0.00  0.00    -0.058 C 
BRANCH  27  30
ATOM     28  C   UNL     1      -2.875  -1.897   0.795  0.00  0.00    -0.097 C 
ATOM     29  C   UNL     1      -3.157  -0.625   2.835  0.00  0.00    -0.097 C 
ATOM     30  N   UNL     1      -2.645  -0.592   1.449  0.00  0.00    +0.377 N 
ATOM     31  H   UNL     1      -3.146   0.136   0.925  0.00  0.00    -0.083 HD
ENDBRANCH  27  30
ENDBRANCH  26  27
ENDBRANCH   1  26
TORSDOF 5
