REMARK  Name = ZINC16510258
REMARK  13 active torsions:
REMARK  status: ('A' for Active; 'I' for Inactive)
REMARK    1  A    between atoms: C_1  and  C_2
REMARK    2  A    between atoms: C_2  and  C_3
REMARK    3  A    between atoms: C_2  and  C_4
REMARK    4  A    between atoms: C_4  and  N_5
REMARK    5  A    between atoms: N_5  and  C_6
REMARK    6  A    between atoms: C_6  and  C_7
REMARK    7  A    between atoms: N_9  and  C_10
REMARK    8  A    between atoms: N_9  and  C_23
REMARK    9  A    between atoms: C_10  and  C_11
REMARK   10  A    between atoms: N_15  and  C_16
REMARK   11  A    between atoms: C_16  and  C_17
REMARK   12  A    between atoms: C_26  and  C_28
REMARK   13  A    between atoms: C_29  and  C_30
REMARK                            x       y       z     vdW  Elec       q    Type
REMARK                         _______ _______ _______ _____ _____    ______ ____
ROOT
ATOM      1  C   UNL     1       4.330   0.221  -2.051  0.00  0.00    +0.234 C 
ATOM      2  O   UNL     1       3.588   1.037  -2.555  0.00  0.00    -0.274 OA
ATOM      3  N   UNL     1       5.384  -0.252  -2.746  0.00  0.00    -0.291 N 
ENDROOT
BRANCH   3   4
ATOM      4  C   UNL     1       5.711   0.316  -4.056  0.00  0.00    +0.077 C 
ATOM      5  C   UNL     1       5.083   1.663  -4.419  0.00  0.00    +0.024 C 
ATOM      6  C   UNL     1       4.591   0.383  -5.097  0.00  0.00    +0.024 C 
ENDBRANCH   3   4
BRANCH   1   7
ATOM      7  C   UNL     1       4.074  -0.266  -0.648  0.00  0.00    +0.203 C 
BRANCH   7   8
ATOM      8  N   UNL     1       2.817   0.303  -0.156  0.00  0.00    -0.289 N 
ATOM      9  C   UNL     1       1.670  -0.396  -0.271  0.00  0.00    +0.240 C 
ATOM     10  O   UNL     1       1.679  -1.499  -0.785  0.00  0.00    -0.271 OA
BRANCH   9  11
ATOM     11  C   UNL     1       0.412   0.175   0.215  0.00  0.00    +0.068 C 
ATOM     12  C   UNL     1      -0.736  -0.521   0.094  0.00  0.00    +0.013 C 
BRANCH  12  13
ATOM     13  C   UNL     1      -2.000   0.053   0.583  0.00  0.00    -0.025 A 
ATOM     14  C   UNL     1      -2.013   1.318   1.179  0.00  0.00    +0.008 A 
ATOM     15  C   UNL     1      -3.202   1.851   1.629  0.00  0.00    +0.001 A 
ATOM     16  C   UNL     1      -4.379   1.133   1.504  0.00  0.00    +0.000 A 
ATOM     17  C   UNL     1      -4.373  -0.122   0.920  0.00  0.00    +0.001 A 
ATOM     18  C   UNL     1      -3.192  -0.666   0.460  0.00  0.00    +0.008 A 
ENDBRANCH  12  13
ENDBRANCH   9  11
BRANCH   8  19
ATOM     19  C   UNL     1       2.806   1.631   0.462  0.00  0.00    +0.111 C 
BRANCH  19  21
ATOM     20  C   UNL     1       4.232   0.870   2.368  0.00  0.00    +0.009 C 
ATOM     21  C   UNL     1       2.885   1.487   1.983  0.00  0.00    +0.000 C 
ATOM     22  C   UNL     1       2.751   2.865   2.634  0.00  0.00    +0.009 C 
ENDBRANCH  19  21
ENDBRANCH   8  19
ENDBRANCH   7   8
ENDBRANCH   1   7
BRANCH   3  23
ATOM     23  C   UNL     1       6.202  -1.333  -2.191  0.00  0.00    +0.161 C 
BRANCH  23  24
ATOM     24  C   UNL     1       5.699  -2.657  -2.703  0.00  0.00    +0.036 A 
ATOM     25  C   UNL     1       4.810  -3.459  -2.082  0.00  0.00    +0.024 A 
ATOM     26  C   UNL     1       4.620  -4.590  -2.900  0.00  0.00    +0.019 A 
ATOM     27  C   UNL     1       5.399  -4.437  -3.990  0.00  0.00    +0.086 A 
ATOM     28  N   UNL     1       6.060  -3.250  -3.877  0.00  0.00    -0.345 N 
BRANCH  28  29
ATOM     29  C   UNL     1       7.005  -2.703  -4.854  0.00  0.00    +0.156 C 
BRANCH  29  30
ATOM     30  C   UNL     1       8.399  -3.167  -4.519  0.00  0.00    -0.028 A 
ATOM     31  C   UNL     1       9.170  -2.448  -3.625  0.00  0.00    +0.005 A 
ATOM     32  C   UNL     1      10.447  -2.877  -3.314  0.00  0.00    +0.000 A 
ATOM     33  C   UNL     1      10.957  -4.017  -3.906  0.00  0.00    +0.000 A 
ATOM     34  C   UNL     1      10.187  -4.733  -4.804  0.00  0.00    +0.000 A 
ATOM     35  C   UNL     1       8.908  -4.307  -5.111  0.00  0.00    +0.005 A 
ENDBRANCH  29  30
ENDBRANCH  28  29
ENDBRANCH  23  24
ENDBRANCH   3  23
TORSDOF 11
