REMARK  Name = ZINC49483099
REMARK  8 active torsions:
REMARK  status: ('A' for Active; 'I' for Inactive)
REMARK    1  A    between atoms: C_1  and  C_2
REMARK    2  A    between atoms: C_4  and  C_28
REMARK    3  A    between atoms: C_5  and  N_9
REMARK    4  A    between atoms: C_6  and  C_8
REMARK    5  A    between atoms: C_10  and  C_12
REMARK    6  A    between atoms: C_12  and  N_13
REMARK    7  A    between atoms: C_15  and  C_17
REMARK    8  A    between atoms: C_19  and  C_22
REMARK                            x       y       z     vdW  Elec       q    Type
REMARK                         _______ _______ _______ _____ _____    ______ ____
ROOT
ATOM      1  N   UNL     1       0.859  -6.985   2.268  0.00  0.00    +0.386 N 
ATOM      2  C   UNL     1       2.328  -7.059   2.382  0.00  0.00    -0.067 C 
ATOM      3  C   UNL     1       2.146  -8.372   3.156  0.00  0.00    +0.045 C 
ATOM      4  C   UNL     1       0.834  -8.456   2.364  0.00  0.00    -0.067 C 
ATOM      5  H   UNL     1       0.418  -6.524   3.050  0.00  0.00    -0.081 HD
ENDROOT
BRANCH   3   6
ATOM      6  C   UNL     1       3.149  -9.441   2.803  0.00  0.00    +0.227 A 
ATOM      7  N   UNL     1       3.985 -10.002   3.629  0.00  0.00    -0.189 NA
ATOM      8  C   UNL     1       4.732 -10.912   2.980  0.00  0.00    +0.239 A 
ATOM      9  N   UNL     1       4.369 -10.931   1.722  0.00  0.00    -0.053 NA
ATOM     10  O   UNL     1       3.327  -9.976   1.589  0.00  0.00    -0.337 OA
BRANCH   8  11
ATOM     11  C   UNL     1       5.794 -11.755   3.588  0.00  0.00    +0.201 A 
ATOM     12  N   UNL     1       6.053 -11.633   4.882  0.00  0.00    -0.233 NA
ATOM     13  C   UNL     1       6.991 -12.368   5.455  0.00  0.00    +0.115 A 
ATOM     14  C   UNL     1       7.705 -13.274   4.685  0.00  0.00    +0.039 A 
ATOM     15  C   UNL     1       7.407 -13.375   3.334  0.00  0.00    +0.115 A 
ATOM     16  N   UNL     1       6.454 -12.614   2.825  0.00  0.00    -0.233 NA
ENDBRANCH   8  11
ENDBRANCH   3   6
BRANCH   1  17
ATOM     17  C   UNL     1       0.399  -6.476   0.970  0.00  0.00    +0.019 C 
BRANCH  17  19
ATOM     18  N   UNL     1      -0.052  -4.280  -0.077  0.00  0.00    -0.287 N 
ATOM     19  C   UNL     1       0.345  -4.970   1.011  0.00  0.00    +0.201 C 
ATOM     20  O   UNL     1       0.659  -4.380   2.022  0.00  0.00    -0.278 OA
ATOM     21  H   UNL     1      -0.370  -4.753  -0.862  0.00  0.00    +0.155 HD
BRANCH  18  26
ATOM     22  C   UNL     1       0.136   1.390  -0.065  0.00  0.00    +0.044 C 
ATOM     23  C   UNL     1       0.086  -0.116  -0.068  0.00  0.00    -0.050 A 
ATOM     24  C   UNL     1       0.759  -0.827  -1.045  0.00  0.00    +0.008 A 
ATOM     25  C   UNL     1       0.715  -2.207  -1.051  0.00  0.00    -0.029 A 
ATOM     26  C   UNL     1      -0.005  -2.882  -0.074  0.00  0.00    +0.039 A 
ATOM     27  C   UNL     1      -0.679  -2.165   0.906  0.00  0.00    -0.029 A 
ATOM     28  C   UNL     1      -0.628  -0.785   0.909  0.00  0.00    +0.008 A 
ATOM     29  C   UNL     1      -1.463  -2.893   1.968  0.00  0.00    +0.045 C 
ATOM     30  C   UNL     1       1.448  -2.981  -2.116  0.00  0.00    +0.045 C 
ENDBRANCH  18  26
ENDBRANCH  17  19
ENDBRANCH   1  17
TORSDOF 5
