REMARK  Name = ZINC09041382
REMARK  9 active torsions:
REMARK  status: ('A' for Active; 'I' for Inactive)
REMARK    1  A    between atoms: C_1  and  C_2
REMARK    2  A    between atoms: C_9  and  O_20
REMARK    3  A    between atoms: C_12  and  C_14
REMARK    4  A    between atoms: C_23  and  O_41
REMARK    5  A    between atoms: C_24  and  C_31
REMARK    6  A    between atoms: C_27  and  O_30
REMARK    7  A    between atoms: C_32  and  C_33
REMARK    8  A    between atoms: C_32  and  N_78
REMARK    9  A    between atoms: C_33  and  C_34
REMARK                            x       y       z     vdW  Elec       q    Type
REMARK                         _______ _______ _______ _____ _____    ______ ____
ROOT
ATOM      1  C   UNL     1       6.010   5.493  -2.921  0.00  0.00    +0.014 C 
ATOM      2  C   UNL     1       6.918   4.807  -1.898  0.00  0.00    +0.004 C 
ATOM      3  C   UNL     1       6.854   3.303  -2.083  0.00  0.00    +0.010 C 
ATOM      4  C   UNL     1       5.374   2.893  -1.997  0.00  0.00    +0.005 C 
ATOM      5  C   UNL     1       4.754   3.327  -0.675  0.00  0.00    +0.009 C 
ATOM      6  C   UNL     1       4.931   4.834  -0.434  0.00  0.00    +0.025 C 
ATOM      7  C   UNL     1       6.421   5.120  -0.461  0.00  0.00    +0.075 C 
ATOM      8  C   UNL     1       6.824   6.588  -0.287  0.00  0.00    +0.036 C 
ATOM      9  C   UNL     1       8.237   6.639  -0.932  0.00  0.00    +0.011 C 
ATOM     10  C   UNL     1       8.301   5.460  -1.935  0.00  0.00    +0.027 C 
ATOM     11  C   UNL     1       4.344   5.199   0.930  0.00  0.00    +0.009 C 
ATOM     12  C   UNL     1       2.854   4.853   0.953  0.00  0.00    +0.036 C 
ATOM     13  C   UNL     1       2.674   3.354   0.708  0.00  0.00    +0.079 C 
ATOM     14  C   UNL     1       3.264   2.984  -0.655  0.00  0.00    +0.036 C 
ATOM     15  C   UNL     1       3.084   1.484  -0.898  0.00  0.00    +0.018 C 
ATOM     16  C   UNL     1       1.594   1.137  -0.871  0.00  0.00    +0.032 C 
ATOM     17  C   UNL     1       1.008   1.506   0.493  0.00  0.00    +0.117 C 
ATOM     18  C   UNL     1       1.187   3.006   0.735  0.00  0.00    +0.067 C 
ENDROOT
BRANCH  10  19
ATOM     19  C   UNL     1       9.342   4.461  -1.500  0.00  0.00    -0.022 C 
ATOM     20  C   UNL     1       9.891   4.364  -0.292  0.00  0.00    +0.094 C 
ATOM     21  C   UNL     1      10.858   3.263  -0.281  0.00  0.00    +0.332 C 
ATOM     22  O   UNL     1      11.521   2.926   0.681  0.00  0.00    -0.246 OA
ATOM     23  O   UNL     1      10.904   2.679  -1.493  0.00  0.00    -0.457 OA
ATOM     24  C   UNL     1       9.957   3.375  -2.352  0.00  0.00    +0.264 C 
ENDBRANCH  10  19
BRANCH  14  25
ATOM     25  C   UNL     1       2.555   3.757  -1.736  0.00  0.00    +0.060 C 
ATOM     26  N   UNL     1       1.931   3.065  -2.662  0.00  0.00    -0.393 N 
ATOM     27  H   UNL     1       1.940   2.039  -2.629  0.00  0.00    +0.159 HD
BRANCH  26  28
ATOM     28  C   UNL     1       1.204   3.775  -3.770  0.00  0.00    +0.116 C 
BRANCH  28  29
ATOM     29  C   UNL     1       1.888   3.436  -5.095  0.00  0.00    +0.056 C 
BRANCH  29  30
ATOM     30  C   UNL     1       1.144   4.094  -6.228  0.00  0.00    -0.046 A 
ATOM     31  C   UNL     1       0.114   3.423  -6.860  0.00  0.00    +0.006 A 
ATOM     32  C   UNL     1      -0.573   4.028  -7.896  0.00  0.00    +0.038 A 
ATOM     33  C   UNL     1      -0.222   5.303  -8.307  0.00  0.00    +0.123 A 
ATOM     34  C   UNL     1       0.813   5.972  -7.677  0.00  0.00    +0.038 A 
ATOM     35  C   UNL     1       1.495   5.367  -6.638  0.00  0.00    +0.006 A 
ATOM     36  F   UNL     1      -0.890   5.893  -9.323  0.00  0.00    -0.205 F 
ENDBRANCH  29  30
ENDBRANCH  28  29
ENDBRANCH  26  28
ENDBRANCH  14  25
BRANCH   7  37
ATOM     37  O   UNL     1       7.101   4.301   0.492  0.00  0.00    -0.388 OA
ATOM     38  H   UNL     1       6.802   4.427   1.403  0.00  0.00    +0.210 HD
ENDBRANCH   7  37
BRANCH  17  39
ATOM     39  O   UNL     1      -0.383   1.181   0.518  0.00  0.00    -0.392 OA
ATOM     40  H   UNL     1      -0.571   0.244   0.371  0.00  0.00    +0.210 HD
ENDBRANCH  17  39
BRANCH  13  41
ATOM     41  O   UNL     1       3.348   2.620   1.733  0.00  0.00    -0.388 OA
ATOM     42  H   UNL     1       3.025   2.804   2.626  0.00  0.00    +0.210 HD
ENDBRANCH  13  41
TORSDOF 8
