REMARK  Name = ZINC43800834
REMARK  7 active torsions:
REMARK  status: ('A' for Active; 'I' for Inactive)
REMARK    1  A    between atoms: C_1  and  C_2
REMARK    2  A    between atoms: C_2  and  C_3
REMARK    3  A    between atoms: C_2  and  C_4
REMARK    4  A    between atoms: C_4  and  C_6
REMARK    5  A    between atoms: C_4  and  N_17
REMARK    6  A    between atoms: C_6  and  N_7
REMARK    7  A    between atoms: C_8  and  C_10
REMARK                            x       y       z     vdW  Elec       q    Type
REMARK                         _______ _______ _______ _____ _____    ______ ____
ROOT
ATOM      1  N   UNL     1      -2.417   1.492   1.028  0.00  0.00    -0.315 N 
ATOM      2  C   UNL     1      -2.941   2.290   1.979  0.00  0.00    +0.240 C 
ATOM      3  O   UNL     1      -3.162   1.849   3.087  0.00  0.00    -0.273 OA
ATOM      4  H   UNL     1      -2.240   1.845   0.142  0.00  0.00    +0.149 HD
ENDROOT
BRANCH   2   5
ATOM      5  C   UNL     1      -3.254   3.731   1.666  0.00  0.00    +0.187 C 
ATOM      6  C   UNL     1      -1.954   4.483   1.368  0.00  0.00    -0.041 C 
ATOM      7  N   UNL     1      -2.257   5.899   1.120  0.00  0.00    +0.383 N 
ATOM      8  C   UNL     1      -2.897   6.478   2.310  0.00  0.00    -0.054 C 
ATOM      9  C   UNL     1      -4.195   5.722   2.606  0.00  0.00    +0.142 C 
ATOM     10  O   UNL     1      -3.902   4.334   2.789  0.00  0.00    -0.371 OA
ATOM     11  H   UNL     1      -1.401   6.396   0.924  0.00  0.00    -0.086 HD
ATOM     12  H   UNL     1      -2.880   5.977   0.331  0.00  0.00    -0.086 HD
ENDBRANCH   2   5
BRANCH   1  13
ATOM     13  C   UNL     1      -2.113   0.092   1.333  0.00  0.00    +0.089 C 
BRANCH  13  14
ATOM     14  C   UNL     1      -1.380  -0.540   0.148  0.00  0.00    -0.049 C 
BRANCH  14  15
ATOM     15  N   UNL     1      -2.149  -0.311  -1.082  0.00  0.00    +0.383 N 
ATOM     16  C   UNL     1      -1.458  -0.931  -2.242  0.00  0.00    -0.078 C 
ATOM     17  C   UNL     1      -2.594  -1.106  -3.280  0.00  0.00    -0.020 C 
ATOM     18  C   UNL     1      -3.806  -1.497  -2.403  0.00  0.00    -0.020 C 
ATOM     19  C   UNL     1      -3.465  -0.981  -0.993  0.00  0.00    -0.078 C 
ATOM     20  H   UNL     1      -2.272   0.678  -1.237  0.00  0.00    -0.081 HD
ENDBRANCH  14  15
BRANCH  14  22
ATOM     21  C   UNL     1      -0.143   1.596  -0.240  0.00  0.00    +0.005 C 
ATOM     22  C   UNL     1       0.006   0.094   0.008  0.00  0.00    -0.029 C 
ATOM     23  C   UNL     1       0.803  -0.134   1.294  0.00  0.00    +0.005 C 
ENDBRANCH  14  22
ENDBRANCH  13  14
ENDBRANCH   1  13
TORSDOF 5
