REMARK  Name = ZINC67463062
REMARK  5 active torsions:
REMARK  status: ('A' for Active; 'I' for Inactive)
REMARK    1  A    between atoms: C_1  and  C_2
REMARK    2  A    between atoms: C_4  and  C_7
REMARK    3  A    between atoms: C_7  and  C_8
REMARK    4  A    between atoms: C_8  and  C_9
REMARK    5  A    between atoms: C_9  and  N_10
REMARK                            x       y       z     vdW  Elec       q    Type
REMARK                         _______ _______ _______ _____ _____    ______ ____
ROOT
ATOM      1  N   UNL     1       2.881  -5.134  -3.300  0.00  0.00    -0.299 N 
ATOM      2  C   UNL     1       3.137  -6.160  -4.135  0.00  0.00    +0.302 C 
ATOM      3  O   UNL     1       2.219  -6.787  -4.627  0.00  0.00    -0.253 OA
ATOM      4  N   UNL     1       4.411  -6.492  -4.423  0.00  0.00    -0.285 N 
ATOM      5  C   UNL     1       4.664  -7.614  -5.342  0.00  0.00    +0.110 C 
ATOM      6  C   UNL     1       5.769  -7.391  -6.404  0.00  0.00    +0.030 C 
ATOM      7  C   UNL     1       5.700  -6.051  -7.066  0.00  0.00    +0.071 C 
ATOM      8  S   UNL     1       6.670  -4.827  -6.109  0.00  0.00    -0.159 S 
ATOM      9  C   UNL     1       5.712  -4.488  -4.686  0.00  0.00    +0.088 C 
ATOM     10  C   UNL     1       5.472  -5.740  -3.831  0.00  0.00    +0.120 C 
ATOM     11  H   UNL     1       3.613  -4.633  -2.907  0.00  0.00    +0.150 HD
ENDROOT
BRANCH   1  12
ATOM     12  C   UNL     1       1.496  -4.773  -2.987  0.00  0.00    +0.106 C 
BRANCH  12  13
ATOM     13  C   UNL     1       1.484  -3.583  -2.025  0.00  0.00    +0.028 C 
BRANCH  13  14
ATOM     14  C   UNL     1       0.038  -3.206  -1.697  0.00  0.00    +0.100 C 
BRANCH  14  18
ATOM     15  C   UNL     1      -0.018   1.503   0.010  0.00  0.00    +0.091 C 
ATOM     16  C   UNL     1       0.002  -0.004   0.002  0.00  0.00    +0.169 A 
ATOM     17  N   UNL     1       0.008  -0.776  -1.091  0.00  0.00    -0.196 NA
ATOM     18  C   UNL     1       0.026  -2.034  -0.750  0.00  0.00    +0.227 A 
ATOM     19  O   UNL     1       0.033  -2.107   0.587  0.00  0.00    -0.338 OA
ATOM     20  N   UNL     1       0.023  -0.767   1.057  0.00  0.00    -0.062 NA
ENDBRANCH  14  18
ENDBRANCH  13  14
ENDBRANCH  12  13
ENDBRANCH   1  12
TORSDOF 4
