REMARK  Name = ZINC56950188
REMARK  8 active torsions:
REMARK  status: ('A' for Active; 'I' for Inactive)
REMARK    1  A    between atoms: C_1  and  N_2
REMARK    2  A    between atoms: N_2  and  C_3
REMARK    3  A    between atoms: N_2  and  C_4
REMARK    4  A    between atoms: C_4  and  C_6
REMARK    5  A    between atoms: C_4  and  C_22
REMARK    6  A    between atoms: C_6  and  N_7
REMARK    7  A    between atoms: N_10  and  C_11
REMARK    8  A    between atoms: N_10  and  C_12
REMARK                            x       y       z     vdW  Elec       q    Type
REMARK                         _______ _______ _______ _____ _____    ______ ____
ROOT
ATOM      1  N   UNL     1      -1.766   1.531  -1.169  0.00  0.00    -0.300 N 
ATOM      2  C   UNL     1      -2.260   2.263  -2.188  0.00  0.00    +0.302 C 
ATOM      3  O   UNL     1      -2.936   1.731  -3.047  0.00  0.00    -0.253 OA
ATOM      4  N   UNL     1      -2.004   3.585  -2.254  0.00  0.00    -0.282 N 
ATOM      5  C   UNL     1      -1.189   4.226  -1.219  0.00  0.00    +0.134 C 
ATOM      6  H   UNL     1      -1.227   1.956  -0.484  0.00  0.00    +0.150 HD
ENDROOT
BRANCH   4   7
ATOM      7  C   UNL     1      -2.541   4.380  -3.361  0.00  0.00    +0.108 C 
ATOM      8  C   UNL     1      -1.393   5.058  -4.139  0.00  0.00    +0.032 C 
ATOM      9  C   UNL     1      -1.285   6.430  -3.442  0.00  0.00    +0.037 C 
ATOM     10  C   UNL     1      -2.663   6.697  -2.875  0.00  0.00    -0.042 A 
ATOM     11  C   UNL     1      -3.387   5.517  -2.829  0.00  0.00    -0.024 A 
ATOM     12  C   UNL     1      -4.684   5.520  -2.343  0.00  0.00    +0.006 A 
ATOM     13  C   UNL     1      -5.260   6.697  -1.905  0.00  0.00    +0.000 A 
ATOM     14  C   UNL     1      -4.539   7.875  -1.950  0.00  0.00    +0.000 A 
ATOM     15  C   UNL     1      -3.240   7.876  -2.435  0.00  0.00    +0.004 A 
ENDBRANCH   4   7
BRANCH   1  16
ATOM     16  C   UNL     1      -2.044   0.095  -1.098  0.00  0.00    +0.095 C 
BRANCH  16  17
ATOM     17  C   UNL     1      -1.281  -0.514   0.081  0.00  0.00    -0.021 C 
BRANCH  17  18
ATOM     18  C   UNL     1      -1.799   0.070   1.370  0.00  0.00    -0.059 A 
ATOM     19  C   UNL     1      -2.967  -0.415   1.927  0.00  0.00    +0.005 A 
ATOM     20  C   UNL     1      -3.443   0.119   3.110  0.00  0.00    +0.038 A 
ATOM     21  C   UNL     1      -2.748   1.140   3.736  0.00  0.00    +0.123 A 
ATOM     22  C   UNL     1      -1.578   1.625   3.177  0.00  0.00    +0.038 A 
ATOM     23  C   UNL     1      -1.102   1.085   1.997  0.00  0.00    +0.005 A 
ATOM     24  F   UNL     1      -3.212   1.664   4.892  0.00  0.00    -0.205 F 
ENDBRANCH  17  18
BRANCH  17  26
ATOM     25  C   UNL     1      -0.969  -2.540  -1.166  0.00  0.00    -0.096 C 
ATOM     26  N   UNL     1      -1.475  -1.970   0.090  0.00  0.00    +0.382 N 
ATOM     27  C   UNL     1      -0.744  -2.555   1.222  0.00  0.00    -0.096 C 
ATOM     28  H   UNL     1      -2.458  -2.178   0.181  0.00  0.00    -0.082 HD
ENDBRANCH  17  26
ENDBRANCH  16  17
ENDBRANCH   1  16
TORSDOF 5
