REMARK  Name = ZINC47463981
REMARK  6 active torsions:
REMARK  status: ('A' for Active; 'I' for Inactive)
REMARK    1  A    between atoms: C_3  and  C_6
REMARK    2  A    between atoms: C_6  and  N_7
REMARK    3  A    between atoms: C_14  and  S_16
REMARK    4  A    between atoms: S_16  and  C_17
REMARK    5  A    between atoms: C_17  and  C_18
REMARK    6  A    between atoms: C_21  and  C_24
REMARK                            x       y       z     vdW  Elec       q    Type
REMARK                         _______ _______ _______ _____ _____    ______ ____
ROOT
ATOM      1  N   UNL     1       4.234   2.004   1.353  0.00  0.00    -0.294 N 
ATOM      2  C   UNL     1       5.483   2.450   1.589  0.00  0.00    +0.306 C 
ATOM      3  O   UNL     1       6.218   2.722   0.659  0.00  0.00    -0.252 OA
ATOM      4  N   UNL     1       5.918   2.596   2.857  0.00  0.00    -0.247 N 
ATOM      5  C   UNL     1       7.210   3.058   3.101  0.00  0.00    +0.190 A 
ATOM      6  N   UNL     1       8.147   3.408   2.244  0.00  0.00    -0.125 NA
ATOM      7  N   UNL     1       9.369   3.842   2.704  0.00  0.00    -0.133 NA
ATOM      8  C   UNL     1       9.596   3.906   4.003  0.00  0.00    +0.160 A 
ATOM      9  S   UNL     1       8.034   3.341   4.660  0.00  0.00    -0.024 S 
ATOM     10  H   UNL     1       3.648   1.787   2.095  0.00  0.00    +0.151 HD
ATOM     11  H   UNL     1       5.332   2.379   3.599  0.00  0.00    +0.158 HD
ENDROOT
BRANCH   1  12
ATOM     12  C   UNL     1       3.761   1.845  -0.024  0.00  0.00    +0.148 C 
BRANCH  12  15
ATOM     13  C   UNL     1      -0.016   1.351   0.009  0.00  0.00    +0.008 A 
ATOM     14  C   UNL     1       1.183   2.038   0.002  0.00  0.00    +0.013 A 
ATOM     15  C   UNL     1       2.343   1.336  -0.013  0.00  0.00    +0.007 A 
ATOM     16  S   UNL     1       1.754  -0.349  -0.017  0.00  0.00    -0.100 S 
ATOM     17  C   UNL     1       0.002  -0.004   0.002  0.00  0.00    +0.045 A 
ENDBRANCH  12  15
ENDBRANCH   1  12
BRANCH   8  18
ATOM     18  S   UNL     1      11.049   4.417   4.859  0.00  0.00    -0.092 S 
BRANCH  18  19
ATOM     19  C   UNL     1      12.208   4.854   3.534  0.00  0.00    +0.111 C 
BRANCH  19  20
ATOM     20  C   UNL     1      13.510   5.315   4.137  0.00  0.00    -0.037 A 
ATOM     21  C   UNL     1      13.696   6.653   4.434  0.00  0.00    +0.006 A 
ATOM     22  C   UNL     1      14.885   7.082   4.987  0.00  0.00    +0.019 A 
ATOM     23  C   UNL     1      15.902   6.161   5.246  0.00  0.00    +0.052 A 
ATOM     24  C   UNL     1      15.708   4.812   4.944  0.00  0.00    +0.019 A 
ATOM     25  C   UNL     1      14.512   4.396   4.396  0.00  0.00    +0.006 A 
BRANCH  23  26
ATOM     26  C   UNL     1      17.140   6.599   5.819  0.00  0.00    +0.099 C 
ATOM     27  N   UNL     1      18.121   6.946   6.273  0.00  0.00    -0.191 NA
ENDBRANCH  23  26
ENDBRANCH  19  20
ENDBRANCH  18  19
ENDBRANCH   8  18
TORSDOF 6
