REMARK  Name = ZINC04729278
REMARK  7 active torsions:
REMARK  status: ('A' for Active; 'I' for Inactive)
REMARK    1  A    between atoms: C_1  and  C_2
REMARK    2  A    between atoms: C_5  and  C_8
REMARK    3  A    between atoms: C_10  and  C_23
REMARK    4  A    between atoms: C_13  and  C_15
REMARK    5  A    between atoms: C_18  and  O_21
REMARK    6  A    between atoms: O_21  and  C_22
REMARK    7  A    between atoms: C_28  and  O_29
REMARK                            x       y       z     vdW  Elec       q    Type
REMARK                         _______ _______ _______ _____ _____    ______ ____
ROOT
ATOM      1  C   UNL     1       0.058  -4.275  -0.021  0.00  0.00    +0.081 C 
ATOM      2  C   UNL     1       2.182  -4.427  -1.154  0.00  0.00    -0.028 C 
ATOM      3  C   UNL     1       2.801  -5.277  -0.040  0.00  0.00    +0.044 C 
ATOM      4  C   UNL     1       1.942  -5.192   1.191  0.00  0.00    +0.040 C 
ATOM      5  N   UNL     1       0.739  -4.753   1.175  0.00  0.00    -0.299 NA
ATOM      6  N   UNL     1       0.744  -4.746  -1.235  0.00  0.00    +0.401 N 
ATOM      7  H   UNL     1       0.338  -4.283  -2.056  0.00  0.00    -0.081 HD
ATOM      8  H   UNL     1       0.625  -5.762  -1.321  0.00  0.00    -0.081 HD
ENDROOT
BRANCH   1  13
ATOM      9  C   UNL     1      -0.018   1.503   0.010  0.00  0.00    +0.044 C 
ATOM     10  C   UNL     1       0.002  -0.004   0.002  0.00  0.00    -0.050 A 
ATOM     11  C   UNL     1      -0.006  -0.689  -1.199  0.00  0.00    +0.003 A 
ATOM     12  C   UNL     1       0.018  -2.071  -1.206  0.00  0.00    +0.004 A 
ATOM     13  C   UNL     1       0.039  -2.768  -0.013  0.00  0.00    -0.040 A 
ATOM     14  C   UNL     1       0.041  -2.084   1.188  0.00  0.00    +0.004 A 
ATOM     15  C   UNL     1       0.023  -0.702   1.195  0.00  0.00    +0.003 A 
ENDBRANCH   1  13
BRANCH   4  16
ATOM     16  C   UNL     1       2.511  -5.636   2.477  0.00  0.00    -0.004 A 
ATOM     17  C   UNL     1       3.819  -6.127   2.532  0.00  0.00    +0.013 A 
ATOM     18  C   UNL     1       4.348  -6.535   3.736  0.00  0.00    +0.046 A 
ATOM     19  C   UNL     1       3.581  -6.469   4.893  0.00  0.00    +0.120 A 
ATOM     20  C   UNL     1       2.279  -5.987   4.841  0.00  0.00    +0.046 A 
ATOM     21  C   UNL     1       1.743  -5.572   3.643  0.00  0.00    +0.013 A 
BRANCH  19  22
ATOM     22  O   UNL     1       4.106  -6.878   6.077  0.00  0.00    -0.495 OA
ATOM     23  C   UNL     1       5.450  -7.362   6.058  0.00  0.00    +0.277 C 
ENDBRANCH  19  22
ENDBRANCH   4  16
BRANCH   2  24
ATOM     24  C   UNL     1       2.845  -4.749  -2.468  0.00  0.00    -0.019 A 
ATOM     25  C   UNL     1       2.241  -5.624  -3.351  0.00  0.00    +0.005 A 
ATOM     26  C   UNL     1       2.847  -5.916  -4.559  0.00  0.00    +0.000 A 
ATOM     27  C   UNL     1       4.062  -5.342  -4.883  0.00  0.00    +0.004 A 
ATOM     28  C   UNL     1       4.673  -4.471  -4.002  0.00  0.00    +0.045 A 
ATOM     29  C   UNL     1       4.065  -4.172  -2.791  0.00  0.00    +0.118 A 
BRANCH  29  30
ATOM     30  O   UNL     1       4.663  -3.315  -1.922  0.00  0.00    -0.507 OA
ATOM     31  H   UNL     1       5.258  -3.746  -1.292  0.00  0.00    +0.292 HD
ENDBRANCH  29  30
ENDBRANCH   2  24
TORSDOF 5
