REMARK  Name = ZINC40352133
REMARK  6 active torsions:
REMARK  status: ('A' for Active; 'I' for Inactive)
REMARK    1  A    between atoms: C_3  and  N_20
REMARK    2  A    between atoms: C_5  and  O_7
REMARK    3  A    between atoms: O_7  and  C_8
REMARK    4  A    between atoms: C_8  and  C_9
REMARK    5  A    between atoms: C_9  and  C_11
REMARK    6  A    between atoms: C_9  and  O_19
REMARK                            x       y       z     vdW  Elec       q    Type
REMARK                         _______ _______ _______ _____ _____    ______ ____
ROOT
ATOM      1  C   UNL     1      -0.036  -2.707  -0.012  0.00  0.00    +0.265 C 
ENDROOT
BRANCH   1   2
ATOM      2  O   UNL     1       1.229  -2.042  -0.021  0.00  0.00    -0.489 OA
BRANCH   2   7
ATOM      3  C   UNL     1      -0.017   1.377   0.010  0.00  0.00    +0.005 A 
ATOM      4  C   UNL     1       1.169   2.087   0.002  0.00  0.00    +0.023 A 
ATOM      5  C   UNL     1       2.383   1.413  -0.013  0.00  0.00    +0.028 A 
ATOM      6  C   UNL     1       2.404   0.024  -0.021  0.00  0.00    +0.068 A 
ATOM      7  C   UNL     1       1.212  -0.684  -0.013  0.00  0.00    +0.122 A 
ATOM      8  C   UNL     1       0.002  -0.004   0.002  0.00  0.00    +0.046 A 
BRANCH   5   9
ATOM      9  N   UNL     1       3.582   2.130  -0.022  0.00  0.00    -0.358 N 
ATOM     10  H   UNL     1       3.566   3.099  -0.017  0.00  0.00    +0.142 HD
ATOM     11  H   UNL     1       4.429   1.658  -0.033  0.00  0.00    +0.142 HD
ENDBRANCH   5   9
ENDBRANCH   2   7
ENDBRANCH   1   2
BRANCH   1  12
ATOM     12  C   UNL     1       0.183  -4.221  -0.023  0.00  0.00    +0.183 C 
BRANCH  12  13
ATOM     13  C   UNL     1      -1.145  -4.922   0.111  0.00  0.00    -0.001 A 
ATOM     14  C   UNL     1      -1.817  -5.348  -1.019  0.00  0.00    +0.022 A 
ATOM     15  C   UNL     1      -3.036  -5.991  -0.897  0.00  0.00    +0.018 A 
ATOM     16  C   UNL     1      -3.581  -6.207   0.356  0.00  0.00    +0.016 A 
ATOM     17  C   UNL     1      -2.909  -5.781   1.486  0.00  0.00    +0.017 A 
ATOM     18  C   UNL     1      -1.687  -5.143   1.363  0.00  0.00    +0.024 A 
ATOM     19 BR   UNL     1      -0.763  -4.566   2.909  0.00  0.00    -0.050 Br
ATOM     20 BR   UNL     1      -3.956  -6.575  -2.442  0.00  0.00    -0.050 Br
ENDBRANCH  12  13
BRANCH  12  21
ATOM     21  O   UNL     1       0.802  -4.604  -1.252  0.00  0.00    -0.384 OA
ATOM     22  H   UNL     1       0.284  -4.385  -2.039  0.00  0.00    +0.210 HD
ENDBRANCH  12  21
ENDBRANCH   1  12
TORSDOF 6
