REMARK  Name = ZINC09057684
REMARK  13 active torsions:
REMARK  status: ('A' for Active; 'I' for Inactive)
REMARK    1  A    between atoms: C_1  and  C_2
REMARK    2  A    between atoms: C_7  and  O_8
REMARK    3  A    between atoms: O_8  and  C_9
REMARK    4  A    between atoms: C_9  and  C_10
REMARK    5  A    between atoms: C_10  and  C_12
REMARK    6  A    between atoms: C_10  and  O_37
REMARK    7  A    between atoms: C_12  and  N_13
REMARK    8  A    between atoms: N_18  and  N_19
REMARK    9  A    between atoms: C_20  and  C_21
REMARK   10  A    between atoms: C_20  and  C_22
REMARK   11  A    between atoms: C_27  and  O_28
REMARK   12  A    between atoms: N_29  and  C_36
REMARK   13  A    between atoms: N_32  and  C_35
REMARK                            x       y       z     vdW  Elec       q    Type
REMARK                         _______ _______ _______ _____ _____    ______ ____
ROOT
ATOM      1  N   UNL     1       2.148   4.804  -0.541  0.00  0.00    -0.302 N 
ATOM      2  C   UNL     1       1.079   3.932  -0.693  0.00  0.00    +0.153 A 
ATOM      3  C   UNL     1      -0.074   4.702  -0.573  0.00  0.00    +0.170 A 
ATOM      4  N   UNL     1       0.304   5.963  -0.361  0.00  0.00    -0.195 NA
ATOM      5  C   UNL     1       1.620   6.041  -0.339  0.00  0.00    +0.218 A 
ATOM      6  N   UNL     1       2.345   7.194  -0.143  0.00  0.00    -0.206 N 
ATOM      7  N   UNL     1      -1.306   4.078  -0.685  0.00  0.00    -0.280 N 
ATOM      8  C   UNL     1      -1.374   2.753  -0.910  0.00  0.00    +0.333 A 
ATOM      9  O   UNL     1      -2.464   2.223  -1.011  0.00  0.00    -0.246 OA
ATOM     10  N   UNL     1      -0.266   2.000  -1.023  0.00  0.00    -0.262 N 
ATOM     11  C   UNL     1       0.962   2.550  -0.923  0.00  0.00    +0.282 A 
ATOM     12  O   UNL     1       1.958   1.857  -1.032  0.00  0.00    -0.265 OA
ATOM     13  C   UNL     1      -0.394   0.560  -1.264  0.00  0.00    +0.157 C 
ATOM     14  C   UNL     1      -2.537   4.863  -0.562  0.00  0.00    +0.155 C 
ATOM     15  H   UNL     1       3.312   7.176  -0.214  0.00  0.00    +0.177 HD
ENDROOT
BRANCH   6  16
ATOM     16  N   UNL     1       1.686   8.393   0.160  0.00  0.00    -0.184 NA
ATOM     17  C   UNL     1       2.361   9.498   0.254  0.00  0.00    +0.067 C 
ATOM     18  C   UNL     1       1.640  10.806   0.454  0.00  0.00    +0.068 C 
BRANCH  17  19
ATOM     19  C   UNL     1       3.832   9.473   0.166  0.00  0.00    +0.039 A 
ATOM     20  C   UNL     1       4.584   8.838   1.157  0.00  0.00    +0.013 A 
ATOM     21  C   UNL     1       5.960   8.818   1.068  0.00  0.00    +0.001 A 
ATOM     22  C   UNL     1       6.600   9.425   0.001  0.00  0.00    +0.004 A 
ATOM     23  C   UNL     1       5.867  10.057  -0.986  0.00  0.00    +0.046 A 
ATOM     24  C   UNL     1       4.483  10.082  -0.915  0.00  0.00    +0.126 A 
BRANCH  24  25
ATOM     25  O   UNL     1       3.762  10.698  -1.887  0.00  0.00    -0.506 OA
ATOM     26  H   UNL     1       3.659  11.651  -1.756  0.00  0.00    +0.292 HD
ENDBRANCH  24  25
ENDBRANCH  17  19
ENDBRANCH   6  16
BRANCH   1  27
ATOM     27  C   UNL     1       3.571   4.459  -0.589  0.00  0.00    +0.160 C 
BRANCH  27  28
ATOM     28  C   UNL     1       4.045   4.448  -2.043  0.00  0.00    +0.172 C 
BRANCH  28  29
ATOM     29  O   UNL     1       3.918   5.760  -2.595  0.00  0.00    -0.387 OA
ATOM     30  H   UNL     1       4.492   6.418  -2.181  0.00  0.00    +0.210 HD
ENDBRANCH  28  29
BRANCH  28  31
ATOM     31  C   UNL     1       5.510   4.011  -2.100  0.00  0.00    +0.262 C 
BRANCH  31  32
ATOM     32  O   UNL     1       5.919   3.889  -3.463  0.00  0.00    -0.489 OA
BRANCH  32  39
ATOM     33  C   UNL     1       6.747   3.641  -6.153  0.00  0.00    +0.047 C 
ATOM     34  C   UNL     1       7.666   3.366  -4.991  0.00  0.00    -0.009 A 
ATOM     35  C   UNL     1       8.972   2.977  -5.219  0.00  0.00    +0.007 A 
ATOM     36  C   UNL     1       9.816   2.726  -4.154  0.00  0.00    +0.000 A 
ATOM     37  C   UNL     1       9.357   2.864  -2.857  0.00  0.00    +0.004 A 
ATOM     38  C   UNL     1       8.054   3.258  -2.623  0.00  0.00    +0.046 A 
ATOM     39  C   UNL     1       7.203   3.505  -3.691  0.00  0.00    +0.124 A 
ENDBRANCH  32  39
ENDBRANCH  31  32
ENDBRANCH  28  31
ENDBRANCH  27  28
ENDBRANCH   1  27
TORSDOF 9
