REMARK  Name = ZINC59420935
REMARK  13 active torsions:
REMARK  status: ('A' for Active; 'I' for Inactive)
REMARK    1  A    between atoms: C_1  and  C_2
REMARK    2  A    between atoms: C_2  and  N_3
REMARK    3  A    between atoms: C_9  and  S_16
REMARK    4  A    between atoms: N_13  and  C_14
REMARK    5  A    between atoms: C_14  and  C_15
REMARK    6  A    between atoms: S_16  and  C_17
REMARK    7  A    between atoms: C_17  and  C_18
REMARK    8  A    between atoms: N_20  and  C_21
REMARK    9  A    between atoms: C_21  and  C_23
REMARK   10  A    between atoms: C_21  and  C_24
REMARK   11  A    between atoms: C_27  and  O_30
REMARK   12  A    between atoms: O_30  and  C_31
REMARK   13  A    between atoms: C_31  and  C_32
REMARK                            x       y       z     vdW  Elec       q    Type
REMARK                         _______ _______ _______ _____ _____    ______ ____
ROOT
ATOM      1  N   UNL     1       0.688  -0.476  -1.203  0.00  0.00    -0.314 N 
ATOM      2  C   UNL     1       0.830  -1.831  -1.430  0.00  0.00    +0.221 A 
ATOM      3  N   UNL     1       0.338  -2.688  -0.554  0.00  0.00    -0.177 NA
ATOM      4  C   UNL     1       0.469  -4.010  -0.761  0.00  0.00    +0.262 A 
ATOM      5  N   UNL     1       0.099  -5.083  -0.096  0.00  0.00    -0.107 NA
ATOM      6  N   UNL     1       0.470  -6.140  -0.729  0.00  0.00    -0.120 NA
ATOM      7  C   UNL     1       1.098  -5.815  -1.833  0.00  0.00    +0.200 A 
ATOM      8  N   UNL     1       1.121  -4.449  -1.896  0.00  0.00    -0.226 N 
ATOM      9  C   UNL     1       1.618  -3.533  -2.781  0.00  0.00    +0.207 A 
ATOM     10  N   UNL     1       1.459  -2.246  -2.536  0.00  0.00    -0.182 NA
ATOM     11  N   UNL     1       2.268  -3.946  -3.913  0.00  0.00    -0.315 N 
ATOM     12  H   UNL     1       1.042   0.162  -1.842  0.00  0.00    +0.149 HD
ATOM     13  H   UNL     1       2.378  -4.894  -4.090  0.00  0.00    +0.149 HD
ENDROOT
BRANCH   1  15
ATOM     14  C   UNL     1      -0.019   1.526   0.010  0.00  0.00    +0.024 C 
ATOM     15  C   UNL     1       0.002  -0.004   0.002  0.00  0.00    +0.101 C 
ENDBRANCH   1  15
BRANCH  11  16
ATOM     16  C   UNL     1       2.798  -2.958  -4.856  0.00  0.00    +0.101 C 
ATOM     17  C   UNL     1       3.472  -3.679  -6.025  0.00  0.00    +0.024 C 
ENDBRANCH  11  16
BRANCH   7  18
ATOM     18  S   UNL     1       1.783  -6.929  -3.014  0.00  0.00    -0.076 S 
BRANCH  18  19
ATOM     19  C   UNL     1       1.411  -8.570  -2.337  0.00  0.00    +0.173 C 
BRANCH  19  20
ATOM     20  C   UNL     1       1.949  -9.630  -3.263  0.00  0.00    +0.224 C 
ATOM     21  O   UNL     1       2.527  -9.310  -4.280  0.00  0.00    -0.275 OA
ATOM     22  N   UNL     1       1.789 -10.934  -2.961  0.00  0.00    -0.308 N 
ATOM     23  H   UNL     1       1.326 -11.190  -2.148  0.00  0.00    +0.149 HD
BRANCH  22  24
ATOM     24  C   UNL     1       2.312 -11.964  -3.862  0.00  0.00    +0.100 C 
ATOM     25  C   UNL     1       3.786 -12.222  -3.540  0.00  0.00    +0.033 C 
BRANCH  24  26
ATOM     26  C   UNL     1       1.528 -13.237  -3.679  0.00  0.00    -0.027 A 
ATOM     27  C   UNL     1       1.141 -13.633  -2.412  0.00  0.00    +0.009 A 
ATOM     28  C   UNL     1       0.422 -14.800  -2.241  0.00  0.00    +0.046 A 
ATOM     29  C   UNL     1       0.088 -15.575  -3.342  0.00  0.00    +0.121 A 
ATOM     30  C   UNL     1       0.477 -15.176  -4.612  0.00  0.00    +0.046 A 
ATOM     31  C   UNL     1       1.191 -14.005  -4.778  0.00  0.00    +0.009 A 
BRANCH  29  32
ATOM     32  O   UNL     1      -0.619 -16.724  -3.177  0.00  0.00    -0.492 OA
BRANCH  32  33
ATOM     33  C   UNL     1      -0.928 -17.471  -4.355  0.00  0.00    +0.225 C 
ATOM     34  C   UNL     1      -1.721 -18.722  -3.972  0.00  0.00    +0.048 C 
ENDBRANCH  32  33
ENDBRANCH  29  32
ENDBRANCH  24  26
ENDBRANCH  22  24
ENDBRANCH  19  20
ENDBRANCH  18  19
ENDBRANCH   7  18
TORSDOF 9
