REMARK  Name = ZINC36807442
REMARK  10 active torsions:
REMARK  status: ('A' for Active; 'I' for Inactive)
REMARK    1  A    between atoms: C_1  and  C_2
REMARK    2  A    between atoms: C_9  and  C_11
REMARK    3  A    between atoms: C_11  and  S_12
REMARK    4  A    between atoms: S_12  and  C_13
REMARK    5  A    between atoms: N_26  and  C_27
REMARK    6  A    between atoms: C_27  and  C_28
REMARK    7  A    between atoms: C_28  and  C_29
REMARK    8  A    between atoms: C_29  and  N_30
REMARK    9  A    between atoms: N_30  and  C_31
REMARK   10  A    between atoms: N_30  and  C_32
REMARK                            x       y       z     vdW  Elec       q    Type
REMARK                         _______ _______ _______ _____ _____    ______ ____
ROOT
ATOM      1  C   UNL     1       3.777   0.514   5.386  0.00  0.00    +0.173 A 
ATOM      2  N   UNL     1       4.041  -0.775   5.315  0.00  0.00    -0.216 NA
ATOM      3  C   UNL     1       4.844  -1.355   6.200  0.00  0.00    +0.117 A 
ATOM      4  C   UNL     1       5.448  -0.635   7.244  0.00  0.00    +0.076 A 
ATOM      5  C   UNL     1       6.308  -1.411   8.141  0.00  0.00    -0.023 A 
ATOM      6  C   UNL     1       6.435  -2.727   7.880  0.00  0.00    -0.004 A 
ATOM      7  S   UNL     1       5.434  -3.011   6.445  0.00  0.00    -0.073 S 
ATOM      8  C   UNL     1       7.249  -3.729   8.641  0.00  0.00    +0.043 C 
ATOM      9  C   UNL     1       8.221  -2.970   9.555  0.00  0.00    +0.005 C 
ATOM     10  C   UNL     1       7.445  -1.879  10.300  0.00  0.00    +0.005 C 
ATOM     11  C   UNL     1       7.034  -0.776   9.324  0.00  0.00    +0.037 C 
ATOM     12  C   UNL     1       5.145   0.762   7.296  0.00  0.00    +0.263 A 
ATOM     13  O   UNL     1       5.624   1.467   8.168  0.00  0.00    -0.267 OA
ATOM     14  N   UNL     1       4.327   1.289   6.366  0.00  0.00    -0.287 N 
ENDROOT
BRANCH   1  15
ATOM     15  S   UNL     1       2.707   1.249   4.195  0.00  0.00    -0.078 S 
BRANCH  15  16
ATOM     16  C   UNL     1       2.232  -0.133   3.120  0.00  0.00    +0.173 C 
BRANCH  16  24
ATOM     17  C   UNL     1       0.008   1.528  -0.006  0.00  0.00    +0.028 C 
ATOM     18  C   UNL     1       0.016  -0.002  -0.007  0.00  0.00    +0.073 C 
ATOM     19  C   UNL     1       0.633  -0.512  -1.313  0.00  0.00    +0.022 C 
ATOM     20  C   UNL     1       0.765  -2.035  -1.250  0.00  0.00    +0.003 C 
ATOM     21  C   UNL     1       1.692  -2.421  -0.095  0.00  0.00    +0.019 C 
ATOM     22  C   UNL     1       1.087  -1.933   1.225  0.00  0.00    +0.108 C 
ATOM     23  N   UNL     1       0.819  -0.492   1.122  0.00  0.00    -0.298 N 
ATOM     24  C   UNL     1       1.304   0.365   2.042  0.00  0.00    +0.226 C 
ATOM     25  O   UNL     1       0.994   1.537   2.003  0.00  0.00    -0.275 OA
ENDBRANCH  16  24
ENDBRANCH  15  16
ENDBRANCH   1  15
BRANCH  14  26
ATOM     26  C   UNL     1       4.016   2.720   6.410  0.00  0.00    +0.125 C 
BRANCH  26  27
ATOM     27  C   UNL     1       2.775   2.946   7.275  0.00  0.00    +0.003 C 
BRANCH  27  28
ATOM     28  C   UNL     1       2.451   4.441   7.320  0.00  0.00    -0.078 C 
BRANCH  28  29
ATOM     29  N   UNL     1       1.259   4.658   8.151  0.00  0.00    +0.376 N 
ATOM     30  C   UNL     1       1.017   6.100   8.293  0.00  0.00    -0.097 C 
ATOM     31  C   UNL     1       0.096   4.027   7.513  0.00  0.00    -0.097 C 
ATOM     32  H   UNL     1       1.405   4.250   9.062  0.00  0.00    -0.083 HD
ENDBRANCH  28  29
ENDBRANCH  27  28
ENDBRANCH  26  27
ENDBRANCH  14  26
TORSDOF 7
