REMARK  Name = ZINC13347069
REMARK  8 active torsions:
REMARK  status: ('A' for Active; 'I' for Inactive)
REMARK    1  A    between atoms: C_1  and  C_2
REMARK    2  A    between atoms: C_2  and  N_68
REMARK    3  A    between atoms: C_11  and  N_25
REMARK    4  A    between atoms: C_12  and  C_16
REMARK    5  A    between atoms: C_19  and  C_22
REMARK    6  A    between atoms: C_22  and  C_23
REMARK    7  A    between atoms: C_22  and  C_24
REMARK    8  A    between atoms: N_25  and  C_26
REMARK                            x       y       z     vdW  Elec       q    Type
REMARK                         _______ _______ _______ _____ _____    ______ ____
ROOT
ATOM      1  C   UNL     1      -0.013   1.086   0.008  0.00  0.00    -0.060 C 
ATOM      2  C   UNL     1      -0.754   1.593  -1.231  0.00  0.00    +0.088 C 
ATOM      3  N   UNL     1      -0.806   3.062  -1.200  0.00  0.00    -0.312 N 
ATOM      4  C   UNL     1      -1.495   3.536   0.008  0.00  0.00    +0.088 C 
ATOM      5  C   UNL     1      -0.754   3.029   1.247  0.00  0.00    -0.060 C 
ATOM      6  C   UNL     1      -1.408   3.561  -2.344  0.00  0.00    +0.184 A 
ATOM      7  N   UNL     1      -1.639   4.803  -2.674  0.00  0.00    -0.140 NA
ATOM      8  N   UNL     1      -2.257   5.129  -3.876  0.00  0.00    -0.190 N 
ATOM      9  C   UNL     1      -2.657   6.267  -4.561  0.00  0.00    +0.150 A 
ATOM     10  C   UNL     1      -3.231   5.865  -5.730  0.00  0.00    +0.114 A 
ATOM     11  N   UNL     1      -3.187   4.507  -5.768  0.00  0.00    -0.218 NA
ATOM     12  C   UNL     1      -2.617   4.077  -4.682  0.00  0.00    +0.199 A 
ATOM     13  S   UNL     1      -2.075   2.670  -3.741  0.00  0.00    -0.013 S 
ATOM     14  N   UNL     1      -0.728   1.551   1.215  0.00  0.00    +0.382 N 
ATOM     15  H   UNL     1      -1.692   1.200   1.187  0.00  0.00    -0.082 HD
ENDROOT
BRANCH  10  16
ATOM     16  C   UNL     1      -3.799   6.749  -6.772  0.00  0.00    +0.004 A 
ATOM     17  C   UNL     1      -4.451   7.928  -6.412  0.00  0.00    +0.010 A 
ATOM     18  C   UNL     1      -4.975   8.750  -7.388  0.00  0.00    +0.004 A 
ATOM     19  C   UNL     1      -4.862   8.403  -8.723  0.00  0.00    -0.045 A 
ATOM     20  C   UNL     1      -4.221   7.232  -9.087  0.00  0.00    +0.004 A 
ATOM     21  C   UNL     1      -3.689   6.404  -8.120  0.00  0.00    +0.010 A 
BRANCH  19  22
ATOM     22  C   UNL     1      -5.441   9.303  -9.784  0.00  0.00    +0.013 C 
ATOM     23  C   UNL     1      -6.948   9.448  -9.563  0.00  0.00    +0.012 C 
ATOM     24  C   UNL     1      -4.779  10.679  -9.702  0.00  0.00    +0.012 C 
ENDBRANCH  19  22
ENDBRANCH  10  16
BRANCH  14  26
ATOM     25  C   UNL     1      -0.640   1.734   3.658  0.00  0.00    -0.017 C 
ATOM     26  C   UNL     1      -0.062   1.031   2.429  0.00  0.00    -0.082 C 
ENDBRANCH  14  26
BRANCH   9  27
ATOM     27  N   UNL     1      -2.499   7.587  -4.130  0.00  0.00    -0.324 N 
ATOM     28  H   UNL     1      -1.993   8.132  -4.811  0.00  0.00    +0.148 HD
BRANCH  27  29
ATOM     29  C   UNL     1      -1.838   7.638  -2.819  0.00  0.00    +0.072 C 
ATOM     30  C   UNL     1      -2.883   7.471  -1.714  0.00  0.00    +0.022 C 
ATOM     31  C   UNL     1      -2.194   7.524  -0.349  0.00  0.00    +0.002 C 
ATOM     32  C   UNL     1      -1.489   8.872  -0.185  0.00  0.00    +0.000 C 
ATOM     33  C   UNL     1      -0.445   9.039  -1.290  0.00  0.00    +0.002 C 
ATOM     34  C   UNL     1      -1.133   8.986  -2.655  0.00  0.00    +0.022 C 
ENDBRANCH  27  29
ENDBRANCH   9  27
TORSDOF 5
