REMARK  Name = ZINC25558892
REMARK  10 active torsions:
REMARK  status: ('A' for Active; 'I' for Inactive)
REMARK    1  A    between atoms: C_1  and  C_2
REMARK    2  A    between atoms: C_5  and  N_31
REMARK    3  A    between atoms: N_6  and  C_7
REMARK    4  A    between atoms: C_7  and  C_8
REMARK    5  A    between atoms: C_8  and  O_9
REMARK    6  A    between atoms: O_9  and  C_10
REMARK    7  A    between atoms: N_12  and  C_13
REMARK    8  A    between atoms: C_13  and  C_15
REMARK    9  A    between atoms: C_13  and  N_19
REMARK   10  A    between atoms: N_19  and  C_20
REMARK                            x       y       z     vdW  Elec       q    Type
REMARK                         _______ _______ _______ _____ _____    ______ ____
ROOT
ATOM      1  C   UNL     1       4.081   2.870   1.155  0.00  0.00    +0.198 C 
ENDROOT
BRANCH   1   4
ATOM      2  C   UNL     1       5.302   1.410   2.677  0.00  0.00    +0.402 C 
ATOM      3  O   UNL     1       4.280   1.276   3.321  0.00  0.00    -0.226 OA
ATOM      4  N   UNL     1       5.307   2.187   1.576  0.00  0.00    -0.262 N 
ATOM      5  H   UNL     1       6.232   2.308   0.993  0.00  0.00    +0.154 HD
BRANCH   2   6
ATOM      6  O   UNL     1       6.428   0.783   3.064  0.00  0.00    -0.449 OA
BRANCH   6   7
ATOM      7  C   UNL     1       6.349  -0.038   4.260  0.00  0.00    +0.255 C 
BRANCH   7   8
ATOM      8  C   UNL     1       7.716  -0.665   4.539  0.00  0.00    +0.166 C 
BRANCH   8  14
ATOM      9  C   UNL     1       8.257   0.307   7.431  0.00  0.00    +0.086 C 
ATOM     10  C   UNL     1       7.868  -1.087   7.013  0.00  0.00    +0.108 A 
ATOM     11  N   UNL     1       7.696  -2.102   7.815  0.00  0.00    -0.239 NA
ATOM     12  C   UNL     1       7.361  -3.183   7.095  0.00  0.00    +0.164 A 
ATOM     13  C   UNL     1       7.318  -2.823   5.798  0.00  0.00    +0.216 A 
ATOM     14  N   UNL     1       7.636  -1.493   5.745  0.00  0.00    -0.306 N 
BRANCH  13  15
ATOM     15  N   UNL     1       6.989  -3.698   4.650  0.00  0.00    +0.075 N 
ATOM     16  O   UNL     1       6.985  -3.244   3.520  0.00  0.00    -0.125 OA
ATOM     17  O   UNL     1       6.723  -4.872   4.835  0.00  0.00    -0.125 OA
ENDBRANCH  13  15
ENDBRANCH   8  14
ENDBRANCH   7   8
ENDBRANCH   6   7
ENDBRANCH   2   6
ENDBRANCH   1   4
BRANCH   1  18
ATOM     18  C   UNL     1       4.406   4.319   0.786  0.00  0.00    +0.222 C 
ATOM     19 CL   UNL     1       2.897   5.159   0.268  0.00  0.00    -0.080 Cl
ATOM     20 CL   UNL     1       5.102   5.163   2.219  0.00  0.00    -0.080 Cl
ATOM     21 CL   UNL     1       5.600   4.342  -0.565  0.00  0.00    -0.080 Cl
ENDBRANCH   1  18
BRANCH   1  22
ATOM     22  N   UNL     1       3.514   2.182  -0.012  0.00  0.00    -0.257 NA
ATOM     23  H   UNL     1       3.214   2.926  -0.766  0.00  0.00    +0.127 HD
BRANCH  22  24
ATOM     24  C   UNL     1       2.334   1.392   0.364  0.00  0.00    +0.282 C 
ATOM     25  C   UNL     1       2.347   0.053  -0.387  0.00  0.00    +0.290 C 
ATOM     26  O   UNL     1       1.181  -0.685  -0.007  0.00  0.00    -0.483 OA
ATOM     27  C   UNL     1       0.002  -0.004   0.002  0.00  0.00    +0.162 A 
ATOM     28  C   UNL     1      -1.192  -0.710   0.004  0.00  0.00    +0.049 A 
ATOM     29  C   UNL     1      -2.397  -0.033   0.016  0.00  0.00    +0.004 A 
ATOM     30  C   UNL     1      -2.415   1.349   0.026  0.00  0.00    +0.004 A 
ATOM     31  C   UNL     1      -1.229   2.059   0.019  0.00  0.00    +0.049 A 
ATOM     32  C   UNL     1      -0.017   1.385   0.010  0.00  0.00    +0.164 A 
ATOM     33  O   UNL     1       1.143   2.098   0.002  0.00  0.00    -0.467 OA
ENDBRANCH  22  24
ENDBRANCH   1  22
TORSDOF 9
