REMARK  Name = ZINC47133656
REMARK  6 active torsions:
REMARK  status: ('A' for Active; 'I' for Inactive)
REMARK    1  A    between atoms: C_1  and  C_2
REMARK    2  A    between atoms: C_5  and  C_32
REMARK    3  A    between atoms: C_6  and  C_8
REMARK    4  A    between atoms: C_14  and  C_16
REMARK    5  A    between atoms: C_16  and  N_17
REMARK    6  A    between atoms: C_21  and  C_22
REMARK                            x       y       z     vdW  Elec       q    Type
REMARK                         _______ _______ _______ _____ _____    ______ ____
ROOT
ATOM      1  C   UNL     1       0.193  -1.454   1.899  0.00  0.00    +0.156 A 
ATOM      2  C   UNL     1       0.461  -1.008   3.271  0.00  0.00    +0.197 A 
ATOM      3  N   UNL     1       0.885  -2.031   3.959  0.00  0.00    -0.033 NA
ATOM      4  O   UNL     1       0.914  -3.155   3.097  0.00  0.00    -0.240 OA
ATOM      5  N   UNL     1       0.464  -2.730   1.823  0.00  0.00    -0.047 NA
ATOM      6  N   UNL     1       0.290   0.287   3.756  0.00  0.00    -0.265 N 
ATOM      7  C   UNL     1       0.475   0.546   5.066  0.00  0.00    +0.236 C 
ATOM      8  O   UNL     1       0.789  -0.349   5.823  0.00  0.00    -0.274 OA
ATOM      9  H   UNL     1       0.039   1.002   3.151  0.00  0.00    +0.156 HD
ENDROOT
BRANCH   1  15
ATOM     10  C   UNL     1       0.326   2.837  -0.649  0.00  0.00    +0.044 C 
ATOM     11  C   UNL     1      -0.244   1.459  -0.437  0.00  0.00    -0.050 A 
ATOM     12  C   UNL     1      -1.235   0.984  -1.278  0.00  0.00    +0.003 A 
ATOM     13  C   UNL     1      -1.763  -0.280  -1.089  0.00  0.00    +0.004 A 
ATOM     14  C   UNL     1      -1.303  -1.076  -0.059  0.00  0.00    -0.041 A 
ATOM     15  C   UNL     1      -0.305  -0.604   0.791  0.00  0.00    +0.010 A 
ATOM     16  C   UNL     1       0.227   0.669   0.592  0.00  0.00    +0.014 A 
ATOM     17  C   UNL     1      -1.879  -2.453   0.146  0.00  0.00    +0.044 C 
ENDBRANCH   1  15
BRANCH   7  18
ATOM     18  C   UNL     1       0.291   1.946   5.591  0.00  0.00    +0.211 C 
BRANCH  18  19
ATOM     19  N   UNL     1       0.547   1.965   7.033  0.00  0.00    -0.246 N 
ATOM     20  C   UNL     1      -0.453   1.747   7.870  0.00  0.00    +0.259 C 
ATOM     21  O   UNL     1      -1.583   1.531   7.473  0.00  0.00    -0.269 OA
ATOM     22  C   UNL     1      -0.129   1.779   9.311  0.00  0.00    +0.077 C 
ATOM     23  C   UNL     1      -0.938   1.594  10.384  0.00  0.00    +0.028 C 
ATOM     24  S   UNL     1       1.623   2.130   9.252  0.00  0.00    -0.061 S 
ATOM     25  C   UNL     1       1.799   2.199   7.477  0.00  0.00    +0.121 C 
ATOM     26  S   UNL     1       3.214   2.495   6.559  0.00  0.00    -0.027 S 
BRANCH  23  27
ATOM     27  C   UNL     1      -0.436   1.867  11.739  0.00  0.00    -0.024 A 
ATOM     28  C   UNL     1       0.806   2.486  11.917  0.00  0.00    +0.009 A 
ATOM     29  C   UNL     1       1.270   2.739  13.190  0.00  0.00    +0.020 A 
ATOM     30  C   UNL     1       0.509   2.381  14.292  0.00  0.00    +0.041 A 
ATOM     31  C   UNL     1      -0.722   1.767  14.123  0.00  0.00    +0.020 A 
ATOM     32  C   UNL     1      -1.201   1.513  12.856  0.00  0.00    +0.009 A 
ATOM     33 CL   UNL     1       1.101   2.704  15.891  0.00  0.00    -0.084 Cl
ENDBRANCH  23  27
ENDBRANCH  18  19
ENDBRANCH   7  18
TORSDOF 4
