REMARK  Name = ZINC61882272
REMARK  6 active torsions:
REMARK  status: ('A' for Active; 'I' for Inactive)
REMARK    1  A    between atoms: C_1  and  N_2
REMARK    2  A    between atoms: N_2  and  C_3
REMARK    3  A    between atoms: N_2  and  S_10
REMARK    4  A    between atoms: C_3  and  C_4
REMARK    5  A    between atoms: S_10  and  C_13
REMARK    6  A    between atoms: C_17  and  N_20
REMARK                            x       y       z     vdW  Elec       q    Type
REMARK                         _______ _______ _______ _____ _____    ______ ____
ROOT
ATOM      1  S   UNL     1      -0.000  -0.824  -1.437  0.00  0.00    +0.062 S 
ATOM      2  O   UNL     1      -0.531  -2.115  -1.167  0.00  0.00    -0.153 OA
ATOM      3  O   UNL     1      -0.572   0.049  -2.401  0.00  0.00    -0.153 OA
ENDROOT
BRANCH   1   4
ATOM      4  C   UNL     1       1.682  -1.059  -1.905  0.00  0.00    +0.123 A 
ATOM      5  C   UNL     1       2.207  -2.337  -1.975  0.00  0.00    +0.049 A 
ATOM      6  C   UNL     1       3.528  -2.526  -2.343  0.00  0.00    +0.045 A 
ATOM      7  C   UNL     1       4.326  -1.437  -2.642  0.00  0.00    +0.044 A 
ATOM      8  C   UNL     1       3.801  -0.154  -2.572  0.00  0.00    +0.042 A 
ATOM      9  C   UNL     1       2.473   0.032  -2.207  0.00  0.00    +0.065 A 
ATOM     10 BR   UNL     1       1.751   1.778  -2.119  0.00  0.00    -0.046 Br
ATOM     11 CL   UNL     1       4.183  -4.131  -2.429  0.00  0.00    -0.083 Cl
BRANCH   8  12
ATOM     12  N   UNL     1       4.606   0.949  -2.873  0.00  0.00    -0.357 N 
ATOM     13  H   UNL     1       5.531   0.818  -3.131  0.00  0.00    +0.142 HD
ATOM     14  H   UNL     1       4.238   1.845  -2.824  0.00  0.00    +0.142 HD
ENDBRANCH   8  12
ENDBRANCH   1   4
BRANCH   1  16
ATOM     15  C   UNL     1      -0.018   1.461   0.010  0.00  0.00    +0.131 C 
ATOM     16  N   UNL     1       0.002  -0.004   0.002  0.00  0.00    -0.177 NA
BRANCH  16  17
ATOM     17  C   UNL     1       0.024  -0.743   1.267  0.00  0.00    +0.140 C 
BRANCH  17  18
ATOM     18  C   UNL     1      -1.406  -0.912   1.784  0.00  0.00    +0.134 C 
ATOM     19  C   UNL     1      -1.403  -1.661   3.140  0.00  0.00    +0.035 C 
ATOM     20  C   UNL     1      -2.739  -1.164   3.755  0.00  0.00    +0.031 C 
ATOM     21  C   UNL     1      -2.824   0.284   3.226  0.00  0.00    +0.160 C 
ATOM     22  O   UNL     1      -1.989   0.371   2.064  0.00  0.00    -0.375 OA
ENDBRANCH  17  18
ENDBRANCH  16  17
ENDBRANCH   1  16
TORSDOF 5
