REMARK  Name = ZINC65329749
REMARK  12 active torsions:
REMARK  status: ('A' for Active; 'I' for Inactive)
REMARK    1  A    between atoms: C_1  and  C_2
REMARK    2  A    between atoms: C_2  and  C_3
REMARK    3  A    between atoms: N_9  and  C_10
REMARK    4  A    between atoms: C_10  and  C_11
REMARK    5  A    between atoms: C_14  and  C_16
REMARK    6  A    between atoms: C_16  and  N_17
REMARK    7  A    between atoms: C_18  and  C_20
REMARK    8  A    between atoms: C_21  and  C_34
REMARK    9  A    between atoms: N_27  and  C_30
REMARK   10  A    between atoms: C_30  and  C_31
REMARK   11  A    between atoms: C_31  and  C_32
REMARK   12  A    between atoms: C_31  and  C_33
REMARK                            x       y       z     vdW  Elec       q    Type
REMARK                         _______ _______ _______ _____ _____    ______ ____
ROOT
ATOM      1  N   UNL     1      -4.706   3.275   5.441  0.00  0.00    -0.304 N 
ATOM      2  C   UNL     1      -5.947   3.658   5.799  0.00  0.00    +0.249 C 
ATOM      3  O   UNL     1      -6.742   2.835   6.212  0.00  0.00    -0.270 OA
ATOM      4  H   UNL     1      -4.072   3.932   5.112  0.00  0.00    +0.149 HD
ENDROOT
BRANCH   2   5
ATOM      5  C   UNL     1      -6.342   5.072   5.691  0.00  0.00    +0.092 A 
ATOM      6  C   UNL     1      -6.914   5.688   4.620  0.00  0.00    +0.117 A 
ATOM      7  O   UNL     1      -7.125   6.979   4.904  0.00  0.00    -0.441 OA
ATOM      8  C   UNL     1      -6.715   7.281   6.147  0.00  0.00    +0.235 A 
ATOM      9  C   UNL     1      -6.207   6.115   6.720  0.00  0.00    +0.117 A 
ATOM     10  C   UNL     1      -5.709   6.157   8.040  0.00  0.00    +0.266 A 
ATOM     11  O   UNL     1      -5.255   5.158   8.571  0.00  0.00    -0.267 OA
ATOM     12  N   UNL     1      -5.751   7.338   8.699  0.00  0.00    -0.298 N 
ATOM     13  C   UNL     1      -6.260   8.438   8.090  0.00  0.00    +0.206 A 
ATOM     14  N   UNL     1      -6.716   8.412   6.869  0.00  0.00    -0.202 NA
ATOM     15  C   UNL     1      -7.256   5.018   3.313  0.00  0.00    +0.087 C 
BRANCH  12  16
ATOM     16  C   UNL     1      -5.246   7.429  10.071  0.00  0.00    +0.129 C 
BRANCH  16  17
ATOM     17  C   UNL     1      -3.759   7.788  10.045  0.00  0.00    +0.003 C 
ATOM     18  C   UNL     1      -3.583   9.189   9.455  0.00  0.00    +0.009 C 
ATOM     19  C   UNL     1      -3.203   7.761  11.470  0.00  0.00    +0.009 C 
ENDBRANCH  16  17
ENDBRANCH  12  16
ENDBRANCH   2   5
BRANCH   1  20
ATOM     20  C   UNL     1      -4.313   1.868   5.549  0.00  0.00    +0.179 C 
BRANCH  20  24
ATOM     21  C   UNL     1      -1.151   1.372   3.792  0.00  0.00    +0.089 A 
ATOM     22  C   UNL     1      -0.675   1.583   5.033  0.00  0.00    +0.043 A 
ATOM     23  C   UNL     1      -1.794   1.799   5.869  0.00  0.00    +0.046 A 
ATOM     24  C   UNL     1      -2.887   1.708   5.090  0.00  0.00    +0.122 A 
ATOM     25  O   UNL     1      -2.490   1.454   3.832  0.00  0.00    -0.465 OA
BRANCH  21  26
ATOM     26  C   UNL     1      -0.320   1.096   2.566  0.00  0.00    -0.003 C 
BRANCH  26  32
ATOM     27  C   UNL     1       0.589  -0.628   1.169  0.00  0.00    -0.068 C 
ATOM     28  C   UNL     1       0.721  -2.139   0.974  0.00  0.00    -0.015 C 
ATOM     29  C   UNL     1       1.502  -2.734   2.150  0.00  0.00    -0.003 C 
ATOM     30  C   UNL     1       0.787  -2.377   3.457  0.00  0.00    -0.019 C 
ATOM     31  C   UNL     1       0.652  -0.857   3.559  0.00  0.00    -0.078 C 
ATOM     32  N   UNL     1      -0.126  -0.353   2.421  0.00  0.00    +0.386 N 
ATOM     33  H   UNL     1      -1.026  -0.811   2.401  0.00  0.00    -0.081 HD
BRANCH  27  35
ATOM     34  C   UNL     1       0.599  -0.235  -1.298  0.00  0.00    +0.002 C 
ATOM     35  C   UNL     1      -0.191  -0.029  -0.004  0.00  0.00    -0.019 C 
ENDBRANCH  27  35
ENDBRANCH  26  32
ENDBRANCH  21  26
ENDBRANCH  20  24
ENDBRANCH   1  20
TORSDOF 8
