REMARK  Name = ZINC64190869
REMARK  5 active torsions:
REMARK  status: ('A' for Active; 'I' for Inactive)
REMARK    1  A    between atoms: C_4  and  C_7
REMARK    2  A    between atoms: C_7  and  C_9
REMARK    3  A    between atoms: C_7  and  N_18
REMARK    4  A    between atoms: C_19  and  C_21
REMARK    5  A    between atoms: C_24  and  C_28
REMARK                            x       y       z     vdW  Elec       q    Type
REMARK                         _______ _______ _______ _____ _____    ______ ____
ROOT
ATOM      1  C   UNL     1       3.241  -0.617   0.078  0.00  0.00    +0.134 C 
ENDROOT
BRANCH   1   2
ATOM      2  C   UNL     1       3.616  -0.927  -1.348  0.00  0.00    -0.021 A 
ATOM      3  C   UNL     1       3.242  -2.140  -1.910  0.00  0.00    +0.008 A 
ATOM      4  C   UNL     1       3.572  -2.440  -3.201  0.00  0.00    +0.030 A 
ATOM      5  C   UNL     1       4.292  -1.520  -3.968  0.00  0.00    +0.089 A 
ATOM      6  C   UNL     1       4.670  -0.292  -3.400  0.00  0.00    +0.066 A 
ATOM      7  C   UNL     1       4.322  -0.003  -2.087  0.00  0.00    +0.033 A 
ATOM      8  N   UNL     1       5.356   0.389  -4.386  0.00  0.00    -0.344 N 
ATOM      9  C   UNL     1       5.379  -0.409  -5.487  0.00  0.00    +0.197 A 
ATOM     10  N   UNL     1       4.757  -1.525  -5.244  0.00  0.00    -0.236 NA
ATOM     11  H   UNL     1       5.748   1.272  -4.307  0.00  0.00    +0.167 HD
ENDBRANCH   1   2
BRANCH   1  15
ATOM     12  C   UNL     1      -0.832   0.660   0.234  0.00  0.00    +0.000 A 
ATOM     13  C   UNL     1       0.187   1.594   0.263  0.00  0.00    +0.000 A 
ATOM     14  C   UNL     1       1.505   1.181   0.213  0.00  0.00    +0.006 A 
ATOM     15  C   UNL     1       1.804  -0.167   0.134  0.00  0.00    -0.023 A 
ATOM     16  C   UNL     1       0.786  -1.101   0.106  0.00  0.00    +0.006 A 
ATOM     17  C   UNL     1      -0.532  -0.687   0.155  0.00  0.00    +0.000 A 
ENDBRANCH   1  15
BRANCH   1  18
ATOM     18  N   UNL     1       3.409  -1.819   0.900  0.00  0.00    -0.301 N 
ATOM     19  C   UNL     1       3.631  -1.704   2.224  0.00  0.00    +0.239 C 
ATOM     20  O   UNL     1       3.693  -0.602   2.738  0.00  0.00    -0.271 OA
ATOM     21  H   UNL     1       3.360  -2.696   0.490  0.00  0.00    +0.150 HD
BRANCH  19  22
ATOM     22  C   UNL     1       3.793  -2.864   3.017  0.00  0.00    +0.086 C 
ATOM     23  C   UNL     1       4.131  -2.750   4.318  0.00  0.00    +0.020 C 
ATOM     24  N   UNL     1       4.450  -1.565   4.878  0.00  0.00    -0.331 N 
ATOM     25  C   UNL     1       4.308  -1.415   6.338  0.00  0.00    +0.160 C 
ATOM     26  S   UNL     1       3.808  -3.111   6.856  0.00  0.00    -0.128 S 
ATOM     27  C   UNL     1       4.173  -3.950   5.256  0.00  0.00    +0.121 C 
ATOM     28  H   UNL     1       4.767  -0.828   4.332  0.00  0.00    +0.147 HD
BRANCH  25  29
ATOM     29  C   UNL     1       3.237  -0.409   6.673  0.00  0.00    -0.010 A 
ATOM     30  C   UNL     1       3.321   0.347   7.827  0.00  0.00    +0.014 A 
ATOM     31  C   UNL     1       2.340   1.243   8.098  0.00  0.00    +0.045 A 
ATOM     32  S   UNL     1       1.252   1.034   6.699  0.00  0.00    -0.105 S 
ATOM     33  C   UNL     1       2.180  -0.229   5.844  0.00  0.00    +0.051 A 
ENDBRANCH  25  29
ENDBRANCH  19  22
ENDBRANCH   1  18
TORSDOF 5
