REMARK  Name = ZINC30743688
REMARK  8 active torsions:
REMARK  status: ('A' for Active; 'I' for Inactive)
REMARK    1  A    between atoms: C_1  and  C_2
REMARK    2  A    between atoms: C_2  and  C_3
REMARK    3  A    between atoms: C_2  and  C_4
REMARK    4  A    between atoms: C_4  and  C_6
REMARK    5  A    between atoms: C_4  and  S_17
REMARK    6  A    between atoms: S_17  and  C_18
REMARK    7  A    between atoms: N_22  and  C_23
REMARK    8  A    between atoms: C_23  and  C_24
REMARK                            x       y       z     vdW  Elec       q    Type
REMARK                         _______ _______ _______ _____ _____    ______ ____
ROOT
ATOM      1  C   UNL     1      -0.590  -3.284  -0.341  0.00  0.00    +0.143 C 
ENDROOT
BRANCH   1   2
ATOM      2  C   UNL     1      -1.657  -2.300  -0.744  0.00  0.00    +0.233 C 
ATOM      3  O   UNL     1      -2.823  -2.635  -0.740  0.00  0.00    -0.274 OA
ATOM      4  N   UNL     1      -1.317  -1.048  -1.109  0.00  0.00    -0.270 N 
ATOM      5  C   UNL     1       0.038  -0.495  -1.049  0.00  0.00    +0.118 C 
ATOM      6  C   UNL     1      -0.091   0.946  -1.569  0.00  0.00    +0.056 C 
ATOM      7  C   UNL     1      -1.560   1.106  -1.888  0.00  0.00    -0.024 A 
ATOM      8  C   UNL     1      -2.206  -0.087  -1.600  0.00  0.00    +0.040 A 
ATOM      9  C   UNL     1      -3.581  -0.183  -1.820  0.00  0.00    +0.024 A 
ATOM     10  C   UNL     1      -4.283   0.895  -2.317  0.00  0.00    +0.002 A 
ATOM     11  C   UNL     1      -3.630   2.080  -2.600  0.00  0.00    +0.000 A 
ATOM     12  C   UNL     1      -2.268   2.183  -2.386  0.00  0.00    +0.005 A 
ENDBRANCH   1   2
BRANCH   1  14
ATOM     13  C   UNL     1      -0.220  -2.072   1.813  0.00  0.00    +0.009 C 
ATOM     14  C   UNL     1      -0.572  -3.421   1.183  0.00  0.00    +0.005 C 
ATOM     15  C   UNL     1      -1.952  -3.867   1.671  0.00  0.00    +0.009 C 
ENDBRANCH   1  14
BRANCH   1  16
ATOM     16  S   UNL     1      -0.940  -4.895  -1.088  0.00  0.00    -0.072 S 
BRANCH  16  17
ATOM     17  C   UNL     1       0.508  -5.776  -0.609  0.00  0.00    +0.210 A 
ATOM     18  N   UNL     1       1.528  -5.295   0.068  0.00  0.00    -0.101 NA
ATOM     19  N   UNL     1       2.417  -6.203   0.249  0.00  0.00    -0.022 NA
ATOM     20  N   UNL     1       2.040  -7.313  -0.288  0.00  0.00    -0.043 NA
ATOM     21  N   UNL     1       0.779  -7.078  -0.863  0.00  0.00    -0.213 N 
BRANCH  21  22
ATOM     22  C   UNL     1      -0.062  -8.037  -1.584  0.00  0.00    +0.222 C 
BRANCH  22  23
ATOM     23  C   UNL     1       0.277  -7.997  -3.052  0.00  0.00    +0.126 A 
ATOM     24  C   UNL     1       1.211  -8.748  -3.664  0.00  0.00    +0.046 A 
ATOM     25  C   UNL     1       1.192  -8.390  -5.032  0.00  0.00    +0.041 A 
ATOM     26  C   UNL     1       0.254  -7.436  -5.172  0.00  0.00    +0.195 A 
ATOM     27  O   UNL     1      -0.297  -7.202  -3.970  0.00  0.00    -0.466 OA
ENDBRANCH  22  23
ENDBRANCH  21  22
ENDBRANCH  16  17
ENDBRANCH   1  16
TORSDOF 6
