REMARK  Name = ZINC13574424
REMARK  7 active torsions:
REMARK  status: ('A' for Active; 'I' for Inactive)
REMARK    1  A    between atoms: C_1  and  C_2
REMARK    2  A    between atoms: C_5  and  C_8
REMARK    3  A    between atoms: C_16  and  C_18
REMARK    4  A    between atoms: C_21  and  O_25
REMARK    5  A    between atoms: C_22  and  O_24
REMARK    6  A    between atoms: N_26  and  C_33
REMARK    7  A    between atoms: N_29  and  C_32
REMARK                            x       y       z     vdW  Elec       q    Type
REMARK                         _______ _______ _______ _____ _____    ______ ____
ROOT
ATOM      1  C   UNL     1       3.035   1.638   0.134  0.00  0.00    +0.064 A 
ATOM      2  C   UNL     1       1.855   1.004   0.485  0.00  0.00    +0.089 A 
ATOM      3  C   UNL     1       2.075  -0.435   0.264  0.00  0.00    +0.083 A 
ATOM      4  C   UNL     1       3.329  -0.563  -0.190  0.00  0.00    +0.077 A 
ATOM      5  N   UNL     1       3.913   0.683  -0.270  0.00  0.00    -0.337 N 
ATOM      6  C   UNL     1       5.293   0.887  -0.733  0.00  0.00    +0.150 C 
ATOM      7  C   UNL     1       6.020  -0.462  -0.677  0.00  0.00    +0.182 C 
ATOM      8  O   UNL     1       5.224  -1.466  -1.312  0.00  0.00    -0.364 OA
ATOM      9  C   UNL     1       4.051  -1.835  -0.573  0.00  0.00    +0.197 C 
ATOM     10  N   UNL     1       1.016  -1.306   0.550  0.00  0.00    -0.294 N 
ATOM     11  C   UNL     1      -0.152  -0.825   1.008  0.00  0.00    +0.332 A 
ATOM     12  O   UNL     1      -1.045  -1.616   1.243  0.00  0.00    -0.246 OA
ATOM     13  N   UNL     1      -0.388   0.476   1.220  0.00  0.00    -0.263 N 
ATOM     14  C   UNL     1       0.545   1.425   0.987  0.00  0.00    +0.266 A 
ATOM     15  O   UNL     1       0.303   2.600   1.189  0.00  0.00    -0.267 OA
ATOM     16  C   UNL     1      -1.704   0.885   1.717  0.00  0.00    +0.157 C 
ATOM     17  C   UNL     1       1.183  -2.747   0.348  0.00  0.00    +0.154 C 
ENDROOT
BRANCH   1  22
ATOM     18  C   UNL     1       4.038   7.298   0.344  0.00  0.00    +0.044 C 
ATOM     19  C   UNL     1       3.775   5.816   0.288  0.00  0.00    -0.050 A 
ATOM     20  C   UNL     1       2.588   5.346  -0.244  0.00  0.00    +0.004 A 
ATOM     21  C   UNL     1       2.341   3.990  -0.298  0.00  0.00    +0.010 A 
ATOM     22  C   UNL     1       3.292   3.090   0.187  0.00  0.00    -0.001 A 
ATOM     23  C   UNL     1       4.487   3.572   0.729  0.00  0.00    +0.010 A 
ATOM     24  C   UNL     1       4.723   4.930   0.771  0.00  0.00    +0.004 A 
ENDBRANCH   1  22
BRANCH   9  25
ATOM     25  C   UNL     1       3.156  -2.692  -1.430  0.00  0.00    -0.009 A 
ATOM     26  C   UNL     1       2.989  -4.031  -1.128  0.00  0.00    +0.010 A 
ATOM     27  C   UNL     1       2.164  -4.820  -1.908  0.00  0.00    +0.049 A 
ATOM     28  C   UNL     1       1.512  -4.273  -3.001  0.00  0.00    +0.158 A 
ATOM     29  C   UNL     1       1.685  -2.927  -3.308  0.00  0.00    +0.159 A 
ATOM     30  C   UNL     1       2.509  -2.140  -2.519  0.00  0.00    +0.055 A 
BRANCH  29  31
ATOM     31  O   UNL     1       1.048  -2.385  -4.380  0.00  0.00    -0.503 OA
ATOM     32  H   UNL     1       1.552  -2.434  -5.204  0.00  0.00    +0.292 HD
ENDBRANCH  29  31
BRANCH  28  33
ATOM     33  O   UNL     1       0.705  -5.050  -3.772  0.00  0.00    -0.503 OA
ATOM     34  H   UNL     1       1.161  -5.480  -4.509  0.00  0.00    +0.292 HD
ENDBRANCH  28  33
ENDBRANCH   9  25
TORSDOF 4
