REMARK  Name = ZINC67087708
REMARK  9 active torsions:
REMARK  status: ('A' for Active; 'I' for Inactive)
REMARK    1  A    between atoms: C_1  and  C_2
REMARK    2  A    between atoms: C_9  and  C_11
REMARK    3  A    between atoms: N_20  and  C_21
REMARK    4  A    between atoms: C_21  and  C_22
REMARK    5  A    between atoms: C_22  and  S_23
REMARK    6  A    between atoms: S_23  and  C_24
REMARK    7  A    between atoms: C_24  and  C_25
REMARK    8  A    between atoms: C_24  and  C_26
REMARK    9  A    between atoms: C_24  and  C_27
REMARK                            x       y       z     vdW  Elec       q    Type
REMARK                         _______ _______ _______ _____ _____    ______ ____
ROOT
ATOM      1  C   UNL     1      -0.128  -6.335  -0.949  0.00  0.00    +0.093 C 
ATOM      2  C   UNL     1      -0.233  -6.902  -2.367  0.00  0.00    +0.016 C 
ATOM      3  C   UNL     1      -0.366  -8.425  -2.301  0.00  0.00    +0.020 C 
ATOM      4  C   UNL     1       0.882  -9.014  -1.636  0.00  0.00    +0.109 C 
ATOM      5  N   UNL     1       1.072  -8.368  -0.330  0.00  0.00    -0.285 N 
ATOM      6  C   UNL     1       1.122  -6.900  -0.268  0.00  0.00    +0.122 C 
ATOM      7  C   UNL     1       1.197  -9.106   0.790  0.00  0.00    +0.302 C 
ATOM      8  O   UNL     1       1.258  -8.560   1.875  0.00  0.00    -0.253 OA
ATOM      9  N   UNL     1       1.255 -10.450   0.708  0.00  0.00    -0.298 N 
ATOM     10  H   UNL     1       1.134 -10.890  -0.148  0.00  0.00    +0.150 HD
ENDROOT
BRANCH   1  19
ATOM     11  C   UNL     1       0.014   1.499  -0.186  0.00  0.00    +0.045 C 
ATOM     12  C   UNL     1       0.030  -0.003  -0.066  0.00  0.00    -0.032 A 
ATOM     13  C   UNL     1       0.044  -0.606   1.185  0.00  0.00    +0.008 A 
ATOM     14  C   UNL     1       0.059  -1.988   1.251  0.00  0.00    +0.044 A 
ATOM     15  C   UNL     1       0.058  -2.721   0.070  0.00  0.00    +0.125 A 
ATOM     16  N   UNL     1       0.044  -2.110  -1.103  0.00  0.00    -0.240 NA
ATOM     17  C   UNL     1       0.025  -0.794  -1.197  0.00  0.00    +0.116 A 
ATOM     18  N   UNL     1       0.073  -4.114   0.122  0.00  0.00    -0.270 N 
ATOM     19  C   UNL     1      -0.030  -4.833  -1.014  0.00  0.00    +0.223 C 
ATOM     20  O   UNL     1      -0.043  -4.270  -2.088  0.00  0.00    -0.275 OA
ATOM     21  H   UNL     1       0.158  -4.567   0.976  0.00  0.00    +0.156 HD
ENDBRANCH   1  19
BRANCH   9  22
ATOM     22  C   UNL     1       1.500 -11.248   1.912  0.00  0.00    +0.116 C 
BRANCH  22  23
ATOM     23  C   UNL     1       1.517 -12.733   1.545  0.00  0.00    +0.088 C 
BRANCH  23  24
ATOM     24  S   UNL     1       1.821 -13.721   3.036  0.00  0.00    -0.153 S 
BRANCH  24  25
ATOM     25  C   UNL     1       1.811 -15.433   2.438  0.00  0.00    +0.008 C 
ATOM     26  C   UNL     1       2.913 -15.614   1.392  0.00  0.00    +0.022 C 
ATOM     27  C   UNL     1       2.059 -16.385   3.610  0.00  0.00    +0.022 C 
ATOM     28  C   UNL     1       0.453 -15.745   1.807  0.00  0.00    +0.022 C 
ENDBRANCH  24  25
ENDBRANCH  23  24
ENDBRANCH  22  23
ENDBRANCH   9  22
TORSDOF 5
