REMARK  Name = ZINC32330588
REMARK  6 active torsions:
REMARK  status: ('A' for Active; 'I' for Inactive)
REMARK    1  A    between atoms: C_1  and  C_2
REMARK    2  A    between atoms: C_5  and  S_8
REMARK    3  A    between atoms: S_8  and  C_11
REMARK    4  A    between atoms: C_14  and  C_17
REMARK    5  A    between atoms: C_17  and  S_18
REMARK    6  A    between atoms: S_18  and  C_19
REMARK                            x       y       z     vdW  Elec       q    Type
REMARK                         _______ _______ _______ _____ _____    ______ ____
ROOT
ATOM      1  C   UNL     1       2.384  12.037   0.037  0.00  0.00    +0.094 A 
ATOM      2  C   UNL     1       2.127  11.397  -1.160  0.00  0.00    +0.027 A 
ATOM      3  C   UNL     1       1.634  10.105  -1.162  0.00  0.00    +0.006 A 
ATOM      4  C   UNL     1       1.398   9.454   0.035  0.00  0.00    -0.037 A 
ATOM      5  C   UNL     1       1.650  10.097   1.232  0.00  0.00    +0.006 A 
ATOM      6  C   UNL     1       2.147  11.386   1.234  0.00  0.00    +0.027 A 
ENDROOT
BRANCH   1   7
ATOM      7  S   UNL     1       3.014  13.683   0.039  0.00  0.00    +0.025 S 
ATOM      8  O   UNL     1       3.684  13.860   1.280  0.00  0.00    -0.164 OA
ATOM      9  O   UNL     1       3.664  13.870  -1.211  0.00  0.00    -0.164 OA
BRANCH   7  14
ATOM     10  C   UNL     1      -1.730  17.410   0.094  0.00  0.00    +0.044 C 
ATOM     11  C   UNL     1      -0.545  16.479   0.080  0.00  0.00    -0.050 A 
ATOM     12  C   UNL     1       0.008  16.047   1.271  0.00  0.00    +0.005 A 
ATOM     13  C   UNL     1       1.095  15.193   1.258  0.00  0.00    +0.027 A 
ATOM     14  C   UNL     1       1.629  14.771   0.055  0.00  0.00    +0.094 A 
ATOM     15  C   UNL     1       1.079  15.207  -1.136  0.00  0.00    +0.027 A 
ATOM     16  C   UNL     1      -0.011  16.058  -1.123  0.00  0.00    +0.005 A 
ENDBRANCH   7  14
ENDBRANCH   1   7
BRANCH   4  17
ATOM     17  C   UNL     1       0.860   8.047   0.033  0.00  0.00    +0.112 C 
BRANCH  17  18
ATOM     18  S   UNL     1       2.242   6.872   0.015  0.00  0.00    -0.080 S 
BRANCH  18  19
ATOM     19  C   UNL     1       1.459   5.293   0.015  0.00  0.00    +0.211 A 
ATOM     20  N   UNL     1       0.144   5.087   0.027  0.00  0.00    -0.183 NA
ATOM     21  C   UNL     1      -0.105   3.781   0.022  0.00  0.00    +0.254 A 
ATOM     22  N   UNL     1      -1.245   3.081   0.030  0.00  0.00    -0.219 NA
ATOM     23  C   UNL     1      -1.229   1.767   0.017  0.00  0.00    +0.116 A 
ATOM     24  C   UNL     1      -0.013   1.076   0.008  0.00  0.00    +0.040 A 
ATOM     25  C   UNL     1       1.150   1.779   0.001  0.00  0.00    +0.118 A 
ATOM     26  N   UNL     1       1.100   3.136   0.008  0.00  0.00    -0.203 N 
ATOM     27  N   UNL     1       2.085   4.133   0.004  0.00  0.00    -0.137 NA
ENDBRANCH  18  19
ENDBRANCH  17  18
ENDBRANCH   4  17
TORSDOF 5
