REMARK  Name = ZINC28869565
REMARK  12 active torsions:
REMARK  status: ('A' for Active; 'I' for Inactive)
REMARK    1  A    between atoms: C_1  and  C_2
REMARK    2  A    between atoms: C_2  and  C_3
REMARK    3  A    between atoms: C_3  and  N_4
REMARK    4  A    between atoms: N_4  and  C_5
REMARK    5  A    between atoms: C_6  and  C_29
REMARK    6  A    between atoms: C_8  and  C_23
REMARK    7  A    between atoms: N_10  and  C_13
REMARK    8  A    between atoms: C_13  and  C_14
REMARK    9  A    between atoms: C_17  and  C_20
REMARK   10  A    between atoms: C_30  and  C_32
REMARK   11  A    between atoms: C_32  and  C_33
REMARK   12  A    between atoms: C_33  and  C_34
REMARK                            x       y       z     vdW  Elec       q    Type
REMARK                         _______ _______ _______ _____ _____    ______ ____
ROOT
ATOM      1  C   UNL     1       0.080  -0.030   0.007  0.00  0.00    +0.098 C 
ATOM      2  C   UNL     1       1.287  -0.600   0.003  0.00  0.00    -0.044 C 
ATOM      3  C   UNL     1       2.502   0.201   0.390  0.00  0.00    +0.059 C 
ATOM      4  C   UNL     1       2.338   1.655  -0.049  0.00  0.00    +0.111 C 
ATOM      5  N   UNL     1       1.046   2.177   0.400  0.00  0.00    -0.285 N 
ATOM      6  C   UNL     1      -0.050   1.396   0.367  0.00  0.00    +0.262 C 
ATOM      7  O   UNL     1      -1.142   1.864   0.627  0.00  0.00    -0.269 OA
ATOM      8  C   UNL     1       1.434  -2.047  -0.389  0.00  0.00    +0.041 C 
ENDROOT
BRANCH   4   9
ATOM      9  C   UNL     1       2.413   1.734  -1.552  0.00  0.00    -0.027 A 
ATOM     10  C   UNL     1       1.310   1.407  -2.317  0.00  0.00    +0.005 A 
ATOM     11  C   UNL     1       1.377   1.485  -3.696  0.00  0.00    +0.000 A 
ATOM     12  C   UNL     1       2.551   1.879  -4.309  0.00  0.00    +0.000 A 
ATOM     13  C   UNL     1       3.656   2.201  -3.544  0.00  0.00    +0.000 A 
ATOM     14  C   UNL     1       3.587   2.128  -2.165  0.00  0.00    +0.005 A 
ENDBRANCH   4   9
BRANCH   1  15
ATOM     15  N   UNL     1      -1.056  -0.779  -0.327  0.00  0.00    -0.267 N 
ATOM     16  C   UNL     1      -1.482  -1.759   0.494  0.00  0.00    +0.220 C 
ATOM     17  O   UNL     1      -0.835  -2.051   1.477  0.00  0.00    -0.275 OA
BRANCH  15  18
ATOM     18  C   UNL     1      -1.778  -0.499  -1.570  0.00  0.00    +0.113 C 
BRANCH  18  20
ATOM     19  C   UNL     1      -2.036  -1.143  -3.970  0.00  0.00    +0.005 C 
ATOM     20  C   UNL     1      -1.281  -1.436  -2.672  0.00  0.00    +0.016 C 
ENDBRANCH  18  20
ENDBRANCH  15  18
BRANCH  16  21
ATOM     21  C   UNL     1      -2.765  -2.490   0.192  0.00  0.00    +0.107 C 
BRANCH  21  22
ATOM     22  C   UNL     1      -3.018  -3.543   1.272  0.00  0.00    +0.134 C 
BRANCH  22  23
ATOM     23  C   UNL     1      -4.301  -4.274   0.970  0.00  0.00    +0.356 C 
ATOM     24  O   UNL     1      -4.947  -3.982  -0.008  0.00  0.00    -0.246 OA
ATOM     25  O   UNL     1      -4.726  -5.250   1.789  0.00  0.00    -0.246 OA
ENDBRANCH  22  23
ENDBRANCH  21  22
ENDBRANCH  16  21
ENDBRANCH   1  15
BRANCH   5  26
ATOM     26  C   UNL     1       0.947   3.555   0.887  0.00  0.00    +0.143 C 
BRANCH  26  27
ATOM     27  C   UNL     1       1.190   3.581   2.374  0.00  0.00    -0.030 A 
ATOM     28  C   UNL     1       0.128   3.444   3.249  0.00  0.00    +0.006 A 
ATOM     29  C   UNL     1       0.345   3.462   4.612  0.00  0.00    +0.011 A 
ATOM     30  C   UNL     1       1.639   3.629   5.106  0.00  0.00    +0.012 A 
ATOM     31  C   UNL     1       2.705   3.771   4.219  0.00  0.00    +0.011 A 
ATOM     32  C   UNL     1       2.475   3.747   2.859  0.00  0.00    +0.006 A 
BRANCH  30  33
ATOM     33  C   UNL     1       1.878   3.654   6.567  0.00  0.00    +0.094 C 
ATOM     34  N   UNL     1       3.087   3.809   7.026  0.00  0.00    -0.387 N 
ATOM     35  N   UNL     1       0.822   3.513   7.441  0.00  0.00    -0.345 N 
ATOM     36  H   UNL     1       3.265   3.828   8.112  0.00  0.00    +0.157 HD
ATOM     37  H   UNL     1       1.000   3.531   8.527  0.00  0.00    +0.144 HD
ATOM     38  H   UNL     1      -0.199   3.381   7.053  0.00  0.00    +0.144 HD
ATOM     39  H   UNL     1       3.930   3.921   6.329  0.00  0.00    +0.157 HD
ENDBRANCH  30  33
ENDBRANCH  26  27
ENDBRANCH   5  26
TORSDOF 10
