REMARK  Name = ZINC22131220
REMARK  7 active torsions:
REMARK  status: ('A' for Active; 'I' for Inactive)
REMARK    1  A    between atoms: C_1  and  C_2
REMARK    2  A    between atoms: C_12  and  C_14
REMARK    3  A    between atoms: C_14  and  C_16
REMARK    4  A    between atoms: C_14  and  N_19
REMARK    5  A    between atoms: C_16  and  C_17
REMARK    6  A    between atoms: C_16  and  C_18
REMARK    7  A    between atoms: C_20  and  C_22
REMARK                            x       y       z     vdW  Elec       q    Type
REMARK                         _______ _______ _______ _____ _____    ______ ____
ROOT
ATOM      1  C   UNL     1       3.490   0.425   7.776  0.00  0.00    +0.162 C 
ENDROOT
BRANCH   1  12
ATOM      2  C   UNL     1      -2.256   0.719  -0.427  0.00  0.00    +0.008 C 
ATOM      3  C   UNL     1      -1.248   0.367   0.669  0.00  0.00    -0.009 C 
ATOM      4  C   UNL     1      -0.012   1.261   0.537  0.00  0.00    +0.010 C 
ATOM      5  C   UNL     1       1.101   0.759   1.459  0.00  0.00    +0.056 C 
ATOM      6  C   UNL     1       0.543   0.622   2.871  0.00  0.00    +0.054 A 
ATOM      7  C   UNL     1      -0.798   0.557   3.074  0.00  0.00    +0.015 A 
ATOM      8  S   UNL     1      -0.919   0.407   4.836  0.00  0.00    -0.057 S 
ATOM      9  C   UNL     1       0.787   0.441   5.169  0.00  0.00    +0.165 A 
ATOM     10  N   UNL     1       1.302   0.558   3.962  0.00  0.00    -0.229 NA
ATOM     11  N   UNL     1       1.440   0.363   6.394  0.00  0.00    -0.263 N 
ATOM     12  C   UNL     1       2.786   0.407   6.444  0.00  0.00    +0.239 C 
ATOM     13  O   UNL     1       3.430   0.431   5.417  0.00  0.00    -0.273 OA
ATOM     14  C   UNL     1      -1.882   0.601   2.050  0.00  0.00    +0.047 C 
ATOM     15  H   UNL     1       0.858   0.266   7.322  0.00  0.00    +0.157 HD
ENDBRANCH   1  12
BRANCH   1  16
ATOM     16  N   UNL     1       4.888   0.025   7.595  0.00  0.00    -0.300 N 
ATOM     17  C   UNL     1       5.573  -0.515   8.622  0.00  0.00    +0.245 C 
ATOM     18  O   UNL     1       5.031  -0.670   9.700  0.00  0.00    -0.270 OA
ATOM     19  H   UNL     1       5.378   0.165   6.620  0.00  0.00    +0.150 HD
BRANCH  17  20
ATOM     20  C   UNL     1       6.982  -0.919   8.440  0.00  0.00    +0.037 A 
ATOM     21  C   UNL     1       7.605  -0.747   7.202  0.00  0.00    +0.016 A 
ATOM     22  C   UNL     1       8.922  -1.120   7.039  0.00  0.00    +0.039 A 
ATOM     23  C   UNL     1       9.624  -1.675   8.098  0.00  0.00    +0.123 A 
ATOM     24  C   UNL     1       9.009  -1.853   9.327  0.00  0.00    +0.039 A 
ATOM     25  C   UNL     1       7.694  -1.478   9.503  0.00  0.00    +0.016 A 
ATOM     26  F   UNL     1      10.913  -2.044   7.931  0.00  0.00    -0.205 F 
ENDBRANCH  17  20
ENDBRANCH   1  16
BRANCH   1  27
ATOM     27  C   UNL     1       3.436   1.837   8.362  0.00  0.00    +0.012 C 
ATOM     28  C   UNL     1       4.081   1.838   9.749  0.00  0.00    +0.009 C 
ATOM     29  C   UNL     1       4.194   2.799   7.446  0.00  0.00    +0.009 C 
ENDBRANCH   1  27
TORSDOF 4
