REMARK  Name = ZINC05356642
REMARK  7 active torsions:
REMARK  status: ('A' for Active; 'I' for Inactive)
REMARK    1  A    between atoms: C_1  and  C_2
REMARK    2  A    between atoms: C_2  and  N_22
REMARK    3  A    between atoms: C_4  and  N_13
REMARK    4  A    between atoms: C_14  and  C_15
REMARK    5  A    between atoms: C_20  and  O_21
REMARK    6  A    between atoms: C_23  and  C_24
REMARK    7  A    between atoms: C_29  and  O_30
REMARK                            x       y       z     vdW  Elec       q    Type
REMARK                         _______ _______ _______ _____ _____    ______ ____
ROOT
ATOM      1  C   UNL     1      -0.004   1.512   0.036  0.00  0.00    +0.083 C 
ATOM      2  C   UNL     1       0.013  -0.018   0.015  0.00  0.00    +0.201 C 
ATOM      3  C   UNL     1      -1.425  -0.551   0.055  0.00  0.00    +0.102 C 
ATOM      4  C   UNL     1      -1.376  -2.075  -0.079  0.00  0.00    +0.118 C 
ATOM      5  C   UNL     1      -0.354  -2.636   0.877  0.00  0.00    +0.017 A 
ATOM      6  C   UNL     1      -0.407  -3.984   1.193  0.00  0.00    +0.009 A 
ATOM      7  C   UNL     1       0.516  -4.532   2.062  0.00  0.00    +0.001 A 
ATOM      8  C   UNL     1       1.498  -3.735   2.621  0.00  0.00    +0.004 A 
ATOM      9  C   UNL     1       1.554  -2.392   2.311  0.00  0.00    +0.046 A 
ATOM     10  C   UNL     1       0.625  -1.835   1.437  0.00  0.00    +0.129 A 
ATOM     11  O   UNL     1       0.707  -0.507   1.164  0.00  0.00    -0.465 OA
ENDROOT
BRANCH   4  12
ATOM     12  N   UNL     1      -2.694  -2.634   0.234  0.00  0.00    -0.383 N 
ATOM     13  C   UNL     1      -3.332  -3.323  -0.656  0.00  0.00    +0.090 C 
ATOM     14  H   UNL     1      -3.088  -2.488   1.108  0.00  0.00    +0.160 HD
BRANCH  13  15
ATOM     15  C   UNL     1      -4.606  -3.978  -0.307  0.00  0.00    +0.032 A 
ATOM     16  C   UNL     1      -5.239  -4.817  -1.227  0.00  0.00    +0.013 A 
ATOM     17  C   UNL     1      -6.430  -5.427  -0.895  0.00  0.00    +0.001 A 
ATOM     18  C   UNL     1      -7.002  -5.212   0.348  0.00  0.00    +0.004 A 
ATOM     19  C   UNL     1      -6.386  -4.384   1.267  0.00  0.00    +0.046 A 
ATOM     20  C   UNL     1      -5.185  -3.768   0.952  0.00  0.00    +0.125 A 
BRANCH  20  21
ATOM     21  O   UNL     1      -4.575  -2.960   1.856  0.00  0.00    -0.506 OA
ATOM     22  H   UNL     1      -4.843  -2.033   1.797  0.00  0.00    +0.292 HD
ENDBRANCH  20  21
ENDBRANCH  13  15
ENDBRANCH   4  12
BRANCH   2  23
ATOM     23  N   UNL     1       0.681  -0.487  -1.201  0.00  0.00    -0.246 NA
ATOM     24  C   UNL     1       1.912  -0.161  -1.430  0.00  0.00    +0.120 C 
BRANCH  24  25
ATOM     25  C   UNL     1       2.584  -0.633  -2.654  0.00  0.00    +0.034 A 
ATOM     26  C   UNL     1       3.915  -0.288  -2.903  0.00  0.00    +0.013 A 
ATOM     27  C   UNL     1       4.538  -0.733  -4.049  0.00  0.00    +0.001 A 
ATOM     28  C   UNL     1       3.850  -1.521  -4.957  0.00  0.00    +0.004 A 
ATOM     29  C   UNL     1       2.534  -1.869  -4.723  0.00  0.00    +0.046 A 
ATOM     30  C   UNL     1       1.894  -1.436  -3.572  0.00  0.00    +0.125 A 
BRANCH  30  31
ATOM     31  O   UNL     1       0.603  -1.783  -3.339  0.00  0.00    -0.506 OA
ATOM     32  H   UNL     1      -0.043  -1.160  -3.699  0.00  0.00    +0.292 HD
ENDBRANCH  30  31
ENDBRANCH  24  25
ENDBRANCH   2  23
TORSDOF 6
