REMARK  Name = ZINC65330790
REMARK  7 active torsions:
REMARK  status: ('A' for Active; 'I' for Inactive)
REMARK    1  A    between atoms: C_7  and  C_19
REMARK    2  A    between atoms: N_10  and  C_11
REMARK    3  A    between atoms: C_14  and  C_16
REMARK    4  A    between atoms: C_19  and  N_20
REMARK    5  A    between atoms: N_20  and  C_21
REMARK    6  A    between atoms: C_21  and  C_22
REMARK    7  A    between atoms: C_22  and  C_23
REMARK                            x       y       z     vdW  Elec       q    Type
REMARK                         _______ _______ _______ _____ _____    ______ ____
ROOT
ATOM      1  C   UNL     1      -0.016   1.378   0.030  0.00  0.00    +0.000 A 
ATOM      2  C   UNL     1       1.174   2.082   0.025  0.00  0.00    +0.002 A 
ATOM      3  C   UNL     1       2.377   1.411   0.003  0.00  0.00    +0.024 A 
ATOM      4  C   UNL     1       2.405   0.015  -0.014  0.00  0.00    +0.038 A 
ATOM      5  C   UNL     1       1.206  -0.682  -0.008  0.00  0.00    -0.023 A 
ATOM      6  C   UNL     1       0.002  -0.004   0.014  0.00  0.00    +0.006 A 
ATOM      7  C   UNL     1       1.510  -2.163  -0.029  0.00  0.00    +0.021 C 
ATOM      8  C   UNL     1       3.046  -2.241  -0.048  0.00  0.00    +0.117 C 
ATOM      9  N   UNL     1       3.502  -0.849  -0.037  0.00  0.00    -0.294 N 
ENDROOT
BRANCH   9  10
ATOM     10  C   UNL     1       4.826  -0.448  -0.049  0.00  0.00    +0.073 A 
ATOM     11  C   UNL     1       5.953  -1.240   0.030  0.00  0.00    +0.032 A 
ATOM     12  C   UNL     1       7.180  -0.638   0.001  0.00  0.00    +0.025 A 
ATOM     13  C   UNL     1       7.175   0.750  -0.109  0.00  0.00    +0.102 A 
ATOM     14  S   UNL     1       5.432   1.114  -0.171  0.00  0.00    -0.067 S 
BRANCH  13  15
ATOM     15  C   UNL     1       8.269   1.638  -0.163  0.00  0.00    +0.393 C 
ATOM     16  O   UNL     1       9.514   1.166  -0.107  0.00  0.00    -0.240 OA
ATOM     17  O   UNL     1       8.057   2.950  -0.269  0.00  0.00    -0.240 OA
ENDBRANCH  13  15
ENDBRANCH   9  10
BRANCH   7  18
ATOM     18  C   UNL     1       0.954  -2.840   1.225  0.00  0.00    -0.073 C 
BRANCH  18  19
ATOM     19  N   UNL     1      -0.514  -2.786   1.201  0.00  0.00    +0.380 N 
ATOM     20  H   UNL     1      -0.815  -1.823   1.177  0.00  0.00    -0.086 HD
ATOM     21  H   UNL     1      -0.854  -3.265   0.381  0.00  0.00    -0.086 HD
BRANCH  19  22
ATOM     22  C   UNL     1      -1.048  -3.436   2.405  0.00  0.00    -0.078 C 
BRANCH  22  23
ATOM     23  C   UNL     1      -2.576  -3.380   2.380  0.00  0.00    +0.014 C 
BRANCH  23  24
ATOM     24  C   UNL     1      -3.124  -4.047   3.615  0.00  0.00    -0.043 C 
ATOM     25  C   UNL     1      -3.487  -3.445   4.771  0.00  0.00    -0.001 A 
ATOM     26  C   UNL     1      -3.479  -2.044   5.207  0.00  0.00    +0.010 A 
ATOM     27  C   UNL     1      -3.912  -1.742   6.453  0.00  0.00    +0.001 A 
ATOM     28  C   UNL     1      -4.366  -2.732   7.335  0.00  0.00    +0.002 A 
ATOM     29  C   UNL     1      -4.403  -4.041   7.006  0.00  0.00    +0.026 A 
ATOM     30  C   UNL     1      -3.972  -4.471   5.721  0.00  0.00    +0.043 A 
ATOM     31  N   UNL     1      -3.911  -5.661   5.174  0.00  0.00    -0.380 N 
ATOM     32  C   UNL     1      -3.386  -5.523   3.811  0.00  0.00    +0.144 C 
ATOM     33  H   UNL     1      -4.173  -6.493   5.598  0.00  0.00    +0.160 HD
ENDBRANCH  23  24
ENDBRANCH  22  23
ENDBRANCH  19  22
ENDBRANCH  18  19
ENDBRANCH   7  18
TORSDOF 7
