REMARK  Name = ZINC63203320
REMARK  9 active torsions:
REMARK  status: ('A' for Active; 'I' for Inactive)
REMARK    1  A    between atoms: C_4  and  C_7
REMARK    2  A    between atoms: C_7  and  O_8
REMARK    3  A    between atoms: O_8  and  C_9
REMARK    4  A    between atoms: N_11  and  C_12
REMARK    5  A    between atoms: C_12  and  C_14
REMARK    6  A    between atoms: C_12  and  C_24
REMARK    7  A    between atoms: C_14  and  C_15
REMARK    8  A    between atoms: N_26  and  C_27
REMARK    9  A    between atoms: C_27  and  C_28
REMARK                            x       y       z     vdW  Elec       q    Type
REMARK                         _______ _______ _______ _____ _____    ______ ____
ROOT
ATOM      1  C   UNL     1       7.040  -2.566   2.880  0.00  0.00    +0.166 C 
ENDROOT
BRANCH   1   4
ATOM      2  C   UNL     1       5.308  -1.599   1.465  0.00  0.00    +0.401 C 
ATOM      3  O   UNL     1       5.944  -1.955   0.493  0.00  0.00    -0.226 OA
ATOM      4  N   UNL     1       5.770  -1.857   2.704  0.00  0.00    -0.270 N 
ATOM      5  H   UNL     1       5.263  -1.572   3.481  0.00  0.00    +0.153 HD
BRANCH   2   6
ATOM      6  O   UNL     1       4.141  -0.946   1.304  0.00  0.00    -0.446 OA
BRANCH   6   7
ATOM      7  C   UNL     1       3.711  -0.707  -0.038  0.00  0.00    +0.269 C 
BRANCH   7  11
ATOM      8  C   UNL     1      -0.017   1.378   0.010  0.00  0.00    +0.000 A 
ATOM      9  C   UNL     1       1.171   2.086   0.002  0.00  0.00    +0.000 A 
ATOM     10  C   UNL     1       2.377   1.411  -0.013  0.00  0.00    +0.007 A 
ATOM     11  C   UNL     1       2.396   0.029  -0.020  0.00  0.00    -0.010 A 
ATOM     12  C   UNL     1       1.208  -0.679  -0.012  0.00  0.00    +0.007 A 
ATOM     13  C   UNL     1       0.002  -0.004   0.002  0.00  0.00    +0.000 A 
ENDBRANCH   7  11
ENDBRANCH   6   7
ENDBRANCH   2   6
ENDBRANCH   1   4
BRANCH   1  14
ATOM     14  C   UNL     1       8.179  -1.582   2.816  0.00  0.00    +0.234 C 
ATOM     15  O   UNL     1       7.953  -0.403   2.641  0.00  0.00    -0.274 OA
ATOM     16  N   UNL     1       9.449  -2.011   2.952  0.00  0.00    -0.313 N 
ATOM     17  H   UNL     1       9.630  -2.954   3.092  0.00  0.00    +0.149 HD
BRANCH  16  18
ATOM     18  C   UNL     1      10.556  -1.054   2.890  0.00  0.00    +0.120 C 
BRANCH  18  19
ATOM     19  C   UNL     1      11.882  -1.796   3.073  0.00  0.00    +0.127 C 
ATOM     20 CL   UNL     1      13.245  -0.618   2.997  0.00  0.00    -0.124 Cl
ENDBRANCH  18  19
ENDBRANCH  16  18
ENDBRANCH   1  14
BRANCH   1  21
ATOM     21  C   UNL     1       7.048  -3.268   4.239  0.00  0.00    +0.065 C 
BRANCH  21  22
ATOM     22  C   UNL     1       5.987  -4.338   4.258  0.00  0.00    -0.039 C 
ATOM     23  C   UNL     1       6.153  -5.653   3.989  0.00  0.00    -0.001 A 
ATOM     24  C   UNL     1       7.326  -6.450   3.611  0.00  0.00    +0.010 A 
ATOM     25  C   UNL     1       7.177  -7.778   3.401  0.00  0.00    +0.001 A 
ATOM     26  C   UNL     1       5.934  -8.411   3.536  0.00  0.00    +0.002 A 
ATOM     27  C   UNL     1       4.811  -7.745   3.880  0.00  0.00    +0.026 A 
ATOM     28  C   UNL     1       4.851  -6.345   4.125  0.00  0.00    +0.043 A 
ATOM     29  N   UNL     1       3.917  -5.491   4.465  0.00  0.00    -0.380 N 
ATOM     30  C   UNL     1       4.522  -4.160   4.589  0.00  0.00    +0.144 C 
ATOM     31  H   UNL     1       2.982  -5.704   4.614  0.00  0.00    +0.160 HD
ENDBRANCH  21  22
ENDBRANCH   1  21
TORSDOF 9
