REMARK  Name = ZINC12602938
REMARK  5 active torsions:
REMARK  status: ('A' for Active; 'I' for Inactive)
REMARK    1  A    between atoms: C_1  and  O_2
REMARK    2  A    between atoms: O_2  and  C_3
REMARK    3  A    between atoms: C_3  and  C_5
REMARK    4  A    between atoms: C_21  and  C_33
REMARK    5  A    between atoms: C_24  and  N_27
REMARK                            x       y       z     vdW  Elec       q    Type
REMARK                         _______ _______ _______ _____ _____    ______ ____
ROOT
ATOM      1  C   UNL     1      -1.518   5.379  -0.180  0.00  0.00    +0.049 C 
ATOM      2  C   UNL     1      -2.488   6.062   0.794  0.00  0.00    +0.033 C 
ATOM      3  C   UNL     1      -2.167   5.587   2.188  0.00  0.00    -0.022 A 
ATOM      4  C   UNL     1      -2.570   6.143   3.461  0.00  0.00    +0.003 A 
ATOM      5  C   UNL     1      -3.351   7.248   3.811  0.00  0.00    +0.010 A 
ATOM      6  C   UNL     1      -3.528   7.485   5.151  0.00  0.00    +0.001 A 
ATOM      7  C   UNL     1      -2.966   6.673   6.123  0.00  0.00    +0.002 A 
ATOM      8  C   UNL     1      -2.190   5.572   5.806  0.00  0.00    +0.026 A 
ATOM      9  C   UNL     1      -1.992   5.307   4.452  0.00  0.00    +0.047 A 
ATOM     10  N   UNL     1      -1.296   4.327   3.804  0.00  0.00    -0.359 N 
ATOM     11  H   UNL     1      -0.762   3.558   4.381  0.00  0.00    +0.166 HD
ATOM     12  C   UNL     1      -1.403   4.501   2.451  0.00  0.00    +0.007 A 
ATOM     13  C   UNL     1      -0.791   3.650   1.366  0.00  0.00    -0.017 C 
ATOM     14  N   UNL     1      -1.478   3.939   0.099  0.00  0.00    +0.399 N 
ATOM     15  C   UNL     1      -0.877   3.186  -1.008  0.00  0.00    -0.031 C 
ATOM     16  C   UNL     1      -1.038   1.686  -0.746  0.00  0.00    +0.008 C 
ATOM     17  C   UNL     1      -0.361   1.324   0.579  0.00  0.00    +0.054 C 
ATOM     18  C   UNL     1      -0.964   2.168   1.706  0.00  0.00    +0.009 C 
ATOM     19  H   UNL     1      -2.522   3.607   0.198  0.00  0.00    -0.079 HD
ENDROOT
BRANCH  15  20
ATOM     20  C   UNL     1      -1.568   3.549  -2.297  0.00  0.00    -0.026 A 
ATOM     21  C   UNL     1      -0.822   3.825  -3.427  0.00  0.00    +0.005 A 
ATOM     22  C   UNL     1      -1.455   4.157  -4.610  0.00  0.00    +0.000 A 
ATOM     23  C   UNL     1      -2.836   4.214  -4.664  0.00  0.00    +0.003 A 
ATOM     24  C   UNL     1      -3.584   3.938  -3.536  0.00  0.00    +0.038 A 
ATOM     25  C   UNL     1      -2.950   3.600  -2.351  0.00  0.00    +0.125 A 
ATOM     26  F   UNL     1      -3.681   3.325  -1.249  0.00  0.00    -0.205 F 
ENDBRANCH  15  20
BRANCH  17  27
ATOM     27  N   UNL     1       1.080   1.593   0.482  0.00  0.00    -0.295 NA
ATOM     28  C   UNL     1       1.695   0.793  -0.587  0.00  0.00    +0.113 C 
ATOM     29  C   UNL     1       3.180   1.148  -0.692  0.00  0.00    +0.175 C 
ATOM     30  O   UNL     1       3.808   0.932   0.575  0.00  0.00    -0.377 OA
ATOM     31  C   UNL     1       3.234   1.697   1.639  0.00  0.00    +0.175 C 
ATOM     32  C   UNL     1       1.749   1.348   1.768  0.00  0.00    +0.113 C 
ENDBRANCH  17  27
BRANCH   1  33
ATOM     33  C   UNL     1      -0.140   5.963  -0.009  0.00  0.00    +0.294 C 
ATOM     34  O   UNL     1       0.815   5.232   0.114  0.00  0.00    -0.253 OA
BRANCH  33  36
ATOM     35  C   UNL     1       1.383   7.786   0.176  0.00  0.00    +0.280 C 
ATOM     36  O   UNL     1       0.028   7.294   0.007  0.00  0.00    -0.469 OA
ENDBRANCH  33  36
ENDBRANCH   1  33
TORSDOF 4
