REMARK  Name = ZINC28058099
REMARK  5 active torsions:
REMARK  status: ('A' for Active; 'I' for Inactive)
REMARK    1  A    between atoms: C_1  and  C_2
REMARK    2  A    between atoms: C_10  and  C_13
REMARK    3  A    between atoms: C_20  and  C_28
REMARK    4  A    between atoms: C_33  and  O_34
REMARK    5  A    between atoms: O_34  and  C_35
REMARK                            x       y       z     vdW  Elec       q    Type
REMARK                         _______ _______ _______ _____ _____    ______ ____
ROOT
ATOM      1  C   UNL     1       4.591  -2.188  -0.889  0.00  0.00    +0.044 C 
ATOM      2  C   UNL     1       4.287  -0.712  -0.851  0.00  0.00    -0.050 A 
ATOM      3  C   UNL     1       5.277   0.203  -1.161  0.00  0.00    +0.007 A 
ATOM      4  C   UNL     1       5.013   1.561  -1.129  0.00  0.00    +0.046 A 
ATOM      5  C   UNL     1       3.751   2.007  -0.786  0.00  0.00    +0.131 A 
ATOM      6  C   UNL     1       2.746   1.081  -0.475  0.00  0.00    +0.038 A 
ATOM      7  C   UNL     1       3.019  -0.280  -0.509  0.00  0.00    +0.016 A 
ATOM      8  C   UNL     1       1.403   1.594  -0.116  0.00  0.00    +0.050 C 
ATOM      9  C   UNL     1       1.283   2.879   0.223  0.00  0.00    +0.026 C 
ATOM     10  C   UNL     1       2.518   3.751   0.255  0.00  0.00    +0.234 C 
ATOM     11  O   UNL     1       3.454   3.331  -0.738  0.00  0.00    -0.479 OA
ATOM     12  C   UNL     1      -0.044   3.499   0.583  0.00  0.00    +0.177 C 
ATOM     13  N   UNL     1      -1.132   2.602   0.220  0.00  0.00    -0.201 N 
ATOM     14  C   UNL     1      -0.957   1.299  -0.126  0.00  0.00    +0.240 A 
ATOM     15  N   UNL     1      -2.132   0.801  -0.382  0.00  0.00    -0.092 NA
ATOM     16  N   UNL     1      -3.041   1.704  -0.234  0.00  0.00    -0.021 NA
ATOM     17  N   UNL     1      -2.506   2.826   0.138  0.00  0.00    -0.042 NA
ATOM     18  N   UNL     1       0.304   0.727  -0.159  0.00  0.00    -0.282 N 
ATOM     19  H   UNL     1       0.464  -0.360  -0.215  0.00  0.00    +0.155 HD
ENDROOT
BRANCH  10  20
ATOM     20  C   UNL     1       3.160   3.653   1.615  0.00  0.00    -0.003 A 
ATOM     21  C   UNL     1       3.055   4.706   2.505  0.00  0.00    +0.010 A 
ATOM     22  C   UNL     1       3.639   4.615   3.754  0.00  0.00    +0.039 A 
ATOM     23  C   UNL     1       4.338   3.475   4.110  0.00  0.00    +0.123 A 
ATOM     24  C   UNL     1       4.446   2.423   3.216  0.00  0.00    +0.039 A 
ATOM     25  C   UNL     1       3.857   2.513   1.969  0.00  0.00    +0.010 A 
ATOM     26  F   UNL     1       4.914   3.388   5.329  0.00  0.00    -0.205 F 
ENDBRANCH  10  20
BRANCH  12  27
ATOM     27  C   UNL     1      -0.087   3.761   2.067  0.00  0.00    +0.023 A 
ATOM     28  C   UNL     1       0.040   2.713   2.958  0.00  0.00    +0.009 A 
ATOM     29  C   UNL     1       0.006   2.954   4.319  0.00  0.00    +0.001 A 
ATOM     30  C   UNL     1      -0.167   4.242   4.792  0.00  0.00    +0.004 A 
ATOM     31  C   UNL     1      -0.301   5.292   3.905  0.00  0.00    +0.046 A 
ATOM     32  C   UNL     1      -0.261   5.054   2.538  0.00  0.00    +0.126 A 
BRANCH  32  33
ATOM     33  O   UNL     1      -0.393   6.086   1.664  0.00  0.00    -0.495 OA
ATOM     34  C   UNL     1      -0.568   7.390   2.221  0.00  0.00    +0.277 C 
ENDBRANCH  32  33
ENDBRANCH  12  27
TORSDOF 3
