REMARK  Name = ZINC21243415
REMARK  4 active torsions:
REMARK  status: ('A' for Active; 'I' for Inactive)
REMARK    1  A    between atoms: C_1  and  C_2
REMARK    2  A    between atoms: C_5  and  C_11
REMARK    3  A    between atoms: C_7  and  N_8
REMARK    4  A    between atoms: C_16  and  C_21
REMARK                            x       y       z     vdW  Elec       q    Type
REMARK                         _______ _______ _______ _____ _____    ______ ____
ROOT
ATOM      1  C   UNL     1      -1.141   5.779  -1.648  0.00  0.00    +0.136 C 
ATOM      2  C   UNL     1      -2.508   5.743  -2.288  0.00  0.00    +0.036 C 
ATOM      3  C   UNL     1      -3.488   4.867  -2.009  0.00  0.00    +0.017 C 
ATOM      4  C   UNL     1      -4.808   4.926  -2.759  0.00  0.00    +0.060 C 
ATOM      5  C   UNL     1      -5.144   6.377  -3.103  0.00  0.00    +0.039 C 
ATOM      6  C   UNL     1      -4.013   6.922  -3.983  0.00  0.00    +0.088 C 
ATOM      7  C   UNL     1      -2.714   6.758  -3.253  0.00  0.00    +0.163 C 
ATOM      8  O   UNL     1      -1.804   7.525  -3.499  0.00  0.00    -0.292 OA
ATOM      9  N   UNL     1      -3.405   3.879  -1.083  0.00  0.00    -0.316 N 
ATOM     10  C   UNL     1      -2.329   3.008  -0.949  0.00  0.00    +0.052 A 
ATOM     11  C   UNL     1      -2.450   1.646  -1.163  0.00  0.00    +0.025 A 
ATOM     12  C   UNL     1      -1.354   0.826  -0.950  0.00  0.00    +0.002 A 
ATOM     13  C   UNL     1      -0.149   1.364  -0.537  0.00  0.00    +0.002 A 
ATOM     14  C   UNL     1      -0.022   2.729  -0.343  0.00  0.00    +0.025 A 
ATOM     15  C   UNL     1      -1.113   3.553  -0.565  0.00  0.00    +0.049 A 
ATOM     16  N   UNL     1      -1.008   4.940  -0.475  0.00  0.00    -0.331 N 
ATOM     17  H   UNL     1      -4.227   3.723  -0.369  0.00  0.00    +0.152 HD
ATOM     18  H   UNL     1      -0.819   5.395   0.508  0.00  0.00    +0.147 HD
ENDROOT
BRANCH   1  23
ATOM     19  C   UNL     1       2.761   4.095  -5.563  0.00  0.00    +0.046 C 
ATOM     20  C   UNL     1       1.744   4.534  -4.542  0.00  0.00    -0.020 A 
ATOM     21  C   UNL     1       1.786   5.818  -4.031  0.00  0.00    +0.006 A 
ATOM     22  C   UNL     1       0.850   6.222  -3.099  0.00  0.00    +0.006 A 
ATOM     23  C   UNL     1      -0.123   5.339  -2.668  0.00  0.00    -0.021 A 
ATOM     24  C   UNL     1      -0.166   4.056  -3.179  0.00  0.00    +0.038 A 
ATOM     25  C   UNL     1       0.768   3.653  -4.115  0.00  0.00    +0.129 A 
BRANCH  25  26
ATOM     26  N   UNL     1       0.722   2.278  -4.662  0.00  0.00    +0.057 N 
ATOM     27  O   UNL     1       0.986   2.080  -5.835  0.00  0.00    -0.126 OA
ATOM     28  O   UNL     1       0.419   1.345  -3.940  0.00  0.00    -0.126 OA
ENDBRANCH  25  26
ENDBRANCH   1  23
BRANCH   5  29
ATOM     29  C   UNL     1      -6.449   6.435  -3.854  0.00  0.00    -0.006 A 
ATOM     30  C   UNL     1      -7.587   7.100  -3.537  0.00  0.00    +0.011 A 
ATOM     31  C   UNL     1      -8.675   7.009  -4.385  0.00  0.00    +0.008 A 
ATOM     32  C   UNL     1      -8.571   6.257  -5.508  0.00  0.00    +0.045 A 
ATOM     33  S   UNL     1      -6.895   5.652  -5.395  0.00  0.00    -0.101 S 
ENDBRANCH   5  29
TORSDOF 3
