REMARK  Name = ZINC06879901
REMARK  5 active torsions:
REMARK  status: ('A' for Active; 'I' for Inactive)
REMARK    1  A    between atoms: C_1  and  N_2
REMARK    2  A    between atoms: N_2  and  C_3
REMARK    3  A    between atoms: C_14  and  C_16
REMARK    4  A    between atoms: C_16  and  S_17
REMARK    5  A    between atoms: S_17  and  C_18
REMARK                            x       y       z     vdW  Elec       q    Type
REMARK                         _______ _______ _______ _____ _____    ______ ____
ROOT
ATOM      1  C   UNL     1      -0.199   1.633   2.539  0.00  0.00    +0.132 C 
ATOM      2  N   UNL     1      -0.711   1.990   1.214  0.00  0.00    -0.297 N 
ATOM      3  C   UNL     1      -1.819   2.749   1.102  0.00  0.00    +0.226 C 
ATOM      4  O   UNL     1      -2.243   3.045   0.005  0.00  0.00    -0.275 OA
ENDROOT
BRANCH   2   5
ATOM      5  C   UNL     1      -0.019   1.523   0.010  0.00  0.00    +0.106 C 
ATOM      6  C   UNL     1       0.002  -0.004   0.002  0.00  0.00    +0.027 C 
ATOM      7  C   UNL     1       0.911  -0.469  -1.142  0.00  0.00    +0.007 C 
ATOM      8  C   UNL     1       2.355  -0.131  -0.777  0.00  0.00    +0.035 C 
ATOM      9  C   UNL     1       2.474   1.313  -0.365  0.00  0.00    -0.042 A 
ATOM     10  C   UNL     1       1.384   2.072   0.000  0.00  0.00    -0.024 A 
ATOM     11  C   UNL     1       1.563   3.396   0.376  0.00  0.00    +0.006 A 
ATOM     12  C   UNL     1       2.823   3.959   0.383  0.00  0.00    +0.000 A 
ATOM     13  C   UNL     1       3.916   3.199   0.012  0.00  0.00    +0.000 A 
ATOM     14  C   UNL     1       3.741   1.882  -0.360  0.00  0.00    +0.004 A 
ENDBRANCH   2   5
BRANCH   3  15
ATOM     15  C   UNL     1      -2.532   3.230   2.340  0.00  0.00    +0.173 C 
BRANCH  15  16
ATOM     16  S   UNL     1      -3.971   4.217   1.863  0.00  0.00    -0.077 S 
BRANCH  16  17
ATOM     17  C   UNL     1      -4.597   4.636   3.456  0.00  0.00    +0.195 A 
ATOM     18  N   UNL     1      -3.978   4.200   4.549  0.00  0.00    -0.189 NA
ATOM     19  C   UNL     1      -4.447   4.520   5.751  0.00  0.00    +0.218 A 
ATOM     20  N   UNL     1      -5.541   5.268   5.860  0.00  0.00    -0.181 NA
ATOM     21  C   UNL     1      -6.163   5.700   4.767  0.00  0.00    +0.218 A 
ATOM     22  N   UNL     1      -5.691   5.385   3.565  0.00  0.00    -0.189 NA
ATOM     23  N   UNL     1      -7.298   6.476   4.880  0.00  0.00    -0.327 N 
ATOM     24  N   UNL     1      -3.802   4.072   6.886  0.00  0.00    -0.327 N 
ATOM     25  H   UNL     1      -7.752   6.791   4.083  0.00  0.00    +0.145 HD
ATOM     26  H   UNL     1      -7.643   6.707   5.758  0.00  0.00    +0.145 HD
ATOM     27  H   UNL     1      -4.147   4.302   7.763  0.00  0.00    +0.145 HD
ATOM     28  H   UNL     1      -3.004   3.526   6.806  0.00  0.00    +0.145 HD
ENDBRANCH  16  17
ENDBRANCH  15  16
ENDBRANCH   3  15
TORSDOF 4
