REMARK  Name = ZINC59383110
REMARK  8 active torsions:
REMARK  status: ('A' for Active; 'I' for Inactive)
REMARK    1  A    between atoms: C_1  and  C_2
REMARK    2  A    between atoms: C_2  and  C_34
REMARK    3  A    between atoms: C_23  and  C_30
REMARK    4  A    between atoms: C_24  and  C_26
REMARK    5  A    between atoms: C_26  and  O_28
REMARK    6  A    between atoms: O_28  and  C_29
REMARK    7  A    between atoms: C_30  and  O_32
REMARK    8  A    between atoms: O_32  and  C_33
REMARK                            x       y       z     vdW  Elec       q    Type
REMARK                         _______ _______ _______ _____ _____    ______ ____
ROOT
ATOM      1  C   UNL     1       0.038   1.488   0.098  0.00  0.00    +0.037 C 
ATOM      2  C   UNL     1       0.061  -0.036   0.078  0.00  0.00    +0.065 C 
ATOM      3  C   UNL     1       0.844  -0.561  -1.130  0.00  0.00    +0.055 C 
ATOM      4  N   UNL     1       0.219  -1.297  -1.922  0.00  0.00    -0.250 NA
ATOM      5  C   UNL     1       0.449  -2.083  -2.985  0.00  0.00    +0.105 A 
ATOM      6  C   UNL     1      -0.635  -2.496  -3.772  0.00  0.00    +0.031 A 
ATOM      7  C   UNL     1      -0.438  -3.359  -4.827  0.00  0.00    +0.002 A 
ATOM      8  C   UNL     1       0.836  -3.822  -5.108  0.00  0.00    +0.004 A 
ATOM      9  C   UNL     1       1.908  -3.393  -4.355  0.00  0.00    +0.048 A 
ATOM     10  C   UNL     1       1.730  -2.495  -3.305  0.00  0.00    +0.149 A 
ATOM     11  O   UNL     1       2.842  -2.095  -2.663  0.00  0.00    -0.462 OA
ATOM     12  C   UNL     1       3.099  -0.766  -2.293  0.00  0.00    +0.224 C 
ATOM     13  C   UNL     1       2.273  -0.144  -1.214  0.00  0.00    +0.133 C 
ATOM     14  C   UNL     1       2.902  -0.070   0.145  0.00  0.00    -0.012 A 
ATOM     15  C   UNL     1       4.192   0.404   0.310  0.00  0.00    +0.006 A 
ATOM     16  C   UNL     1       4.814   0.373   1.543  0.00  0.00    +0.000 A 
ATOM     17  C   UNL     1       4.125  -0.063   2.660  0.00  0.00    +0.002 A 
ATOM     18  C   UNL     1       2.800  -0.421   2.535  0.00  0.00    +0.023 A 
ATOM     19  C   UNL     1       2.177  -0.380   1.293  0.00  0.00    +0.032 A 
ATOM     20  N   UNL     1       0.789  -0.560   1.244  0.00  0.00    -0.333 N 
ATOM     21  S   UNL     1       4.902  -0.582  -1.994  0.00  0.00    -0.058 S 
ATOM     22  C   UNL     1       5.545  -0.193  -3.595  0.00  0.00    +0.117 C 
ATOM     23  C   UNL     1       4.608   0.226  -4.475  0.00  0.00    +0.117 C 
ATOM     24  S   UNL     1       2.971   0.286  -3.807  0.00  0.00    -0.058 S 
ATOM     25  C   UNL     1      -1.364  -0.590   0.062  0.00  0.00    +0.037 C 
ATOM     26  H   UNL     1       0.321  -1.015   1.954  0.00  0.00    +0.147 HD
ENDROOT
BRANCH  23  27
ATOM     27  C   UNL     1       4.920   0.598  -5.862  0.00  0.00    +0.347 C 
ATOM     28  O   UNL     1       4.803  -0.222  -6.752  0.00  0.00    -0.244 OA
BRANCH  27  29
ATOM     29  O   UNL     1       5.337   1.848  -6.147  0.00  0.00    -0.464 OA
ATOM     30  C   UNL     1       5.623   2.141  -7.516  0.00  0.00    +0.280 C 
ENDBRANCH  27  29
ENDBRANCH  23  27
BRANCH  22  31
ATOM     31  C   UNL     1       6.969  -0.313  -3.938  0.00  0.00    +0.347 C 
ATOM     32  O   UNL     1       7.337  -0.123  -5.081  0.00  0.00    -0.244 OA
BRANCH  31  33
ATOM     33  O   UNL     1       7.868  -0.633  -2.986  0.00  0.00    -0.464 OA
ATOM     34  C   UNL     1       9.235  -0.732  -3.390  0.00  0.00    +0.280 C 
ENDBRANCH  31  33
ENDBRANCH  22  31
TORSDOF 4
