REMARK  Name = ZINC57478466
REMARK  9 active torsions:
REMARK  status: ('A' for Active; 'I' for Inactive)
REMARK    1  A    between atoms: C_1  and  C_2
REMARK    2  A    between atoms: C_2  and  C_3
REMARK    3  A    between atoms: C_6  and  C_9
REMARK    4  A    between atoms: C_11  and  C_30
REMARK    5  A    between atoms: C_12  and  C_17
REMARK    6  A    between atoms: C_17  and  N_18
REMARK    7  A    between atoms: C_30  and  O_32
REMARK    8  A    between atoms: O_32  and  C_33
REMARK    9  A    between atoms: C_33  and  C_34
REMARK                            x       y       z     vdW  Elec       q    Type
REMARK                         _______ _______ _______ _____ _____    ______ ____
ROOT
ATOM      1  C   UNL     1       2.888  -1.877   4.730  0.00  0.00    +0.144 C 
ATOM      2  C   UNL     1       3.073  -0.638   5.583  0.00  0.00    +0.079 C 
ATOM      3  C   UNL     1       2.563  -0.654   6.833  0.00  0.00    +0.038 C 
ATOM      4  N   UNL     1       1.904  -1.750   7.311  0.00  0.00    -0.271 N 
ATOM      5  C   UNL     1       1.712  -2.870   6.602  0.00  0.00    +0.304 C 
ATOM      6  O   UNL     1       1.112  -3.795   7.114  0.00  0.00    -0.252 OA
ATOM      7  N   UNL     1       2.162  -3.003   5.339  0.00  0.00    -0.288 N 
ATOM      8  H   UNL     1       1.555  -1.716   8.216  0.00  0.00    +0.156 HD
ATOM      9  H   UNL     1       2.011  -3.823   4.843  0.00  0.00    +0.151 HD
ENDROOT
BRANCH   1  13
ATOM     10  C   UNL     1       0.803  -0.735   1.181  0.00  0.00    -0.048 A 
ATOM     11  C   UNL     1       2.182  -0.827   1.173  0.00  0.00    +0.004 A 
ATOM     12  C   UNL     1       2.857  -1.197   2.321  0.00  0.00    +0.006 A 
ATOM     13  C   UNL     1       2.153  -1.473   3.478  0.00  0.00    -0.022 A 
ATOM     14  C   UNL     1       0.773  -1.379   3.486  0.00  0.00    +0.006 A 
ATOM     15  C   UNL     1       0.099  -1.006   2.339  0.00  0.00    +0.004 A 
BRANCH  10  17
ATOM     16  C   UNL     1      -0.080   1.190  -0.109  0.00  0.00    +0.009 C 
ATOM     17  C   UNL     1       0.067  -0.332  -0.071  0.00  0.00    +0.032 C 
ENDBRANCH  10  17
ENDBRANCH   1  13
BRANCH   2  18
ATOM     18  C   UNL     1       3.756   0.497   5.086  0.00  0.00    +0.339 C 
ATOM     19  O   UNL     1       3.182   1.281   4.355  0.00  0.00    -0.245 OA
BRANCH  18  20
ATOM     20  O   UNL     1       5.046   0.709   5.424  0.00  0.00    -0.462 OA
BRANCH  20  21
ATOM     21  C   UNL     1       5.674   1.875   4.886  0.00  0.00    +0.229 C 
ATOM     22  C   UNL     1       7.122   1.946   5.376  0.00  0.00    +0.048 C 
ENDBRANCH  20  21
ENDBRANCH  18  20
ENDBRANCH   2  18
BRANCH   3  23
ATOM     23  C   UNL     1       2.725   0.557   7.716  0.00  0.00    +0.136 C 
BRANCH  23  24
ATOM     24  N   UNL     1       1.404   1.128   8.011  0.00  0.00    -0.294 NA
ATOM     25  C   UNL     1       0.774   1.655   6.793  0.00  0.00    +0.103 C 
ATOM     26  C   UNL     1      -0.666   2.074   7.107  0.00  0.00    +0.122 C 
ATOM     27  N   UNL     1      -0.644   3.002   8.248  0.00  0.00    -0.314 N 
ATOM     28  C   UNL     1       0.087   2.599   9.459  0.00  0.00    +0.122 C 
ATOM     29  C   UNL     1       1.497   2.159   9.052  0.00  0.00    +0.103 C 
ATOM     30  C   UNL     1      -1.298   4.227   8.184  0.00  0.00    +0.099 A 
ATOM     31  C   UNL     1      -2.097   4.525   7.085  0.00  0.00    +0.042 A 
ATOM     32  C   UNL     1      -2.742   5.748   7.034  0.00  0.00    +0.005 A 
ATOM     33  C   UNL     1      -2.565   6.635   8.088  0.00  0.00    +0.018 A 
ATOM     34  C   UNL     1      -1.757   6.274   9.147  0.00  0.00    +0.084 A 
ATOM     35  N   UNL     1      -1.159   5.098   9.171  0.00  0.00    -0.350 N 
ATOM     36  H   UNL     1      -0.600   4.867   9.930  0.00  0.00    +0.166 HD
ENDBRANCH  23  24
ENDBRANCH   3  23
TORSDOF 7
