REMARK  Name = ZINC12490861
REMARK  10 active torsions:
REMARK  status: ('A' for Active; 'I' for Inactive)
REMARK    1  A    between atoms: C_1  and  O_2
REMARK    2  A    between atoms: O_2  and  C_3
REMARK    3  A    between atoms: C_3  and  C_5
REMARK    4  A    between atoms: C_5  and  C_6
REMARK    5  A    between atoms: C_6  and  N_7
REMARK    6  A    between atoms: N_7  and  C_8
REMARK    7  A    between atoms: C_14  and  C_16
REMARK    8  A    between atoms: N_19  and  S_22
REMARK    9  A    between atoms: S_22  and  C_25
REMARK   10  A    between atoms: C_28  and  N_31
REMARK                            x       y       z     vdW  Elec       q    Type
REMARK                         _______ _______ _______ _____ _____    ______ ____
ROOT
ATOM      1  C   UNL     1       0.144   1.562  -0.019  0.00  0.00    +0.078 C 
ATOM      2  C   UNL     1      -0.863   2.176   0.956  0.00  0.00    +0.030 C 
ATOM      3  C   UNL     1      -0.708   3.700   0.951  0.00  0.00    +0.110 C 
ATOM      4  N   UNL     1      -0.834   4.184  -0.431  0.00  0.00    -0.177 NA
ATOM      5  C   UNL     1       0.026   3.594  -1.466  0.00  0.00    +0.110 C 
ATOM      6  C   UNL     1      -0.137   2.071  -1.434  0.00  0.00    +0.030 C 
ENDROOT
BRANCH   1   8
ATOM      7  N   UNL     1       0.677  -0.654   0.942  0.00  0.00    -0.298 N 
ATOM      8  C   UNL     1       0.018   0.061   0.009  0.00  0.00    +0.219 C 
ATOM      9  O   UNL     1      -0.676  -0.505  -0.809  0.00  0.00    -0.275 OA
BRANCH   7  10
ATOM     10  C   UNL     1       0.682  -2.118   0.876  0.00  0.00    +0.076 C 
ATOM     11  C   UNL     1       1.260  -2.566  -0.468  0.00  0.00    +0.022 C 
ATOM     12  C   UNL     1       1.265  -4.094  -0.537  0.00  0.00    +0.002 C 
ATOM     13  C   UNL     1      -0.167  -4.615  -0.398  0.00  0.00    +0.000 C 
ATOM     14  C   UNL     1      -0.745  -4.167   0.946  0.00  0.00    +0.002 C 
ATOM     15  C   UNL     1      -0.750  -2.639   1.015  0.00  0.00    +0.022 C 
ENDBRANCH   7  10
BRANCH   7  16
ATOM     16  C   UNL     1       1.389   0.033   2.023  0.00  0.00    +0.119 C 
BRANCH  16  17
ATOM     17  C   UNL     1       0.517   0.045   3.280  0.00  0.00    +0.139 C 
BRANCH  17  18
ATOM     18  C   UNL     1       1.185   0.877   4.346  0.00  0.00    +0.308 C 
ATOM     19  O   UNL     1       2.248   1.405   4.122  0.00  0.00    -0.251 OA
BRANCH  18  21
ATOM     20  C   UNL     1       1.297   1.845   6.520  0.00  0.00    +0.280 C 
ATOM     21  O   UNL     1       0.597   1.031   5.543  0.00  0.00    -0.468 OA
ENDBRANCH  18  21
ENDBRANCH  17  18
ENDBRANCH  16  17
ENDBRANCH   7  16
ENDBRANCH   1   8
BRANCH   4  22
ATOM     22  S   UNL     1      -1.923   5.371  -0.814  0.00  0.00    +0.061 S 
ATOM     23  O   UNL     1      -2.169   6.098   0.382  0.00  0.00    -0.153 OA
ATOM     24  O   UNL     1      -1.445   5.994  -1.999  0.00  0.00    -0.153 OA
BRANCH  22  25
ATOM     25  C   UNL     1      -3.435   4.573  -1.239  0.00  0.00    +0.106 A 
ATOM     26  C   UNL     1      -3.682   4.216  -2.552  0.00  0.00    +0.030 A 
ATOM     27  C   UNL     1      -4.864   3.586  -2.887  0.00  0.00    +0.030 A 
ATOM     28  C   UNL     1      -5.810   3.321  -1.906  0.00  0.00    +0.069 A 
ATOM     29  C   UNL     1      -5.562   3.686  -0.590  0.00  0.00    +0.030 A 
ATOM     30  C   UNL     1      -4.376   4.311  -0.260  0.00  0.00    +0.030 A 
BRANCH  28  31
ATOM     31  N   UNL     1      -7.014   2.685  -2.244  0.00  0.00    -0.200 N 
ATOM     32  C   UNL     1      -7.406   2.269  -3.468  0.00  0.00    +0.250 A 
ATOM     33  N   UNL     1      -8.591   1.732  -3.334  0.00  0.00    -0.116 NA
ATOM     34  N   UNL     1      -8.974   1.779  -2.109  0.00  0.00    -0.023 NA
ATOM     35  N   UNL     1      -8.069   2.339  -1.381  0.00  0.00    -0.039 NA
ENDBRANCH  28  31
ENDBRANCH  22  25
ENDBRANCH   4  22
TORSDOF 9
