REMARK  Name = ZINC41017527
REMARK  4 active torsions:
REMARK  status: ('A' for Active; 'I' for Inactive)
REMARK    1  A    between atoms: C_3  and  N_13
REMARK    2  A    between atoms: C_6  and  C_7
REMARK    3  A    between atoms: N_13  and  S_14
REMARK    4  A    between atoms: S_14  and  C_17
REMARK                            x       y       z     vdW  Elec       q    Type
REMARK                         _______ _______ _______ _____ _____    ______ ____
ROOT
ATOM      1  C   UNL     1      -0.017   1.391   0.010  0.00  0.00    +0.012 A 
ATOM      2  C   UNL     1       1.168   2.095   0.002  0.00  0.00    +0.027 A 
ATOM      3  C   UNL     1       2.381   1.417  -0.013  0.00  0.00    +0.074 A 
ATOM      4  C   UNL     1       2.403   0.026  -0.021  0.00  0.00    +0.027 A 
ATOM      5  C   UNL     1       1.222  -0.683  -0.013  0.00  0.00    +0.012 A 
ATOM      6  C   UNL     1       0.002  -0.004   0.002  0.00  0.00    -0.000 A 
ENDROOT
BRANCH   6   7
ATOM      7  C   UNL     1      -1.268  -0.762   0.011  0.00  0.00    +0.066 A 
ATOM      8  C   UNL     1      -1.399  -2.123   0.005  0.00  0.00    +0.049 A 
ATOM      9  C   UNL     1      -2.762  -2.421   0.017  0.00  0.00    +0.135 A 
ATOM     10  N   UNL     1      -3.435  -1.298   0.030  0.00  0.00    -0.182 NA
ATOM     11  H   UNL     1      -2.748   0.710   0.044  0.00  0.00    +0.189 HD
ATOM     12  N   UNL     1      -2.524  -0.234   0.032  0.00  0.00    -0.277 N 
ENDBRANCH   6   7
BRANCH   3  13
ATOM     13  N   UNL     1       3.580   2.132  -0.021  0.00  0.00    -0.097 NA
BRANCH  13  14
ATOM     14  S   UNL     1       5.026   1.325  -0.039  0.00  0.00    +0.098 S 
ATOM     15  O   UNL     1       5.124   0.640   1.202  0.00  0.00    -0.148 OA
ATOM     16  O   UNL     1       5.100   0.653  -1.289  0.00  0.00    -0.148 OA
BRANCH  14  17
ATOM     17  C   UNL     1       6.301   2.541  -0.046  0.00  0.00    +0.149 A 
ATOM     18  C   UNL     1       6.932   3.121   1.004  0.00  0.00    +0.038 A 
ATOM     19  C   UNL     1       7.914   4.063   0.759  0.00  0.00    +0.025 A 
ATOM     20  C   UNL     1       8.216   4.379  -0.525  0.00  0.00    +0.057 A 
ATOM     21  S   UNL     1       7.101   3.324  -1.437  0.00  0.00    -0.061 S 
ATOM     22 BR   UNL     1       9.492   5.611  -1.180  0.00  0.00    -0.043 Br
ENDBRANCH  14  17
ENDBRANCH  13  14
ENDBRANCH   3  13
TORSDOF 4
