REMARK  Name = ZINC24609536
REMARK  8 active torsions:
REMARK  status: ('A' for Active; 'I' for Inactive)
REMARK    1  A    between atoms: C_4  and  N_7
REMARK    2  A    between atoms: C_8  and  N_21
REMARK    3  A    between atoms: C_10  and  C_12
REMARK    4  A    between atoms: C_22  and  C_24
REMARK    5  A    between atoms: C_24  and  S_25
REMARK    6  A    between atoms: S_25  and  C_26
REMARK    7  A    between atoms: C_29  and  C_32
REMARK    8  A    between atoms: N_30  and  N_31
REMARK                            x       y       z     vdW  Elec       q    Type
REMARK                         _______ _______ _______ _____ _____    ______ ____
ROOT
ATOM      1  N   UNL     1      -5.264   4.935   9.281  0.00  0.00    -0.218 N 
ATOM      2  C   UNL     1      -4.769   5.185   8.037  0.00  0.00    +0.129 A 
ATOM      3  C   UNL     1      -5.010   6.491   7.753  0.00  0.00    +0.074 A 
ATOM      4  C   UNL     1      -5.680   7.056   8.855  0.00  0.00    +0.095 A 
ATOM      5  N   UNL     1      -5.828   6.120   9.769  0.00  0.00    -0.165 NA
ENDROOT
BRANCH   4   6
ATOM      6  C   UNL     1      -6.136   8.463   8.968  0.00  0.00    +0.002 A 
ATOM      7  C   UNL     1      -5.912   9.358   7.923  0.00  0.00    +0.010 A 
ATOM      8  C   UNL     1      -6.343  10.663   8.034  0.00  0.00    +0.004 A 
ATOM      9  C   UNL     1      -6.989  11.093   9.183  0.00  0.00    -0.044 A 
ATOM     10  C   UNL     1      -7.210  10.210  10.225  0.00  0.00    -0.044 A 
ATOM     11  C   UNL     1      -6.785   8.898  10.120  0.00  0.00    +0.014 A 
ATOM     12  C   UNL     1      -7.927  10.919  11.354  0.00  0.00    +0.036 C 
ATOM     13  C   UNL     1      -7.731  12.424  11.074  0.00  0.00    +0.009 C 
ATOM     14  C   UNL     1      -7.543  12.455   9.542  0.00  0.00    +0.036 C 
ENDBRANCH   4   6
BRANCH   1  18
ATOM     15  C   UNL     1      -5.129   1.282  11.284  0.00  0.00    +0.000 A 
ATOM     16  C   UNL     1      -5.010   2.463  11.994  0.00  0.00    +0.002 A 
ATOM     17  C   UNL     1      -5.054   3.675  11.333  0.00  0.00    +0.028 A 
ATOM     18  C   UNL     1      -5.218   3.707   9.954  0.00  0.00    +0.067 A 
ATOM     19  C   UNL     1      -5.343   2.519   9.245  0.00  0.00    +0.028 A 
ATOM     20  C   UNL     1      -5.292   1.310   9.911  0.00  0.00    +0.002 A 
ENDBRANCH   1  18
BRANCH   2  21
ATOM     21  N   UNL     1      -4.126   4.266   7.208  0.00  0.00    -0.270 N 
ATOM     22  C   UNL     1      -3.684   4.650   5.994  0.00  0.00    +0.229 C 
ATOM     23  O   UNL     1      -3.844   5.794   5.623  0.00  0.00    -0.275 OA
ATOM     24  H   UNL     1      -3.981   3.229   7.544  0.00  0.00    +0.156 HD
BRANCH  22  25
ATOM     25  C   UNL     1      -2.989   3.658   5.097  0.00  0.00    +0.173 C 
BRANCH  25  26
ATOM     26  S   UNL     1      -2.518   4.470   3.550  0.00  0.00    -0.075 S 
BRANCH  26  27
ATOM     27  C   UNL     1      -1.749   3.120   2.718  0.00  0.00    +0.209 A 
ATOM     28  N   UNL     1      -1.606   1.899   3.178  0.00  0.00    -0.121 NA
ATOM     29  N   UNL     1      -1.005   1.171   2.305  0.00  0.00    -0.123 NA
ATOM     30  C   UNL     1      -0.722   1.881   1.250  0.00  0.00    +0.255 A 
ATOM     31  N   UNL     1      -1.189   3.147   1.473  0.00  0.00    -0.220 N 
BRANCH  30  32
ATOM     32  C   UNL     1      -0.017   1.395   0.010  0.00  0.00    +0.454 C 
ATOM     33  F   UNL     1       0.002  -0.004   0.002  0.00  0.00    -0.163 F 
ATOM     34  F   UNL     1       1.296   1.879  -0.000  0.00  0.00    -0.163 F 
ATOM     35  F   UNL     1      -0.694   1.858  -1.124  0.00  0.00    -0.163 F 
ENDBRANCH  30  32
BRANCH  31  36
ATOM     36  N   UNL     1      -1.111   4.216   0.626  0.00  0.00    -0.295 N 
ATOM     37  H   UNL     1      -0.631   4.105  -0.357  0.00  0.00    +0.163 HD
ATOM     38  H   UNL     1      -1.528   5.188   0.928  0.00  0.00    +0.163 HD
ENDBRANCH  31  36
ENDBRANCH  26  27
ENDBRANCH  25  26
ENDBRANCH  22  25
ENDBRANCH   2  21
TORSDOF 8
