REMARK  Name = ZINC63140043
REMARK  12 active torsions:
REMARK  status: ('A' for Active; 'I' for Inactive)
REMARK    1  A    between atoms: C_1  and  C_2
REMARK    2  A    between atoms: C_2  and  N_3
REMARK    3  A    between atoms: N_3  and  C_4
REMARK    4  A    between atoms: N_3  and  C_6
REMARK    5  A    between atoms: C_4  and  C_5
REMARK    6  A    between atoms: C_6  and  C_7
REMARK    7  A    between atoms: C_7  and  C_8
REMARK    8  A    between atoms: C_8  and  N_9
REMARK    9  A    between atoms: C_29  and  C_31
REMARK   10  A    between atoms: C_34  and  C_37
REMARK   11  A    between atoms: C_37  and  C_38
REMARK   12  A    between atoms: C_37  and  C_39
REMARK                            x       y       z     vdW  Elec       q    Type
REMARK                         _______ _______ _______ _____ _____    ______ ____
ROOT
ATOM      1  N   UNL     1      -5.354  -4.343   1.446  0.00  0.00    -0.291 N 
ATOM      2  C   UNL     1      -6.131  -4.105   2.651  0.00  0.00    +0.203 C 
ATOM      3  C   UNL     1      -7.565  -4.481   2.481  0.00  0.00    +0.234 C 
ATOM      4  O   UNL     1      -8.305  -4.324   3.430  0.00  0.00    -0.274 OA
ATOM      5  N   UNL     1      -8.094  -4.978   1.357  0.00  0.00    -0.279 N 
ATOM      6  C   UNL     1      -7.309  -5.194   0.145  0.00  0.00    +0.167 C 
ATOM      7  C   UNL     1      -5.873  -4.824   0.317  0.00  0.00    +0.237 C 
ATOM      8  O   UNL     1      -5.130  -4.976  -0.630  0.00  0.00    -0.274 OA
ATOM      9  C   UNL     1      -7.911  -4.388  -1.020  0.00  0.00    +0.065 C 
ATOM     10  C   UNL     1      -9.400  -4.626  -0.984  0.00  0.00    -0.034 C 
ATOM     11  C   UNL     1     -10.254  -5.009  -1.925  0.00  0.00    -0.001 A 
ATOM     12  C   UNL     1     -10.084  -5.233  -3.370  0.00  0.00    +0.010 A 
ATOM     13  C   UNL     1     -11.187  -5.652  -4.046  0.00  0.00    +0.001 A 
ATOM     14  C   UNL     1     -12.427  -5.867  -3.436  0.00  0.00    +0.002 A 
ATOM     15  C   UNL     1     -12.676  -5.677  -2.116  0.00  0.00    +0.026 A 
ATOM     16  C   UNL     1     -11.595  -5.229  -1.302  0.00  0.00    +0.043 A 
ATOM     17  N   UNL     1     -11.558  -4.947  -0.033  0.00  0.00    -0.375 N 
ATOM     18  C   UNL     1     -10.217  -4.460   0.292  0.00  0.00    +0.131 C 
ATOM     19  C   UNL     1      -9.535  -5.318   1.362  0.00  0.00    +0.133 C 
ATOM     20  H   UNL     1     -12.294  -5.044   0.591  0.00  0.00    +0.160 HD
ENDROOT
BRANCH  19  21
ATOM     21  C   UNL     1      -9.717  -6.778   1.038  0.00  0.00    -0.025 A 
ATOM     22  C   UNL     1      -9.245  -7.285  -0.158  0.00  0.00    +0.006 A 
ATOM     23  C   UNL     1      -9.412  -8.625  -0.455  0.00  0.00    +0.004 A 
ATOM     24  C   UNL     1     -10.051  -9.458   0.445  0.00  0.00    -0.045 A 
ATOM     25  C   UNL     1     -10.523  -8.951   1.641  0.00  0.00    +0.004 A 
ATOM     26  C   UNL     1     -10.352  -7.612   1.940  0.00  0.00    +0.006 A 
BRANCH  24  27
ATOM     27  C   UNL     1     -10.234 -10.918   0.121  0.00  0.00    +0.013 C 
ATOM     28  C   UNL     1      -9.534 -11.768   1.184  0.00  0.00    +0.012 C 
ATOM     29  C   UNL     1     -11.727 -11.253   0.102  0.00  0.00    +0.012 C 
ENDBRANCH  24  27
ENDBRANCH  19  21
BRANCH   1  30
ATOM     30  C   UNL     1      -3.923  -4.030   1.472  0.00  0.00    +0.106 C 
BRANCH  30  31
ATOM     31  C   UNL     1      -3.710  -2.579   1.039  0.00  0.00    +0.000 C 
BRANCH  31  32
ATOM     32  C   UNL     1      -2.215  -2.252   1.066  0.00  0.00    -0.077 C 
BRANCH  32  33
ATOM     33  N   UNL     1      -1.999  -0.902   0.529  0.00  0.00    +0.379 N 
ATOM     34  H   UNL     1      -2.420  -0.832  -0.385  0.00  0.00    -0.082 HD
BRANCH  33  36
ATOM     35  C   UNL     1      -2.496   1.480   0.808  0.00  0.00    -0.017 C 
ATOM     36  C   UNL     1      -2.612   0.086   1.427  0.00  0.00    -0.082 C 
ENDBRANCH  33  36
BRANCH  33  37
ATOM     37  C   UNL     1      -0.557  -0.641   0.426  0.00  0.00    -0.082 C 
ATOM     38  C   UNL     1       0.055  -1.569  -0.626  0.00  0.00    -0.017 C 
ENDBRANCH  33  37
ENDBRANCH  32  33
ENDBRANCH  31  32
ENDBRANCH  30  31
ENDBRANCH   1  30
TORSDOF 8
