REMARK  Name = ZINC14991338
REMARK  12 active torsions:
REMARK  status: ('A' for Active; 'I' for Inactive)
REMARK    1  A    between atoms: C_1  and  C_2
REMARK    2  A    between atoms: C_5  and  C_35
REMARK    3  A    between atoms: C_6  and  C_8
REMARK    4  A    between atoms: C_13  and  C_16
REMARK    5  A    between atoms: C_16  and  C_27
REMARK    6  A    between atoms: N_19  and  C_23
REMARK    7  A    between atoms: C_23  and  C_24
REMARK    8  A    between atoms: C_24  and  N_74
REMARK    9  A    between atoms: C_25  and  N_74
REMARK   10  A    between atoms: C_26  and  N_74
REMARK   11  A    between atoms: C_27  and  C_28
REMARK   12  A    between atoms: C_28  and  C_29
REMARK                            x       y       z     vdW  Elec       q    Type
REMARK                         _______ _______ _______ _____ _____    ______ ____
ROOT
ATOM      1  C   UNL     1      -1.363  -5.615   2.575  0.00  0.00    +0.116 C 
ATOM      2  C   UNL     1      -1.801  -4.843   3.803  0.00  0.00    +0.247 C 
ATOM      3  O   UNL     1      -1.214  -3.929   4.341  0.00  0.00    -0.273 OA
ATOM      4  N   UNL     1      -2.978  -5.384   4.173  0.00  0.00    -0.226 N 
ATOM      5  C   UNL     1      -3.341  -6.380   3.357  0.00  0.00    +0.309 C 
ATOM      6  O   UNL     1      -4.365  -7.021   3.488  0.00  0.00    -0.252 OA
ATOM      7  N   UNL     1      -2.446  -6.593   2.376  0.00  0.00    -0.285 N 
ATOM      8  H   UNL     1      -2.503  -7.261   1.675  0.00  0.00    +0.151 HD
ENDROOT
BRANCH   1  14
ATOM      9  C   UNL     1      -1.241  -0.807   0.009  0.00  0.00    +0.247 C 
ATOM     10  O   UNL     1      -2.312  -0.237  -0.062  0.00  0.00    -0.270 OA
ATOM     11  N   UNL     1      -1.198  -2.150   0.110  0.00  0.00    -0.297 N 
ATOM     12  C   UNL     1       0.080  -2.845   0.317  0.00  0.00    +0.108 C 
ATOM     13  C   UNL     1      -0.051  -3.751   1.550  0.00  0.00    +0.025 C 
ATOM     14  C   UNL     1      -1.250  -4.684   1.365  0.00  0.00    +0.024 C 
ATOM     15  C   UNL     1      -2.530  -3.854   1.240  0.00  0.00    +0.025 C 
ATOM     16  C   UNL     1      -2.428  -2.948   0.009  0.00  0.00    +0.108 C 
BRANCH   9  22
ATOM     17  C   UNL     1       3.313  -0.018  -1.872  0.00  0.00    +0.044 C 
ATOM     18  C   UNL     1       2.207   0.357  -0.919  0.00  0.00    -0.050 A 
ATOM     19  C   UNL     1       2.367   1.433  -0.065  0.00  0.00    +0.003 A 
ATOM     20  C   UNL     1       1.357   1.784   0.813  0.00  0.00    +0.004 A 
ATOM     21  C   UNL     1       0.182   1.060   0.842  0.00  0.00    -0.038 A 
ATOM     22  C   UNL     1       0.015  -0.027  -0.017  0.00  0.00    +0.040 A 
ATOM     23  C   UNL     1       1.038  -0.375  -0.901  0.00  0.00    +0.016 A 
ATOM     24  C   UNL     1      -0.920   1.447   1.794  0.00  0.00    +0.044 C 
ENDBRANCH   9  22
ENDBRANCH   1  14
BRANCH   4  25
ATOM     25  C   UNL     1      -3.763  -4.937   5.326  0.00  0.00    +0.099 C 
BRANCH  25  26
ATOM     26  C   UNL     1      -3.339  -5.724   6.568  0.00  0.00    -0.060 C 
BRANCH  26  29
ATOM     27  C   UNL     1      -3.920  -6.162   8.877  0.00  0.00    -0.097 C 
ATOM     28  C   UNL     1      -3.811  -3.883   8.068  0.00  0.00    -0.097 C 
ATOM     29  N   UNL     1      -4.154  -5.277   7.717  0.00  0.00    +0.377 N 
ATOM     30  H   UNL     1      -5.147  -5.320   7.459  0.00  0.00    -0.083 HD
ENDBRANCH  26  29
ENDBRANCH  25  26
ENDBRANCH   4  25
BRANCH   1  31
ATOM     31  C   UNL     1      -0.033  -6.328   2.829  0.00  0.00    +0.040 C 
BRANCH  31  32
ATOM     32  C   UNL     1      -0.206  -7.342   3.961  0.00  0.00    +0.038 C 
BRANCH  32  33
ATOM     33  C   UNL     1       1.103  -8.044   4.211  0.00  0.00    -0.047 A 
ATOM     34  C   UNL     1       1.403  -9.210   3.532  0.00  0.00    +0.003 A 
ATOM     35  C   UNL     1       2.607  -9.851   3.758  0.00  0.00    +0.000 A 
ATOM     36  C   UNL     1       3.506  -9.333   4.671  0.00  0.00    +0.000 A 
ATOM     37  C   UNL     1       3.203  -8.170   5.354  0.00  0.00    +0.000 A 
ATOM     38  C   UNL     1       2.002  -7.526   5.125  0.00  0.00    +0.003 A 
ENDBRANCH  32  33
ENDBRANCH  31  32
ENDBRANCH   1  31
TORSDOF 8
