REMARK  Name = ZINC50397306
REMARK  3 active torsions:
REMARK  status: ('A' for Active; 'I' for Inactive)
REMARK    1  A    between atoms: C_3  and  N_9
REMARK    2  A    between atoms: C_6  and  N_7
REMARK    3  A    between atoms: N_9  and  C_10
REMARK                            x       y       z     vdW  Elec       q    Type
REMARK                         _______ _______ _______ _____ _____    ______ ____
ROOT
ATOM      1  C   UNL     1      -0.017   1.384   0.010  0.00  0.00    +0.024 A 
ATOM      2  C   UNL     1       1.170   2.091   0.002  0.00  0.00    +0.026 A 
ATOM      3  C   UNL     1       2.381   1.414  -0.013  0.00  0.00    +0.042 A 
ATOM      4  C   UNL     1       2.401   0.025  -0.021  0.00  0.00    +0.040 A 
ATOM      5  C   UNL     1       1.214  -0.682  -0.013  0.00  0.00    +0.039 A 
ATOM      6  C   UNL     1       0.002  -0.004   0.002  0.00  0.00    +0.026 A 
ATOM      7 BR   UNL     1       4.051  -0.898  -0.043  0.00  0.00    -0.048 Br
ENDROOT
BRANCH   6   8
ATOM      8  N   UNL     1      -1.201  -0.720   0.010  0.00  0.00    -0.358 N 
ATOM      9  H   UNL     1      -2.047  -0.247   0.020  0.00  0.00    +0.142 HD
ATOM     10  H   UNL     1      -1.188  -1.690   0.004  0.00  0.00    +0.142 HD
ENDBRANCH   6   8
BRANCH   3  11
ATOM     11  N   UNL     1       3.584   2.131  -0.022  0.00  0.00    -0.332 N 
ATOM     12  H   UNL     1       4.431   1.658  -0.033  0.00  0.00    +0.147 HD
BRANCH  11  13
ATOM     13  C   UNL     1       3.564   3.596  -0.015  0.00  0.00    +0.157 C 
ATOM     14  C   UNL     1       4.870   4.120   0.589  0.00  0.00    +0.033 C 
ATOM     15  C   UNL     1       4.948   5.630   0.338  0.00  0.00    +0.021 C 
ATOM     16  C   UNL     1       5.112   5.869  -1.164  0.00  0.00    +0.104 C 
ATOM     17  N   UNL     1       4.100   5.133  -1.911  0.00  0.00    -0.314 N 
ATOM     18  C   UNL     1       3.415   4.100  -1.421  0.00  0.00    +0.233 C 
ATOM     19  O   UNL     1       2.627   3.538  -2.152  0.00  0.00    -0.274 OA
ATOM     20  H   UNL     1       3.915   5.412  -2.821  0.00  0.00    +0.149 HD
ENDBRANCH  11  13
ENDBRANCH   3  11
TORSDOF 3
