REMARK  Name = ZINC37822305
REMARK  5 active torsions:
REMARK  status: ('A' for Active; 'I' for Inactive)
REMARK    1  A    between atoms: C_6  and  C_7
REMARK    2  A    between atoms: C_7  and  N_8
REMARK    3  A    between atoms: N_8  and  C_9
REMARK    4  A    between atoms: C_9  and  C_10
REMARK    5  A    between atoms: C_13  and  C_15
REMARK                            x       y       z     vdW  Elec       q    Type
REMARK                         _______ _______ _______ _____ _____    ______ ____
ROOT
ATOM      1  N   UNL     1      -1.402  -0.774  -1.515  0.00  0.00    -0.290 N 
ATOM      2  C   UNL     1      -2.511  -0.212  -2.035  0.00  0.00    +0.202 C 
ATOM      3  O   UNL     1      -3.119   0.626  -1.404  0.00  0.00    -0.277 OA
ENDROOT
BRANCH   2   4
ATOM      4  C   UNL     1      -2.994  -0.624  -3.402  0.00  0.00    +0.016 C 
ATOM      5  C   UNL     1      -3.897  -1.852  -3.274  0.00  0.00    -0.007 C 
ATOM      6  C   UNL     1      -4.386  -2.267  -4.665  0.00  0.00    -0.003 C 
ATOM      7  C   UNL     1      -5.106  -1.083  -5.316  0.00  0.00    -0.019 C 
ATOM      8  C   UNL     1      -4.157   0.117  -5.369  0.00  0.00    -0.082 C 
ATOM      9  N   UNL     1      -3.748   0.481  -4.007  0.00  0.00    +0.387 N 
ATOM     10  H   UNL     1      -4.567   0.673  -3.450  0.00  0.00    -0.085 HD
ATOM     11  H   UNL     1      -3.166   1.305  -4.041  0.00  0.00    -0.085 HD
ENDBRANCH   2   4
BRANCH   1  12
ATOM     12  C   UNL     1      -0.997  -0.462  -0.142  0.00  0.00    +0.143 C 
BRANCH  12  18
ATOM     13  C   UNL     1      -0.609   2.008  -0.036  0.00  0.00    +0.006 A 
ATOM     14  C   UNL     1       0.231   3.107  -0.042  0.00  0.00    +0.015 A 
ATOM     15  C   UNL     1       1.598   2.931  -0.159  0.00  0.00    +0.018 A 
ATOM     16  C   UNL     1       2.124   1.657  -0.270  0.00  0.00    +0.015 A 
ATOM     17  C   UNL     1       1.284   0.559  -0.265  0.00  0.00    +0.006 A 
ATOM     18  C   UNL     1      -0.082   0.735  -0.148  0.00  0.00    -0.030 A 
ATOM     19 BR   UNL     1       2.747   4.433  -0.167  0.00  0.00    -0.050 Br
ENDBRANCH  12  18
ENDBRANCH   1  12
BRANCH   1  20
ATOM     20  C   UNL     1      -0.601  -1.698  -2.322  0.00  0.00    +0.203 C 
BRANCH  20  21
ATOM     21  C   UNL     1      -1.024  -3.115  -2.031  0.00  0.00    +0.228 C 
ATOM     22  O   UNL     1      -1.907  -3.332  -1.228  0.00  0.00    -0.274 OA
ATOM     23  N   UNL     1      -0.420  -4.141  -2.663  0.00  0.00    -0.328 N 
ATOM     24  H   UNL     1       0.286  -3.968  -3.305  0.00  0.00    +0.145 HD
ATOM     25  H   UNL     1      -0.692  -5.053  -2.476  0.00  0.00    +0.145 HD
ENDBRANCH  20  21
ENDBRANCH   1  20
TORSDOF 5
