REMARK  Name = ZINC14165112
REMARK  8 active torsions:
REMARK  status: ('A' for Active; 'I' for Inactive)
REMARK    1  A    between atoms: C_1  and  C_2
REMARK    2  A    between atoms: C_2  and  S_3
REMARK    3  A    between atoms: S_3  and  C_4
REMARK    4  A    between atoms: C_9  and  C_21
REMARK    5  A    between atoms: C_15  and  C_20
REMARK    6  A    between atoms: C_24  and  O_29
REMARK    7  A    between atoms: C_25  and  O_27
REMARK    8  A    between atoms: O_27  and  C_28
REMARK                            x       y       z     vdW  Elec       q    Type
REMARK                         _______ _______ _______ _____ _____    ______ ____
ROOT
ATOM      1  C   UNL     1      -1.702  -0.454   0.016  0.00  0.00    +0.210 A 
ATOM      2  N   UNL     1      -2.733   0.403   0.036  0.00  0.00    -0.187 NA
ATOM      3  C   UNL     1      -3.854  -0.264   0.039  0.00  0.00    +0.219 A 
ATOM      4  N   UNL     1      -3.558  -1.587   0.025  0.00  0.00    -0.220 N 
ATOM      5  N   UNL     1      -2.167  -1.684   0.014  0.00  0.00    -0.141 NA
ATOM      6  C   UNL     1      -4.570  -2.636   0.021  0.00  0.00    +0.176 C 
ATOM      7  C   UNL     1      -5.922  -2.054   0.369  0.00  0.00    +0.041 C 
ATOM      8  C   UNL     1      -6.152  -0.723   0.370  0.00  0.00    +0.020 C 
ATOM      9  N   UNL     1      -5.165   0.182   0.062  0.00  0.00    -0.287 N 
ATOM     10  C   UNL     1      -7.513  -0.171   0.722  0.00  0.00    +0.055 C 
ATOM     11  C   UNL     1      -8.597  -1.168   0.305  0.00  0.00    -0.001 C 
ATOM     12  C   UNL     1      -8.334  -2.494   1.026  0.00  0.00    +0.083 C 
ATOM     13  C   UNL     1      -6.945  -2.963   0.693  0.00  0.00    +0.163 C 
ATOM     14  O   UNL     1      -6.701  -4.154   0.703  0.00  0.00    -0.292 OA
ATOM     15  C   UNL     1      -9.973  -0.629   0.702  0.00  0.00    +0.008 C 
ATOM     16  H   UNL     1      -5.381   1.108  -0.134  0.00  0.00    +0.155 HD
ENDROOT
BRANCH   6  17
ATOM     17  C   UNL     1      -4.633  -3.264  -1.347  0.00  0.00    -0.015 A 
ATOM     18  C   UNL     1      -4.947  -2.489  -2.448  0.00  0.00    +0.010 A 
ATOM     19  C   UNL     1      -5.005  -3.060  -3.706  0.00  0.00    +0.049 A 
ATOM     20  C   UNL     1      -4.748  -4.412  -3.865  0.00  0.00    +0.158 A 
ATOM     21  C   UNL     1      -4.433  -5.193  -2.757  0.00  0.00    +0.162 A 
ATOM     22  C   UNL     1      -4.370  -4.613  -1.500  0.00  0.00    +0.055 A 
BRANCH  21  23
ATOM     23  O   UNL     1      -4.180  -6.520  -2.908  0.00  0.00    -0.491 OA
ATOM     24  C   UNL     1      -3.862  -7.259  -1.727  0.00  0.00    +0.277 C 
ENDBRANCH  21  23
BRANCH  20  25
ATOM     25  O   UNL     1      -4.805  -4.976  -5.101  0.00  0.00    -0.503 OA
ATOM     26  H   UNL     1      -3.964  -4.962  -5.579  0.00  0.00    +0.292 HD
ENDBRANCH  20  25
ENDBRANCH   6  17
BRANCH   1  27
ATOM     27  S   UNL     1       0.002  -0.004   0.002  0.00  0.00    -0.085 S 
BRANCH  27  29
ATOM     28  C   UNL     1       1.413   2.339   0.001  0.00  0.00    +0.016 C 
ATOM     29  C   UNL     1      -0.022   1.810   0.012  0.00  0.00    +0.074 C 
ENDBRANCH  27  29
ENDBRANCH   1  27
TORSDOF 5
