REMARK  Name = ZINC36660289
REMARK  13 active torsions:
REMARK  status: ('A' for Active; 'I' for Inactive)
REMARK    1  A    between atoms: C_1  and  C_2
REMARK    2  A    between atoms: C_2  and  N_3
REMARK    3  A    between atoms: N_3  and  C_4
REMARK    4  A    between atoms: N_3  and  C_6
REMARK    5  A    between atoms: C_4  and  C_5
REMARK    6  A    between atoms: C_6  and  C_7
REMARK    7  A    between atoms: C_7  and  N_8
REMARK    8  A    between atoms: C_12  and  O_18
REMARK    9  A    between atoms: O_18  and  C_19
REMARK   10  A    between atoms: C_20  and  C_22
REMARK   11  A    between atoms: N_27  and  S_28
REMARK   12  A    between atoms: S_28  and  C_31
REMARK   13  A    between atoms: C_34  and  C_37
REMARK                            x       y       z     vdW  Elec       q    Type
REMARK                         _______ _______ _______ _____ _____    ______ ____
ROOT
ATOM      1  N   UNL     1       1.204  -4.165   1.930  0.00  0.00    -0.251 N 
ATOM      2  C   UNL     1       2.169  -4.923   1.284  0.00  0.00    +0.168 A 
ATOM      3  N   UNL     1       2.225  -6.225   1.129  0.00  0.00    -0.221 NA
ATOM      4  C   UNL     1       3.235  -6.834   0.470  0.00  0.00    +0.122 A 
ATOM      5  C   UNL     1       3.415  -8.221   0.233  0.00  0.00    +0.146 A 
ATOM      6  C   UNL     1       4.511  -8.677  -0.461  0.00  0.00    +0.048 A 
ATOM      7  C   UNL     1       5.471  -7.804  -0.951  0.00  0.00    +0.005 A 
ATOM      8  C   UNL     1       5.325  -6.446  -0.738  0.00  0.00    +0.017 A 
ATOM      9  C   UNL     1       4.234  -5.979  -0.045  0.00  0.00    +0.044 A 
ATOM     10  S   UNL     1       3.649  -4.375   0.445  0.00  0.00    -0.052 S 
ATOM     11  C   UNL     1       0.148  -4.770   2.509  0.00  0.00    +0.240 C 
ATOM     12  O   UNL     1      -0.739  -4.104   2.999  0.00  0.00    -0.273 OA
ENDROOT
BRANCH  11  13
ATOM     13  C   UNL     1       0.069  -6.275   2.547  0.00  0.00    +0.166 C 
ATOM     14  C   UNL     1       0.978  -6.820   3.669  0.00  0.00    +0.031 C 
ATOM     15  C   UNL     1      -0.013  -7.036   4.844  0.00  0.00    +0.019 C 
ATOM     16  C   UNL     1      -1.289  -7.494   4.095  0.00  0.00    +0.110 C 
ATOM     17  N   UNL     1      -1.306  -6.696   2.851  0.00  0.00    -0.165 NA
BRANCH  17  18
ATOM     18  S   UNL     1      -2.648  -6.333   1.951  0.00  0.00    +0.062 S 
ATOM     19  O   UNL     1      -3.762  -6.420   2.829  0.00  0.00    -0.153 OA
ATOM     20  O   UNL     1      -2.342  -5.152   1.224  0.00  0.00    -0.153 OA
BRANCH  18  21
ATOM     21  C   UNL     1      -2.842  -7.620   0.763  0.00  0.00    +0.106 A 
ATOM     22  C   UNL     1      -2.231  -7.518  -0.473  0.00  0.00    +0.029 A 
ATOM     23  C   UNL     1      -2.382  -8.527  -1.405  0.00  0.00    +0.005 A 
ATOM     24  C   UNL     1      -3.145  -9.639  -1.101  0.00  0.00    -0.050 A 
ATOM     25  C   UNL     1      -3.756  -9.742   0.135  0.00  0.00    +0.005 A 
ATOM     26  C   UNL     1      -3.600  -8.735   1.069  0.00  0.00    +0.029 A 
ATOM     27  C   UNL     1      -3.311 -10.739  -2.117  0.00  0.00    +0.044 C 
ENDBRANCH  18  21
ENDBRANCH  17  18
ENDBRANCH  11  13
BRANCH   5  28
ATOM     28  O   UNL     1       2.495  -9.108   0.697  0.00  0.00    -0.493 OA
ATOM     29  C   UNL     1       2.733 -10.491   0.426  0.00  0.00    +0.277 C 
ENDBRANCH   5  28
BRANCH   1  30
ATOM     30  C   UNL     1       1.332  -2.707   1.983  0.00  0.00    +0.097 C 
BRANCH  30  31
ATOM     31  C   UNL     1       0.544  -2.083   0.829  0.00  0.00    -0.059 C 
BRANCH  31  32
ATOM     32  N   UNL     1       0.573  -0.620   0.951  0.00  0.00    +0.380 N 
ATOM     33  H   UNL     1       0.238  -0.352   1.864  0.00  0.00    -0.082 HD
BRANCH  32  35
ATOM     34  C   UNL     1       2.001   1.368   1.024  0.00  0.00    -0.017 C 
ATOM     35  C   UNL     1       1.950  -0.140   0.773  0.00  0.00    -0.082 C 
ENDBRANCH  32  35
BRANCH  32  36
ATOM     36  C   UNL     1      -0.289  -0.026  -0.080  0.00  0.00    -0.082 C 
ATOM     37  C   UNL     1      -1.746  -0.404   0.193  0.00  0.00    -0.017 C 
ENDBRANCH  32  36
ENDBRANCH  31  32
ENDBRANCH  30  31
ENDBRANCH   1  30
TORSDOF 9
