REMARK  Name = ZINC38734881
REMARK  8 active torsions:
REMARK  status: ('A' for Active; 'I' for Inactive)
REMARK    1  A    between atoms: C_1  and  C_2
REMARK    2  A    between atoms: C_7  and  C_8
REMARK    3  A    between atoms: C_7  and  C_9
REMARK    4  A    between atoms: C_11  and  N_13
REMARK    5  A    between atoms: C_14  and  C_16
REMARK    6  A    between atoms: C_19  and  C_22
REMARK    7  A    between atoms: C_22  and  S_23
REMARK    8  A    between atoms: S_23  and  C_24
REMARK                            x       y       z     vdW  Elec       q    Type
REMARK                         _______ _______ _______ _____ _____    ______ ____
ROOT
ATOM      1  C   UNL     1      -3.949  -0.955  -2.737  0.00  0.00    +0.037 A 
ATOM      2  C   UNL     1      -3.157  -0.808  -3.877  0.00  0.00    +0.013 A 
ATOM      3  C   UNL     1      -3.740  -0.842  -5.127  0.00  0.00    +0.005 A 
ATOM      4  C   UNL     1      -5.106  -1.022  -5.252  0.00  0.00    -0.037 A 
ATOM      5  C   UNL     1      -5.897  -1.168  -4.126  0.00  0.00    +0.005 A 
ATOM      6  C   UNL     1      -5.326  -1.142  -2.870  0.00  0.00    +0.013 A 
ENDROOT
BRANCH   1   8
ATOM      7  N   UNL     1      -2.002  -0.740  -1.268  0.00  0.00    -0.308 N 
ATOM      8  C   UNL     1      -3.331  -0.920  -1.394  0.00  0.00    +0.244 C 
ATOM      9  O   UNL     1      -4.023  -1.054  -0.403  0.00  0.00    -0.270 OA
ATOM     10  H   UNL     1      -1.450  -0.633  -2.059  0.00  0.00    +0.149 HD
BRANCH   7  20
ATOM     11  C   UNL     1      -2.708   1.218   1.256  0.00  0.00    +0.013 C 
ATOM     12  C   UNL     1      -1.395   0.749   0.625  0.00  0.00    -0.008 C 
ATOM     13  C   UNL     1      -0.838   1.637  -0.530  0.00  0.00    +0.009 C 
ATOM     14  C   UNL     1       0.661   1.270  -0.618  0.00  0.00    +0.005 C 
ATOM     15  C   UNL     1       0.869   0.194   0.492  0.00  0.00    -0.003 C 
ATOM     16  C   UNL     1      -0.148   0.696   1.577  0.00  0.00    -0.025 C 
ATOM     17  C   UNL     1       0.223   2.080   2.114  0.00  0.00    +0.012 C 
ATOM     18  C   UNL     1      -0.331  -0.320   2.706  0.00  0.00    +0.012 C 
ATOM     19  C   UNL     1       0.139  -1.073  -0.051  0.00  0.00    +0.027 C 
ATOM     20  C   UNL     1      -1.389  -0.705   0.062  0.00  0.00    +0.080 C 
ENDBRANCH   7  20
ENDBRANCH   1   8
BRANCH   4  21
ATOM     21  C   UNL     1      -5.736  -1.057  -6.621  0.00  0.00    +0.112 C 
BRANCH  21  22
ATOM     22  S   UNL     1      -5.760  -2.766  -7.230  0.00  0.00    -0.081 S 
BRANCH  22  23
ATOM     23  C   UNL     1      -6.515  -2.641  -8.817  0.00  0.00    +0.196 A 
ATOM     24  N   UNL     1      -6.942  -1.539  -9.392  0.00  0.00    -0.122 NA
ATOM     25  N   UNL     1      -7.440  -1.803 -10.549  0.00  0.00    -0.129 NA
ATOM     26  C   UNL     1      -7.360  -3.100 -10.782  0.00  0.00    +0.162 A 
ATOM     27  N   UNL     1      -6.760  -3.669  -9.679  0.00  0.00    -0.278 N 
ATOM     28  C   UNL     1      -6.535  -5.017  -9.632  0.00  0.00    +0.095 A 
ATOM     29  C   UNL     1      -6.894  -5.806 -10.665  0.00  0.00    +0.018 A 
ATOM     30  C   UNL     1      -7.505  -5.253 -11.805  0.00  0.00    +0.005 A 
ATOM     31  C   UNL     1      -7.744  -3.917 -11.865  0.00  0.00    +0.049 A 
ENDBRANCH  22  23
ENDBRANCH  21  22
ENDBRANCH   4  21
TORSDOF 5
