REMARK  Name = ZINC00210890
REMARK  5 active torsions:
REMARK  status: ('A' for Active; 'I' for Inactive)
REMARK    1  A    between atoms: C_1  and  O_2
REMARK    2  A    between atoms: O_2  and  C_3
REMARK    3  A    between atoms: C_8  and  C_9
REMARK    4  A    between atoms: C_22  and  N_26
REMARK    5  A    between atoms: C_23  and  C_24
REMARK                            x       y       z     vdW  Elec       q    Type
REMARK                         _______ _______ _______ _____ _____    ______ ____
ROOT
ATOM      1  C   UNL     1       0.002  -0.004   0.002  0.00  0.00    +0.101 C 
ATOM      2  C   UNL     1       0.713  -0.500   1.235  0.00  0.00    +0.008 A 
ATOM      3  C   UNL     1       0.040  -0.479   2.457  0.00  0.00    +0.009 A 
ATOM      4  C   UNL     1       0.634  -0.913   3.601  0.00  0.00    +0.009 A 
ATOM      5  C   UNL     1       1.953  -1.396   3.560  0.00  0.00    -0.014 A 
ATOM      6  C   UNL     1       2.600  -1.853   4.721  0.00  0.00    +0.008 A 
ATOM      7  C   UNL     1       3.878  -2.314   4.641  0.00  0.00    +0.001 A 
ATOM      8  C   UNL     1       4.556  -2.341   3.424  0.00  0.00    +0.001 A 
ATOM      9  C   UNL     1       3.960  -1.906   2.280  0.00  0.00    +0.012 A 
ATOM     10  C   UNL     1       2.642  -1.423   2.324  0.00  0.00    +0.025 A 
ATOM     11  C   UNL     1       1.995  -0.963   1.156  0.00  0.00    +0.142 A 
ATOM     12  O   UNL     1       2.661  -0.989  -0.023  0.00  0.00    -0.440 OA
ATOM     13  C   UNL     1       1.980  -0.945  -1.181  0.00  0.00    +0.199 C 
ATOM     14  C   UNL     1       0.706  -0.485  -1.235  0.00  0.00    +0.098 C 
ENDROOT
BRANCH   1  20
ATOM     15  C   UNL     1      -1.229   2.180   0.020  0.00  0.00    +0.124 A 
ATOM     16  C   UNL     1      -1.244   3.568   0.033  0.00  0.00    +0.046 A 
ATOM     17  C   UNL     1      -0.055   4.271   0.025  0.00  0.00    +0.004 A 
ATOM     18  C   UNL     1       1.150   3.593   0.010  0.00  0.00    +0.001 A 
ATOM     19  C   UNL     1       1.168   2.210   0.003  0.00  0.00    +0.008 A 
ATOM     20  C   UNL     1      -0.018   1.503   0.010  0.00  0.00    +0.007 A 
BRANCH  15  22
ATOM     21  C   UNL     1      -3.605   2.251   0.031  0.00  0.00    +0.277 C 
ATOM     22  O   UNL     1      -2.397   1.487   0.021  0.00  0.00    -0.495 OA
ENDBRANCH  15  22
ENDBRANCH   1  20
BRANCH  13  23
ATOM     23  N   UNL     1       2.588  -1.375  -2.334  0.00  0.00    -0.328 N 
ATOM     24  H   UNL     1       2.106  -1.347  -3.175  0.00  0.00    +0.145 HD
ATOM     25  H   UNL     1       3.499  -1.706  -2.307  0.00  0.00    +0.145 HD
ENDBRANCH  13  23
BRANCH  14  26
ATOM     26  C   UNL     1       0.020  -0.457  -2.492  0.00  0.00    +0.101 C 
ATOM     27  N   UNL     1      -0.524  -0.434  -3.489  0.00  0.00    -0.191 NA
ENDBRANCH  14  26
TORSDOF 4
