REMARK  Name = ZINC09174341
REMARK  8 active torsions:
REMARK  status: ('A' for Active; 'I' for Inactive)
REMARK    1  A    between atoms: C_1  and  N_51
REMARK    2  A    between atoms: C_2  and  N_51
REMARK    3  A    between atoms: C_3  and  C_4
REMARK    4  A    between atoms: C_3  and  N_51
REMARK    5  A    between atoms: C_4  and  N_5
REMARK    6  A    between atoms: C_6  and  C_24
REMARK    7  A    between atoms: C_9  and  C_10
REMARK    8  A    between atoms: C_9  and  O_19
REMARK                            x       y       z     vdW  Elec       q    Type
REMARK                         _______ _______ _______ _____ _____    ______ ____
ROOT
ATOM      1  N   UNL     1       0.311   0.706   4.557  0.00  0.00    -0.285 N 
ATOM      2  C   UNL     1       0.956   1.597   5.525  0.00  0.00    +0.145 C 
ATOM      3  C   UNL     1       1.389   0.732   6.686  0.00  0.00    +0.074 C 
ATOM      4  C   UNL     1       2.043   1.148   7.835  0.00  0.00    +0.168 C 
ATOM      5  C   UNL     1       0.999  -0.575   6.366  0.00  0.00    +0.249 C 
ATOM      6  O   UNL     1       1.175  -1.562   7.058  0.00  0.00    -0.282 OA
ATOM      7  C   UNL     1       0.328  -0.548   5.040  0.00  0.00    +0.288 C 
ATOM      8  O   UNL     1      -0.135  -1.518   4.475  0.00  0.00    -0.266 OA
ENDROOT
BRANCH   4   9
ATOM      9  C   UNL     1       2.291   0.198   8.919  0.00  0.00    +0.171 A 
ATOM     10  C   UNL     1       3.483   0.025   9.556  0.00  0.00    +0.061 A 
ATOM     11  C   UNL     1       3.284  -0.984  10.532  0.00  0.00    +0.021 A 
ATOM     12  C   UNL     1       4.115  -1.589  11.482  0.00  0.00    +0.011 A 
ATOM     13  C   UNL     1       3.613  -2.559  12.302  0.00  0.00    +0.001 A 
ATOM     14  C   UNL     1       2.285  -2.950  12.200  0.00  0.00    +0.004 A 
ATOM     15  C   UNL     1       1.449  -2.367  11.271  0.00  0.00    +0.047 A 
ATOM     16  C   UNL     1       1.937  -1.378  10.426  0.00  0.00    +0.136 A 
ATOM     17  O   UNL     1       1.373  -0.640   9.448  0.00  0.00    -0.452 OA
ENDBRANCH   4   9
BRANCH   2  18
ATOM     18  C   UNL     1       2.155   2.260   4.898  0.00  0.00    -0.021 A 
ATOM     19  C   UNL     1       2.422   3.592   5.157  0.00  0.00    +0.006 A 
ATOM     20  C   UNL     1       3.523   4.200   4.582  0.00  0.00    +0.001 A 
ATOM     21  C   UNL     1       4.355   3.478   3.748  0.00  0.00    +0.015 A 
ATOM     22  C   UNL     1       4.088   2.146   3.488  0.00  0.00    +0.018 A 
ATOM     23  C   UNL     1       2.990   1.536   4.068  0.00  0.00    +0.021 A 
ATOM     24 BR   UNL     1       5.226   1.157   2.348  0.00  0.00    -0.050 Br
ENDBRANCH   2  18
BRANCH   4  25
ATOM     25  O   UNL     1       2.450   2.431   7.954  0.00  0.00    -0.503 OA
ATOM     26  H   UNL     1       2.900   2.557   8.838  0.00  0.00    +0.292 HD
ENDBRANCH   4  25
BRANCH   1  27
ATOM     27  C   UNL     1      -0.265   1.116   3.273  0.00  0.00    +0.090 C 
BRANCH  27  28
ATOM     28  C   UNL     1       0.807   1.036   2.185  0.00  0.00    -0.060 C 
BRANCH  28  31
ATOM     29  C   UNL     1       1.153   1.160  -0.208  0.00  0.00    -0.097 C 
ATOM     30  C   UNL     1      -0.142   2.868   0.918  0.00  0.00    -0.097 C 
ATOM     31  N   UNL     1       0.206   1.432   0.894  0.00  0.00    +0.377 N 
ATOM     32  H   UNL     1      -0.649   0.884   0.742  0.00  0.00    -0.083 HD
ENDBRANCH  28  31
ENDBRANCH  27  28
ENDBRANCH   1  27
TORSDOF 6
