REMARK  Name = ZINC20716129
REMARK  9 active torsions:
REMARK  status: ('A' for Active; 'I' for Inactive)
REMARK    1  A    between atoms: C_1  and  C_2
REMARK    2  A    between atoms: C_2  and  C_3
REMARK    3  A    between atoms: C_2  and  C_4
REMARK    4  A    between atoms: C_4  and  C_5
REMARK    5  A    between atoms: C_5  and  C_7
REMARK    6  A    between atoms: C_5  and  N_11
REMARK    7  A    between atoms: C_7  and  O_9
REMARK    8  A    between atoms: O_9  and  C_10
REMARK    9  A    between atoms: C_23  and  C_25
REMARK                            x       y       z     vdW  Elec       q    Type
REMARK                         _______ _______ _______ _____ _____    ______ ____
ROOT
ATOM      1  N   UNL     1      -0.206  -4.602  -0.545  0.00  0.00    -0.286 N 
ATOM      2  C   UNL     1      -0.294  -3.694  -1.537  0.00  0.00    +0.304 C 
ATOM      3  O   UNL     1      -0.897  -2.653  -1.356  0.00  0.00    -0.253 OA
ATOM      4  N   UNL     1       0.285  -3.939  -2.728  0.00  0.00    -0.273 N 
ATOM      5  C   UNL     1       0.300  -2.915  -3.783  0.00  0.00    +0.116 C 
ATOM      6  C   UNL     1      -0.518  -3.415  -4.981  0.00  0.00    +0.074 C 
ATOM      7  C   UNL     1      -0.143  -4.847  -5.261  0.00  0.00    +0.040 A 
ATOM      8  C   UNL     1       0.490  -5.663  -4.390  0.00  0.00    +0.062 A 
ATOM      9  N   UNL     1       0.652  -6.851  -4.978  0.00  0.00    -0.348 N 
ATOM     10  C   UNL     1       0.146  -6.805  -6.183  0.00  0.00    +0.171 A 
ATOM     11  N   UNL     1      -0.358  -5.568  -6.396  0.00  0.00    -0.349 N 
ATOM     12  H   UNL     1      -0.792  -5.253  -7.205  0.00  0.00    +0.166 HD
ATOM     13  C   UNL     1       0.924  -5.238  -3.004  0.00  0.00    +0.159 C 
ATOM     14  H   UNL     1       0.214  -5.460  -0.709  0.00  0.00    +0.151 HD
ATOM     15  H   UNL     1       1.076  -7.624  -4.574  0.00  0.00    +0.167 HD
ENDROOT
BRANCH  13  16
ATOM     16  C   UNL     1       2.424  -5.093  -2.954  0.00  0.00    +0.017 A 
ATOM     17  C   UNL     1       3.151  -5.029  -4.127  0.00  0.00    +0.047 A 
ATOM     18  C   UNL     1       4.528  -4.894  -4.082  0.00  0.00    +0.124 A 
ATOM     19  C   UNL     1       5.177  -4.825  -2.860  0.00  0.00    +0.041 A 
ATOM     20  C   UNL     1       4.450  -4.889  -1.687  0.00  0.00    +0.041 A 
ATOM     21  C   UNL     1       3.072  -5.018  -1.733  0.00  0.00    +0.129 A 
ATOM     22  F   UNL     1       2.360  -5.075  -0.586  0.00  0.00    -0.205 F 
ATOM     23  F   UNL     1       5.239  -4.832  -5.229  0.00  0.00    -0.205 F 
ENDBRANCH  13  16
BRANCH   1  24
ATOM     24  C   UNL     1      -0.746  -4.293   0.782  0.00  0.00    +0.183 C 
BRANCH  24  25
ATOM     25  C   UNL     1       0.285  -3.536   1.579  0.00  0.00    +0.327 C 
ATOM     26  O   UNL     1       1.360  -3.281   1.089  0.00  0.00    -0.249 OA
BRANCH  25  27
ATOM     27  O   UNL     1       0.009  -3.145   2.833  0.00  0.00    -0.467 OA
ATOM     28  C   UNL     1       1.033  -2.431   3.530  0.00  0.00    +0.280 C 
ENDBRANCH  25  27
ENDBRANCH  24  25
BRANCH  24  29
ATOM     29  C   UNL     1      -1.096  -5.594   1.506  0.00  0.00    +0.036 C 
BRANCH  29  31
ATOM     30  C   UNL     1      -2.496  -7.661   1.414  0.00  0.00    +0.007 C 
ATOM     31  C   UNL     1      -2.230  -6.302   0.763  0.00  0.00    -0.015 C 
ATOM     32  C   UNL     1      -3.497  -5.447   0.833  0.00  0.00    +0.007 C 
ENDBRANCH  29  31
ENDBRANCH  24  29
ENDBRANCH   1  24
TORSDOF 6
