REMARK  Name = ZINC47172661
REMARK  5 active torsions:
REMARK  status: ('A' for Active; 'I' for Inactive)
REMARK    1  A    between atoms: C_1  and  C_2
REMARK    2  A    between atoms: C_2  and  C_4
REMARK    3  A    between atoms: C_2  and  O_16
REMARK    4  A    between atoms: N_6  and  C_7
REMARK    5  A    between atoms: O_16  and  C_17
REMARK                            x       y       z     vdW  Elec       q    Type
REMARK                         _______ _______ _______ _____ _____    ______ ____
ROOT
ATOM      1  C   UNL     1       0.626  -0.284  -1.345  0.00  0.00    +0.254 C 
ATOM      2  O   UNL     1      -0.044  -0.756  -2.238  0.00  0.00    -0.272 OA
ATOM      3  N   UNL     1       1.927  -0.002  -1.556  0.00  0.00    -0.301 N 
ATOM      4  H   UNL     1       2.464   0.375  -0.841  0.00  0.00    +0.150 HD
ENDROOT
BRANCH   3   5
ATOM      5  C   UNL     1       2.531  -0.266  -2.864  0.00  0.00    +0.159 C 
ATOM      6  C   UNL     1       3.744   0.647  -3.064  0.00  0.00    +0.032 C 
ATOM      7  C   UNL     1       4.021   0.856  -4.542  0.00  0.00    +0.004 C 
ATOM      8  C   UNL     1       4.475  -0.399  -5.264  0.00  0.00    +0.019 C 
ATOM      9  C   UNL     1       3.348  -1.432  -5.323  0.00  0.00    +0.104 C 
ATOM     10  N   UNL     1       3.381  -2.236  -4.090  0.00  0.00    -0.314 N 
ATOM     11  C   UNL     1       2.994  -1.706  -2.930  0.00  0.00    +0.233 C 
ATOM     12  O   UNL     1       3.017  -2.380  -1.921  0.00  0.00    -0.274 OA
ATOM     13  H   UNL     1       3.683  -3.157  -4.123  0.00  0.00    +0.149 HD
ENDBRANCH   3   5
BRANCH   1  15
ATOM     14  C   UNL     1       0.005   1.494   0.268  0.00  0.00    +0.062 C 
ATOM     15  C   UNL     1       0.005  -0.013   0.001  0.00  0.00    +0.256 C 
BRANCH  15  16
ATOM     16  O   UNL     1      -1.339  -0.499   0.012  0.00  0.00    -0.479 OA
BRANCH  16  17
ATOM     17  C   UNL     1      -1.869  -0.818   1.222  0.00  0.00    +0.136 A 
ATOM     18  C   UNL     1      -1.155  -0.561   2.383  0.00  0.00    +0.048 A 
ATOM     19  C   UNL     1      -1.697  -0.886   3.612  0.00  0.00    +0.023 A 
ATOM     20  C   UNL     1      -2.950  -1.467   3.686  0.00  0.00    +0.042 A 
ATOM     21  C   UNL     1      -3.665  -1.724   2.529  0.00  0.00    +0.039 A 
ATOM     22  C   UNL     1      -3.129  -1.395   1.298  0.00  0.00    +0.061 A 
ATOM     23 BR   UNL     1      -4.109  -1.740  -0.283  0.00  0.00    -0.046 Br
ATOM     24 CL   UNL     1      -3.628  -1.875   5.231  0.00  0.00    -0.084 Cl
ENDBRANCH  16  17
ENDBRANCH  15  16
ENDBRANCH   1  15
TORSDOF 4
