REMARK  Name = ZINC04755063
REMARK  11 active torsions:
REMARK  status: ('A' for Active; 'I' for Inactive)
REMARK    1  A    between atoms: C_1  and  C_2
REMARK    2  A    between atoms: C_2  and  N_3
REMARK    3  A    between atoms: N_3  and  C_4
REMARK    4  A    between atoms: N_3  and  C_6
REMARK    5  A    between atoms: C_4  and  C_5
REMARK    6  A    between atoms: C_9  and  C_12
REMARK    7  A    between atoms: C_12  and  C_14
REMARK    8  A    between atoms: C_12  and  N_26
REMARK    9  A    between atoms: C_20  and  C_25
REMARK   10  A    between atoms: C_23  and  O_24
REMARK   11  A    between atoms: N_26  and  C_27
REMARK                            x       y       z     vdW  Elec       q    Type
REMARK                         _______ _______ _______ _____ _____    ______ ____
ROOT
ATOM      1  C   UNL     1       4.797   4.114  -0.022  0.00  0.00    +0.136 C 
ENDROOT
BRANCH   1   2
ATOM      2  C   UNL     1       3.570   3.240   0.016  0.00  0.00    +0.021 A 
ATOM      3  C   UNL     1       3.706   1.861  -0.121  0.00  0.00    +0.010 A 
ATOM      4  C   UNL     1       2.617   1.044  -0.091  0.00  0.00    +0.010 A 
ATOM      5  C   UNL     1       1.337   1.595   0.081  0.00  0.00    +0.004 A 
ATOM      6  C   UNL     1       0.188   0.783   0.118  0.00  0.00    +0.012 A 
ATOM      7  C   UNL     1      -1.025   1.389   0.282  0.00  0.00    +0.023 A 
ATOM      8  C   UNL     1      -1.097   2.774   0.418  0.00  0.00    +0.039 A 
ATOM      9  N   UNL     1      -0.025   3.527   0.384  0.00  0.00    -0.248 NA
ATOM     10  C   UNL     1       1.191   2.997   0.221  0.00  0.00    +0.113 A 
ATOM     11  C   UNL     1       2.342   3.812   0.185  0.00  0.00    +0.148 A 
ATOM     12  C   UNL     1      -2.444   3.423   0.603  0.00  0.00    +0.065 C 
BRANCH  11  13
ATOM     13  O   UNL     1       2.229   5.160   0.317  0.00  0.00    -0.504 OA
ATOM     14  H   UNL     1       2.113   5.629  -0.520  0.00  0.00    +0.292 HD
ENDBRANCH  11  13
ENDBRANCH   1   2
BRANCH   1  18
ATOM     15  C   UNL     1       5.436   5.500  -4.014  0.00  0.00    +0.030 A 
ATOM     16  C   UNL     1       4.951   6.369  -3.045  0.00  0.00    +0.023 A 
ATOM     17  C   UNL     1       4.746   5.918  -1.756  0.00  0.00    +0.007 A 
ATOM     18  C   UNL     1       5.022   4.603  -1.430  0.00  0.00    -0.023 A 
ATOM     19  C   UNL     1       5.510   3.736  -2.391  0.00  0.00    +0.007 A 
ATOM     20  C   UNL     1       5.712   4.179  -3.683  0.00  0.00    +0.023 A 
BRANCH  15  21
ATOM     21  N   UNL     1       5.645   5.953  -5.319  0.00  0.00    -0.330 N 
BRANCH  21  23
ATOM     22  C   UNL     1       4.983   4.346  -7.040  0.00  0.00    +0.024 C 
ATOM     23  C   UNL     1       6.156   5.035  -6.340  0.00  0.00    +0.102 C 
ENDBRANCH  21  23
BRANCH  21  24
ATOM     24  C   UNL     1       5.353   7.346  -5.666  0.00  0.00    +0.102 C 
ATOM     25  C   UNL     1       6.602   8.200  -5.442  0.00  0.00    +0.024 C 
ENDBRANCH  21  24
ENDBRANCH  15  21
ENDBRANCH   1  18
BRANCH   1  26
ATOM     26  N   UNL     1       5.961   3.341   0.419  0.00  0.00    -0.320 N 
ATOM     27  H   UNL     1       6.564   2.955  -0.237  0.00  0.00    +0.148 HD
BRANCH  26  28
ATOM     28  C   UNL     1       6.202   3.160   1.776  0.00  0.00    +0.097 A 
ATOM     29  C   UNL     1       5.396   3.801   2.711  0.00  0.00    +0.041 A 
ATOM     30  C   UNL     1       5.646   3.612   4.057  0.00  0.00    +0.005 A 
ATOM     31  C   UNL     1       6.699   2.784   4.426  0.00  0.00    +0.018 A 
ATOM     32  C   UNL     1       7.459   2.180   3.445  0.00  0.00    +0.084 A 
ATOM     33  N   UNL     1       7.238   2.338   2.112  0.00  0.00    -0.350 N 
ATOM     34  H   UNL     1       7.814   1.868   1.404  0.00  0.00    +0.166 HD
ENDBRANCH  26  28
ENDBRANCH   1  26
TORSDOF 8
