REMARK  Name = ZINC12075664
REMARK  7 active torsions:
REMARK  status: ('A' for Active; 'I' for Inactive)
REMARK    1  A    between atoms: C_2  and  C_3
REMARK    2  A    between atoms: C_3  and  N_4
REMARK    3  A    between atoms: N_4  and  C_5
REMARK    4  A    between atoms: C_13  and  C_15
REMARK    5  A    between atoms: C_15  and  N_16
REMARK    6  A    between atoms: C_17  and  C_21
REMARK    7  A    between atoms: C_21  and  N_55
REMARK                            x       y       z     vdW  Elec       q    Type
REMARK                         _______ _______ _______ _____ _____    ______ ____
ROOT
ATOM      1  C   UNL     1      -4.137   2.622   2.115  0.00  0.00    +0.243 C 
ENDROOT
BRANCH   1   2
ATOM      2  N   UNL     1      -3.362   1.935   3.152  0.00  0.00    -0.222 N 
ATOM      3  C   UNL     1      -2.339   1.083   2.953  0.00  0.00    +0.136 A 
ATOM      4  N   UNL     1      -1.935   0.697   4.138  0.00  0.00    -0.115 NA
ATOM      5  N   UNL     1      -2.667   1.287   5.020  0.00  0.00    -0.023 NA
ATOM      6  N   UNL     1      -3.532   2.034   4.427  0.00  0.00    -0.044 NA
BRANCH   3   7
ATOM      7  C   UNL     1      -1.773   0.652   1.624  0.00  0.00    +0.000 C 
BRANCH   7  14
ATOM      8  C   UNL     1      -2.288  -0.680  -0.342  0.00  0.00    -0.078 C 
ATOM      9  C   UNL     1      -1.073  -1.532  -0.588  0.00  0.00    -0.019 C 
ATOM     10  C   UNL     1      -1.527  -2.998  -0.748  0.00  0.00    -0.002 C 
ATOM     11  C   UNL     1      -1.809  -3.630   0.536  0.00  0.00    -0.002 C 
ATOM     12  C   UNL     1      -2.947  -2.920   1.299  0.00  0.00    -0.019 C 
ATOM     13  C   UNL     1      -2.389  -1.677   1.939  0.00  0.00    -0.078 C 
ATOM     14  N   UNL     1      -2.607  -0.445   1.108  0.00  0.00    +0.384 N 
ATOM     15  H   UNL     1      -3.594  -0.174   1.183  0.00  0.00    -0.081 HD
ENDBRANCH   7  14
ENDBRANCH   3   7
ENDBRANCH   1   2
BRANCH   1  17
ATOM     16  N   UNL     1      -6.252   2.273   0.882  0.00  0.00    -0.292 N 
ATOM     17  C   UNL     1      -5.382   1.830   1.811  0.00  0.00    +0.238 C 
ATOM     18  O   UNL     1      -5.601   0.793   2.401  0.00  0.00    -0.274 OA
BRANCH  16  19
ATOM     19  C   UNL     1      -7.463   1.503   0.586  0.00  0.00    +0.099 C 
ATOM     20  C   UNL     1      -8.301   1.341   1.864  0.00  0.00    +0.047 C 
ATOM     21  C   UNL     1      -9.401   0.275   1.643  0.00  0.00    +0.168 C 
ATOM     22  S   UNL     1      -8.648  -0.824   0.374  0.00  0.00    -0.029 S 
ATOM     23  O   UNL     1      -9.437  -0.774  -0.806  0.00  0.00    -0.174 OA
ATOM     24  O   UNL     1      -8.353  -2.081   0.968  0.00  0.00    -0.174 OA
ATOM     25  C   UNL     1      -7.072   0.085   0.081  0.00  0.00    +0.188 C 
ENDBRANCH  16  19
BRANCH  16  26
ATOM     26  C   UNL     1      -5.988   3.525   0.169  0.00  0.00    +0.135 C 
BRANCH  26  28
ATOM     27  C   UNL     1      -5.635   3.637  -2.245  0.00  0.00    +0.005 C 
ATOM     28  C   UNL     1      -5.194   3.235  -1.079  0.00  0.00    -0.016 C 
ENDBRANCH  26  28
ENDBRANCH  16  26
ENDBRANCH   1  17
TORSDOF 7
