REMARK  Name = ZINC35442515
REMARK  9 active torsions:
REMARK  status: ('A' for Active; 'I' for Inactive)
REMARK    1  A    between atoms: C_1  and  C_2
REMARK    2  A    between atoms: C_2  and  N_3
REMARK    3  A    between atoms: N_3  and  C_4
REMARK    4  A    between atoms: C_4  and  C_5
REMARK    5  A    between atoms: C_6  and  C_8
REMARK    6  A    between atoms: C_8  and  C_9
REMARK    7  A    between atoms: C_9  and  C_10
REMARK    8  A    between atoms: N_20  and  C_21
REMARK    9  A    between atoms: N_24  and  C_25
REMARK                            x       y       z     vdW  Elec       q    Type
REMARK                         _______ _______ _______ _____ _____    ______ ____
ROOT
ATOM      1  C   UNL     1      -1.167  -0.200   4.758  0.00  0.00    -0.051 C 
ATOM      2  C   UNL     1      -2.070  -0.186   5.967  0.00  0.00    +0.089 C 
ATOM      3  N   UNL     1      -1.411   0.410   7.113  0.00  0.00    -0.316 N 
ATOM      4  C   UNL     1      -0.149   0.322   7.446  0.00  0.00    +0.229 C 
ATOM      5  O   UNL     1       0.155   1.077   8.345  0.00  0.00    -0.274 OA
ATOM      6  C   UNL     1       0.974  -0.483   6.977  0.00  0.00    +0.130 C 
ATOM      7  C   UNL     1       1.118  -0.674   5.464  0.00  0.00    -0.041 C 
ATOM      8  N   UNL     1      -0.093  -1.146   4.853  0.00  0.00    +0.384 N 
ATOM      9  C   UNL     1       0.228  -1.613   3.498  0.00  0.00    -0.095 C 
ATOM     10  C   UNL     1       2.176  -1.811   5.382  0.00  0.00    +0.002 C 
ATOM     11  C   UNL     1       2.078  -2.541   6.736  0.00  0.00    +0.084 C 
ATOM     12  N   UNL     1       1.021  -1.856   7.515  0.00  0.00    -0.290 NA
ATOM     13  H   UNL     1      -1.973   0.937   7.702  0.00  0.00    +0.149 HD
ATOM     14  H   UNL     1      -0.418  -1.939   5.385  0.00  0.00    -0.081 HD
ENDROOT
BRANCH  12  15
ATOM     15  C   UNL     1       1.360  -1.850   8.944  0.00  0.00    +0.062 C 
ATOM     16  C   UNL     1       1.463  -3.292   9.452  0.00  0.00    +0.047 C 
ATOM     17  C   UNL     1       1.893  -3.277  10.921  0.00  0.00    +0.161 C 
ATOM     18  O   UNL     1       3.137  -2.586  11.046  0.00  0.00    -0.380 OA
ATOM     19  C   UNL     1       3.089  -1.219  10.630  0.00  0.00    +0.161 C 
ATOM     20  C   UNL     1       2.707  -1.151   9.149  0.00  0.00    +0.047 C 
ENDBRANCH  12  15
BRANCH   1  21
ATOM     21  C   UNL     1      -2.006  -0.537   3.524  0.00  0.00    -0.005 C 
BRANCH  21  22
ATOM     22  C   UNL     1      -3.161   0.459   3.405  0.00  0.00    +0.094 C 
BRANCH  22  24
ATOM     23  N   UNL     1      -4.973   0.974   1.802  0.00  0.00    -0.302 N 
ATOM     24  C   UNL     1      -3.909   0.210   2.120  0.00  0.00    +0.215 C 
ATOM     25  O   UNL     1      -3.553  -0.676   1.374  0.00  0.00    -0.276 OA
BRANCH  23  27
ATOM     26  C   UNL     1      -6.421   1.492   3.703  0.00  0.00    +0.024 C 
ATOM     27  C   UNL     1      -5.403   2.045   2.704  0.00  0.00    +0.104 C 
ENDBRANCH  23  27
BRANCH  23  28
ATOM     28  C   UNL     1      -5.700   0.732   0.553  0.00  0.00    +0.104 C 
ATOM     29  C   UNL     1      -5.085   1.573  -0.567  0.00  0.00    +0.024 C 
ENDBRANCH  23  28
ENDBRANCH  22  24
ENDBRANCH  21  22
ENDBRANCH   1  21
TORSDOF 6
