REMARK  Name = ZINC14169599
REMARK  7 active torsions:
REMARK  status: ('A' for Active; 'I' for Inactive)
REMARK    1  A    between atoms: C_4  and  C_7
REMARK    2  A    between atoms: C_7  and  C_9
REMARK    3  A    between atoms: C_7  and  N_14
REMARK    4  A    between atoms: C_15  and  C_17
REMARK    5  A    between atoms: C_17  and  N_18
REMARK    6  A    between atoms: C_21  and  C_26
REMARK    7  A    between atoms: C_26  and  C_27
REMARK                            x       y       z     vdW  Elec       q    Type
REMARK                         _______ _______ _______ _____ _____    ______ ____
ROOT
ATOM      1  N   UNL     1       4.792  -1.977  -2.200  0.00  0.00    -0.216 N 
ATOM      2  C   UNL     1       3.641  -1.956  -1.499  0.00  0.00    +0.244 C 
ATOM      3  O   UNL     1       3.071  -2.902  -0.999  0.00  0.00    -0.273 OA
ATOM      4  C   UNL     1       3.206  -0.504  -1.467  0.00  0.00    +0.165 C 
ATOM      5  N   UNL     1       4.262   0.190  -2.224  0.00  0.00    -0.287 N 
ATOM      6  C   UNL     1       5.141  -0.752  -2.610  0.00  0.00    +0.310 C 
ATOM      7  O   UNL     1       6.142  -0.517  -3.259  0.00  0.00    -0.252 OA
ATOM      8  H   UNL     1       4.313   1.141  -2.409  0.00  0.00    +0.151 HD
ENDROOT
BRANCH   1   9
ATOM      9  C   UNL     1       5.564  -3.190  -2.478  0.00  0.00    +0.213 C 
BRANCH   9  11
ATOM     10  N   UNL     1       5.667  -4.929  -4.234  0.00  0.00    -0.303 N 
ATOM     11  C   UNL     1       5.095  -3.798  -3.774  0.00  0.00    +0.232 C 
ATOM     12  O   UNL     1       4.203  -3.270  -4.404  0.00  0.00    -0.274 OA
ATOM     13  H   UNL     1       6.380  -5.351  -3.731  0.00  0.00    +0.150 HD
BRANCH  10  14
ATOM     14  C   UNL     1       5.211  -5.520  -5.495  0.00  0.00    +0.140 C 
BRANCH  14  18
ATOM     15  C   UNL     1       8.359  -7.854  -7.194  0.00  0.00    +0.000 A 
ATOM     16  C   UNL     1       7.561  -7.073  -8.009  0.00  0.00    +0.000 A 
ATOM     17  C   UNL     1       6.542  -6.318  -7.459  0.00  0.00    +0.006 A 
ATOM     18  C   UNL     1       6.321  -6.343  -6.094  0.00  0.00    -0.022 A 
ATOM     19  C   UNL     1       7.123  -7.120  -5.279  0.00  0.00    +0.006 A 
ATOM     20  C   UNL     1       8.139  -7.879  -5.830  0.00  0.00    +0.000 A 
ENDBRANCH  14  18
BRANCH  14  21
ATOM     21  C   UNL     1       4.017  -6.402  -5.233  0.00  0.00    +0.014 A 
ATOM     22  C   UNL     1       2.889  -6.551  -5.969  0.00  0.00    +0.013 A 
ATOM     23  C   UNL     1       1.914  -7.428  -5.531  0.00  0.00    +0.008 A 
ATOM     24  C   UNL     1       2.115  -8.112  -4.378  0.00  0.00    +0.045 A 
ATOM     25  S   UNL     1       3.725  -7.526  -3.877  0.00  0.00    -0.099 S 
ENDBRANCH  14  21
ENDBRANCH  10  14
ENDBRANCH   9  11
ENDBRANCH   1   9
BRANCH   4  26
ATOM     26  C   UNL     1       3.150   0.009  -0.027  0.00  0.00    +0.069 C 
BRANCH  26  27
ATOM     27  C   UNL     1       2.600   1.412  -0.015  0.00  0.00    -0.020 A 
ATOM     28  C   UNL     1       3.312   2.549  -0.015  0.00  0.00    +0.087 A 
ATOM     29  N   UNL     1       2.470   3.628  -0.002  0.00  0.00    -0.360 N 
ATOM     30  H   UNL     1       2.753   4.556   0.001  0.00  0.00    +0.165 HD
ATOM     31  C   UNL     1       1.161   3.199   0.008  0.00  0.00    +0.047 A 
ATOM     32  C   UNL     1       1.185   1.793   0.000  0.00  0.00    +0.003 A 
ATOM     33  C   UNL     1      -0.013   1.076   0.008  0.00  0.00    +0.010 A 
ATOM     34  C   UNL     1      -1.204   1.745   0.017  0.00  0.00    +0.001 A 
ATOM     35  C   UNL     1      -1.233   3.133   0.031  0.00  0.00    +0.002 A 
ATOM     36  C   UNL     1      -0.062   3.860   0.024  0.00  0.00    +0.026 A 
ENDBRANCH  26  27
ENDBRANCH   4  26
TORSDOF 7
