REMARK  Name = ZINC05149714
REMARK  11 active torsions:
REMARK  status: ('A' for Active; 'I' for Inactive)
REMARK    1  A    between atoms: C_1  and  C_2
REMARK    2  A    between atoms: C_2  and  C_3
REMARK    3  A    between atoms: N_5  and  C_16
REMARK    4  A    between atoms: C_16  and  C_18
REMARK    5  A    between atoms: C_16  and  C_19
REMARK    6  A    between atoms: N_21  and  C_22
REMARK    7  A    between atoms: C_22  and  C_23
REMARK    8  A    between atoms: C_23  and  C_24
REMARK    9  A    between atoms: C_24  and  N_64
REMARK   10  A    between atoms: C_25  and  N_64
REMARK   11  A    between atoms: C_26  and  N_64
REMARK                            x       y       z     vdW  Elec       q    Type
REMARK                         _______ _______ _______ _____ _____    ______ ____
ROOT
ATOM      1  C   UNL     1      -1.256  -0.754   0.011  0.00  0.00    +0.193 C 
ATOM      2  C   UNL     1      -1.338  -1.628  -1.243  0.00  0.00    +0.043 C 
ENDROOT
BRANCH   1   5
ATOM      3  C   UNL     1       2.355  -0.072  -0.021  0.00  0.00    +0.135 A 
ATOM      4  N   UNL     1       1.222  -0.686  -0.013  0.00  0.00    -0.154 NA
ATOM      5  N   UNL     1       0.002  -0.004   0.002  0.00  0.00    -0.214 N 
ATOM      6  C   UNL     1      -0.016   1.348   0.009  0.00  0.00    +0.292 A 
ATOM      7  O   UNL     1      -1.069   1.960   0.018  0.00  0.00    -0.264 OA
ATOM      8  C   UNL     1       1.267   2.055   0.001  0.00  0.00    +0.118 A 
ATOM      9  N   UNL     1       2.435   1.307  -0.014  0.00  0.00    -0.288 N 
ATOM     10  C   UNL     1       3.498   2.173  -0.019  0.00  0.00    +0.094 A 
ATOM     11  C   UNL     1       4.909   2.289  -0.032  0.00  0.00    +0.068 A 
ATOM     12  C   UNL     1       5.199   3.601  -0.028  0.00  0.00    +0.198 A 
ATOM     13  O   UNL     1       4.058   4.313  -0.013  0.00  0.00    -0.461 OA
ATOM     14  C   UNL     1       3.000   3.473  -0.007  0.00  0.00    +0.154 A 
ATOM     15  C   UNL     1       1.602   3.388   0.005  0.00  0.00    +0.080 A 
BRANCH   3  17
ATOM     16  C   UNL     1       3.284  -2.372  -0.042  0.00  0.00    +0.012 C 
ATOM     17  C   UNL     1       3.627  -0.880  -0.037  0.00  0.00    +0.073 C 
ENDBRANCH   3  17
ENDBRANCH   1   5
BRANCH   1  18
ATOM     18  C   UNL     1      -1.312  -1.628   1.237  0.00  0.00    +0.237 C 
ATOM     19  O   UNL     1      -0.391  -1.625   2.026  0.00  0.00    -0.273 OA
ATOM     20  N   UNL     1      -2.385  -2.413   1.457  0.00  0.00    -0.314 N 
ATOM     21  H   UNL     1      -3.122  -2.415   0.825  0.00  0.00    +0.149 HD
BRANCH  20  22
ATOM     22  C   UNL     1      -2.440  -3.263   2.649  0.00  0.00    +0.102 C 
BRANCH  22  23
ATOM     23  C   UNL     1      -3.754  -4.046   2.658  0.00  0.00    +0.000 C 
BRANCH  23  24
ATOM     24  C   UNL     1      -3.811  -4.933   3.903  0.00  0.00    -0.077 C 
BRANCH  24  26
ATOM     25  C   UNL     1      -6.221  -4.783   4.072  0.00  0.00    -0.096 C 
ATOM     26  N   UNL     1      -5.075  -5.698   3.886  0.00  0.00    +0.380 N 
ATOM     27  H   UNL     1      -5.168  -6.169   2.978  0.00  0.00    -0.082 HD
BRANCH  26  28
ATOM     28  C   UNL     1      -5.064  -6.717   4.956  0.00  0.00    -0.069 C 
ATOM     29  C   UNL     1      -3.913  -7.693   4.699  0.00  0.00    -0.015 C 
ATOM     30  C   UNL     1      -3.904  -8.768   5.788  0.00  0.00    -0.002 C 
ATOM     31  C   UNL     1      -5.231  -9.528   5.766  0.00  0.00    -0.000 C 
ATOM     32  C   UNL     1      -6.382  -8.553   6.023  0.00  0.00    -0.002 C 
ATOM     33  C   UNL     1      -6.391  -7.477   4.934  0.00  0.00    -0.015 C 
ENDBRANCH  26  28
ENDBRANCH  24  26
ENDBRANCH  23  24
ENDBRANCH  22  23
ENDBRANCH  20  22
ENDBRANCH   1  18
TORSDOF 8
