REMARK  Name = ZINC46869403
REMARK  10 active torsions:
REMARK  status: ('A' for Active; 'I' for Inactive)
REMARK    1  A    between atoms: C_1  and  C_2
REMARK    2  A    between atoms: C_2  and  C_3
REMARK    3  A    between atoms: C_3  and  N_4
REMARK    4  A    between atoms: C_5  and  C_7
REMARK    5  A    between atoms: C_7  and  N_8
REMARK    6  A    between atoms: C_11  and  N_14
REMARK    7  A    between atoms: N_17  and  C_18
REMARK    8  A    between atoms: N_17  and  C_19
REMARK    9  A    between atoms: C_19  and  C_20
REMARK   10  A    between atoms: C_25  and  O_26
REMARK                            x       y       z     vdW  Elec       q    Type
REMARK                         _______ _______ _______ _____ _____    ______ ____
ROOT
ATOM      1  N   UNL     1       2.095  -4.641   3.417  0.00  0.00    +0.385 N 
ATOM      2  C   UNL     1       1.347  -4.261   4.621  0.00  0.00    -0.076 C 
ATOM      3  C   UNL     1       2.123  -4.694   5.867  0.00  0.00    +0.004 C 
ATOM      4  C   UNL     1       2.313  -6.213   5.840  0.00  0.00    +0.071 C 
ATOM      5  C   UNL     1       3.029  -6.606   4.544  0.00  0.00    +0.004 C 
ATOM      6  C   UNL     1       2.219  -6.101   3.348  0.00  0.00    -0.076 C 
ATOM      7  H   UNL     1       3.015  -4.227   3.451  0.00  0.00    -0.081 HD
ENDROOT
BRANCH   4   8
ATOM      8  N   UNL     1       3.121  -6.626   6.990  0.00  0.00    -0.297 N 
ATOM      9  C   UNL     1       3.014  -7.880   7.473  0.00  0.00    +0.302 C 
ATOM     10  O   UNL     1       2.248  -8.668   6.954  0.00  0.00    -0.253 OA
ATOM     11  N   UNL     1       3.757  -8.260   8.531  0.00  0.00    -0.284 N 
ATOM     12  C   UNL     1       4.681  -7.310   9.157  0.00  0.00    +0.134 C 
ATOM     13  H   UNL     1       3.732  -5.997   7.404  0.00  0.00    +0.151 HD
BRANCH  11  14
ATOM     14  C   UNL     1       3.642  -9.623   9.056  0.00  0.00    +0.147 C 
BRANCH  14  15
ATOM     15  C   UNL     1       4.635 -10.516   8.358  0.00  0.00    +0.011 A 
ATOM     16  C   UNL     1       4.222 -11.332   7.322  0.00  0.00    +0.009 A 
ATOM     17  C   UNL     1       5.132 -12.152   6.682  0.00  0.00    +0.001 A 
ATOM     18  C   UNL     1       6.458 -12.157   7.075  0.00  0.00    +0.004 A 
ATOM     19  C   UNL     1       6.876 -11.343   8.110  0.00  0.00    +0.046 A 
ATOM     20  C   UNL     1       5.965 -10.515   8.751  0.00  0.00    +0.122 A 
BRANCH  20  21
ATOM     21  O   UNL     1       6.375  -9.709   9.765  0.00  0.00    -0.506 OA
ATOM     22  H   UNL     1       6.323 -10.119  10.639  0.00  0.00    +0.292 HD
ENDBRANCH  20  21
ENDBRANCH  14  15
ENDBRANCH  11  14
ENDBRANCH   4   8
BRANCH   1  23
ATOM     23  C   UNL     1       1.385  -4.154   2.227  0.00  0.00    +0.019 C 
BRANCH  23  25
ATOM     24  N   UNL     1       0.762  -1.976   1.234  0.00  0.00    -0.317 N 
ATOM     25  C   UNL     1       1.364  -2.647   2.235  0.00  0.00    +0.196 C 
ATOM     26  O   UNL     1       1.890  -2.038   3.143  0.00  0.00    -0.278 OA
ATOM     27  H   UNL     1       0.342  -2.462   0.507  0.00  0.00    +0.149 HD
BRANCH  24  28
ATOM     28  C   UNL     1       0.742  -0.511   1.242  0.00  0.00    +0.104 C 
BRANCH  28  30
ATOM     29  C   UNL     1      -0.019   1.526   0.010  0.00  0.00    +0.005 C 
ATOM     30  C   UNL     1       0.002  -0.004   0.002  0.00  0.00    +0.015 C 
ENDBRANCH  28  30
ENDBRANCH  24  28
ENDBRANCH  23  25
ENDBRANCH   1  23
TORSDOF 8
