REMARK  Name = ZINC49721980
REMARK  9 active torsions:
REMARK  status: ('A' for Active; 'I' for Inactive)
REMARK    1  A    between atoms: C_1  and  C_2
REMARK    2  A    between atoms: C_2  and  C_3
REMARK    3  A    between atoms: C_8  and  N_9
REMARK    4  A    between atoms: C_10  and  C_30
REMARK    5  A    between atoms: C_12  and  C_15
REMARK    6  A    between atoms: C_13  and  C_14
REMARK    7  A    between atoms: C_25  and  C_27
REMARK    8  A    between atoms: C_27  and  C_28
REMARK    9  A    between atoms: C_27  and  C_29
REMARK                            x       y       z     vdW  Elec       q    Type
REMARK                         _______ _______ _______ _____ _____    ______ ____
ROOT
ATOM      1  C   UNL     1      -3.800   1.392   3.362  0.00  0.00    +0.026 C 
ATOM      2  C   UNL     1      -5.010   1.061   3.936  0.00  0.00    +0.079 C 
ATOM      3  C   UNL     1      -5.353  -0.344   4.288  0.00  0.00    +0.132 C 
ATOM      4  N   UNL     1      -4.469  -1.222   4.684  0.00  0.00    -0.385 N 
ATOM      5  N   UNL     1      -6.727  -0.636   4.152  0.00  0.00    -0.154 N 
ATOM      6  C   UNL     1      -7.612   0.419   4.214  0.00  0.00    +0.181 C 
ATOM      7  N   UNL     1      -7.327   1.695   4.292  0.00  0.00    -0.152 NA
ATOM      8  C   UNL     1      -6.036   2.087   4.241  0.00  0.00    +0.273 C 
ATOM      9  O   UNL     1      -5.722   3.251   4.435  0.00  0.00    -0.268 OA
ATOM     10  S   UNL     1      -9.180  -0.404   4.138  0.00  0.00    -0.038 S 
ATOM     11  C   UNL     1      -8.560  -2.068   3.929  0.00  0.00    +0.102 C 
ATOM     12  N   UNL     1      -7.271  -1.890   3.972  0.00  0.00    -0.169 NA
ATOM     13  H   UNL     1      -3.552  -0.948   4.841  0.00  0.00    +0.157 HD
ATOM     14  H   UNL     1      -4.730  -2.146   4.821  0.00  0.00    +0.157 HD
ENDROOT
BRANCH   1  18
ATOM     15  N   UNL     1      -1.093  -0.740   2.354  0.00  0.00    -0.317 N 
ATOM     16  C   UNL     1      -2.135  -1.606   2.172  0.00  0.00    +0.022 A 
ATOM     17  C   UNL     1      -3.283  -0.991   2.502  0.00  0.00    +0.031 A 
ATOM     18  C   UNL     1      -2.920   0.369   2.923  0.00  0.00    -0.003 A 
ATOM     19  C   UNL     1      -1.541   0.446   2.809  0.00  0.00    +0.028 A 
ATOM     20  C   UNL     1      -0.692   1.648   3.134  0.00  0.00    +0.064 C 
ATOM     21  C   UNL     1      -2.016  -3.025   1.679  0.00  0.00    +0.064 C 
BRANCH  15  27
ATOM     22  C   UNL     1       0.769  -0.929   0.824  0.00  0.00    -0.024 A 
ATOM     23  C   UNL     1       2.097  -1.224   0.586  0.00  0.00    +0.005 A 
ATOM     24  C   UNL     1       2.910  -1.643   1.622  0.00  0.00    +0.000 A 
ATOM     25  C   UNL     1       2.398  -1.766   2.901  0.00  0.00    +0.002 A 
ATOM     26  C   UNL     1       1.071  -1.472   3.146  0.00  0.00    +0.026 A 
ATOM     27  C   UNL     1       0.253  -1.046   2.108  0.00  0.00    +0.050 A 
BRANCH  22  29
ATOM     28  C   UNL     1      -0.143   1.056  -0.351  0.00  0.00    +0.009 C 
ATOM     29  C   UNL     1      -0.117  -0.473  -0.307  0.00  0.00    +0.034 C 
ENDBRANCH  22  29
ENDBRANCH  15  27
ENDBRANCH   1  18
BRANCH  11  30
ATOM     30  C   UNL     1      -9.333  -3.349   3.748  0.00  0.00    +0.040 C 
ATOM     31  C   UNL     1      -9.679  -3.531   2.269  0.00  0.00    +0.014 C 
ATOM     32  C   UNL     1      -8.482  -4.529   4.221  0.00  0.00    +0.014 C 
ENDBRANCH  11  30
TORSDOF 4
