REMARK  Name = ZINC06896030
REMARK  7 active torsions:
REMARK  status: ('A' for Active; 'I' for Inactive)
REMARK    1  A    between atoms: C_1  and  C_2
REMARK    2  A    between atoms: C_7  and  N_8
REMARK    3  A    between atoms: N_8  and  C_9
REMARK    4  A    between atoms: C_9  and  N_11
REMARK    5  A    between atoms: N_11  and  N_12
REMARK    6  A    between atoms: N_20  and  C_23
REMARK    7  A    between atoms: C_23  and  C_24
REMARK                            x       y       z     vdW  Elec       q    Type
REMARK                         _______ _______ _______ _____ _____    ______ ____
ROOT
ATOM      1  N   UNL     1      -0.175   1.374   4.750  0.00  0.00    -0.175 NA
ATOM      2  C   UNL     1      -0.271   2.024   5.885  0.00  0.00    +0.153 C 
ATOM      3  C   UNL     1      -0.312   3.491   6.084  0.00  0.00    +0.028 A 
ATOM      4  C   UNL     1      -0.265   4.572   5.210  0.00  0.00    +0.012 A 
ATOM      5  C   UNL     1      -0.325   5.858   5.709  0.00  0.00    +0.001 A 
ATOM      6  C   UNL     1      -0.432   6.069   7.073  0.00  0.00    +0.002 A 
ATOM      7  C   UNL     1      -0.480   5.003   7.948  0.00  0.00    +0.024 A 
ATOM      8  C   UNL     1      -0.421   3.700   7.465  0.00  0.00    +0.046 A 
ATOM      9  N   UNL     1      -0.449   2.472   8.114  0.00  0.00    -0.261 N 
ATOM     10  C   UNL     1      -0.370   1.452   7.242  0.00  0.00    +0.272 C 
ATOM     11  O   UNL     1      -0.377   0.268   7.522  0.00  0.00    -0.268 OA
ENDROOT
BRANCH   1  12
ATOM     12  N   UNL     1      -0.156  -0.027   4.744  0.00  0.00    -0.217 N 
ATOM     13  H   UNL     1      -0.214  -0.516   5.580  0.00  0.00    +0.176 HD
BRANCH  12  14
ATOM     14  C   UNL     1      -0.056  -0.695   3.578  0.00  0.00    +0.154 C 
ATOM     15  S   UNL     1      -0.033  -2.407   3.571  0.00  0.00    -0.017 S 
BRANCH  14  16
ATOM     16  N   UNL     1       0.025  -0.015   2.417  0.00  0.00    -0.295 N 
ATOM     17  H   UNL     1       0.075   0.954   2.424  0.00  0.00    +0.154 HD
BRANCH  16  24
ATOM     18  C   UNL     1      -1.705   0.882   0.344  0.00  0.00    +0.045 C 
ATOM     19  C   UNL     1      -0.791  -0.302   0.162  0.00  0.00    -0.029 A 
ATOM     20  C   UNL     1      -0.772  -0.984  -1.039  0.00  0.00    +0.005 A 
ATOM     21  C   UNL     1       0.066  -2.071  -1.206  0.00  0.00    +0.000 A 
ATOM     22  C   UNL     1       0.887  -2.479  -0.172  0.00  0.00    +0.002 A 
ATOM     23  C   UNL     1       0.874  -1.803   1.032  0.00  0.00    +0.023 A 
ATOM     24  C   UNL     1       0.037  -0.706   1.201  0.00  0.00    +0.036 A 
ENDBRANCH  16  24
ENDBRANCH  14  16
ENDBRANCH  12  14
ENDBRANCH   1  12
BRANCH   9  25
ATOM     25  C   UNL     1      -0.556   2.308   9.566  0.00  0.00    +0.152 C 
BRANCH  25  26
ATOM     26  C   UNL     1      -2.009   2.228   9.957  0.00  0.00    +0.005 A 
ATOM     27  C   UNL     1      -2.653   3.343  10.459  0.00  0.00    +0.008 A 
ATOM     28  C   UNL     1      -3.986   3.269  10.817  0.00  0.00    +0.000 A 
ATOM     29  C   UNL     1      -4.677   2.080  10.673  0.00  0.00    +0.003 A 
ATOM     30  C   UNL     1      -4.036   0.964  10.171  0.00  0.00    +0.038 A 
ATOM     31  C   UNL     1      -2.701   1.038   9.807  0.00  0.00    +0.128 A 
ATOM     32  F   UNL     1      -2.075  -0.051   9.311  0.00  0.00    -0.205 F 
ENDBRANCH  25  26
ENDBRANCH   9  25
TORSDOF 6
