REMARK  Name = ZINC22014676
REMARK  3 active torsions:
REMARK  status: ('A' for Active; 'I' for Inactive)
REMARK    1  A    between atoms: C_8  and  N_12
REMARK    2  A    between atoms: N_12  and  S_13
REMARK    3  A    between atoms: S_13  and  C_16
REMARK                            x       y       z     vdW  Elec       q    Type
REMARK                         _______ _______ _______ _____ _____    ______ ____
ROOT
ATOM      1  S   UNL     1       4.959   5.356   0.805  0.00  0.00    +0.073 S 
ATOM      2  O   UNL     1       6.305   5.776   0.627  0.00  0.00    -0.150 OA
ATOM      3  O   UNL     1       3.853   6.169   0.438  0.00  0.00    -0.150 OA
ENDROOT
BRANCH   1   4
ATOM      4  C   UNL     1       4.768   4.989   2.517  0.00  0.00    +0.109 A 
ATOM      5  C   UNL     1       5.879   4.655   3.278  0.00  0.00    +0.032 A 
ATOM      6  C   UNL     1       5.751   4.364   4.620  0.00  0.00    +0.049 A 
ATOM      7  C   UNL     1       4.498   4.404   5.220  0.00  0.00    +0.139 A 
ATOM      8  C   UNL     1       3.375   4.743   4.445  0.00  0.00    +0.019 A 
ATOM      9  C   UNL     1       3.527   5.040   3.087  0.00  0.00    +0.040 A 
ATOM     10  C   UNL     1       2.057   4.783   5.085  0.00  0.00    +0.018 A 
ATOM     11  C   UNL     1       1.977   4.489   6.408  0.00  0.00    +0.092 A 
ATOM     12  C   UNL     1       3.147   4.157   7.124  0.00  0.00    +0.337 A 
ATOM     13  O   UNL     1       3.062   3.896   8.311  0.00  0.00    -0.245 OA
ATOM     14  O   UNL     1       4.351   4.123   6.532  0.00  0.00    -0.422 OA
ENDBRANCH   1   4
BRANCH   1  15
ATOM     15  N   UNL     1       4.795   3.931  -0.023  0.00  0.00    -0.209 N 
ATOM     16  H   UNL     1       5.648   3.517  -0.580  0.00  0.00    +0.174 HD
BRANCH  15  24
ATOM     17  C   UNL     1      -1.249   3.137   0.029  0.00  0.00    +0.001 A 
ATOM     18  C   UNL     1      -1.216   1.750   0.017  0.00  0.00    +0.004 A 
ATOM     19  C   UNL     1      -0.013   1.076   0.008  0.00  0.00    +0.047 A 
ATOM     20  C   UNL     1       1.181   1.788   0.000  0.00  0.00    +0.139 A 
ATOM     21  C   UNL     1       1.144   3.192   0.008  0.00  0.00    +0.019 A 
ATOM     22  C   UNL     1      -0.088   3.857   0.022  0.00  0.00    +0.011 A 
ATOM     23  C   UNL     1       2.399   3.949  -0.000  0.00  0.00    +0.043 A 
ATOM     24  C   UNL     1       3.571   3.255  -0.015  0.00  0.00    +0.133 A 
ATOM     25  C   UNL     1       3.532   1.792  -0.022  0.00  0.00    +0.360 A 
ATOM     26  O   UNL     1       4.575   1.163  -0.034  0.00  0.00    -0.243 OA
ATOM     27  O   UNL     1       2.362   1.134  -0.014  0.00  0.00    -0.421 OA
ENDBRANCH  15  24
ENDBRANCH   1  15
TORSDOF 3
