REMARK  Name = ZINC45892160
REMARK  8 active torsions:
REMARK  status: ('A' for Active; 'I' for Inactive)
REMARK    1  A    between atoms: C_1  and  C_2
REMARK    2  A    between atoms: C_2  and  C_3
REMARK    3  A    between atoms: C_3  and  C_4
REMARK    4  A    between atoms: C_5  and  C_17
REMARK    5  A    between atoms: N_8  and  C_9
REMARK    6  A    between atoms: C_12  and  C_16
REMARK    7  A    between atoms: C_13  and  C_15
REMARK    8  A    between atoms: C_17  and  O_18
REMARK                            x       y       z     vdW  Elec       q    Type
REMARK                         _______ _______ _______ _____ _____    ______ ____
ROOT
ATOM      1  C   UNL     1       1.002  -2.042   1.400  0.00  0.00    +0.070 A 
ATOM      2  C   UNL     1       0.053  -2.942   1.752  0.00  0.00    +0.112 A 
ATOM      3  N   UNL     1       0.411  -4.107   1.200  0.00  0.00    -0.132 NA
ATOM      4  N   UNL     1       1.508  -3.944   0.549  0.00  0.00    -0.060 NA
ATOM      5  N   UNL     1       1.899  -2.721   0.634  0.00  0.00    -0.217 N 
ENDROOT
BRANCH   5   6
ATOM      6  C   UNL     1       3.051  -2.181   0.044  0.00  0.00    +0.068 A 
ATOM      7  C   UNL     1       2.995  -0.948  -0.591  0.00  0.00    +0.028 A 
ATOM      8  C   UNL     1       4.131  -0.419  -1.172  0.00  0.00    +0.006 A 
ATOM      9  C   UNL     1       5.324  -1.117  -1.121  0.00  0.00    -0.047 A 
ATOM     10  C   UNL     1       5.383  -2.346  -0.490  0.00  0.00    -0.046 A 
ATOM     11  C   UNL     1       4.251  -2.877   0.098  0.00  0.00    +0.031 A 
ATOM     12  C   UNL     1       6.685  -3.103  -0.437  0.00  0.00    +0.044 C 
ATOM     13  C   UNL     1       6.562  -0.538  -1.756  0.00  0.00    +0.044 C 
ENDBRANCH   5   6
BRANCH   1  14
ATOM     14  C   UNL     1       1.050  -0.584   1.776  0.00  0.00    +0.057 C 
BRANCH  14  16
ATOM     15  C   UNL     1       1.976   1.076   3.398  0.00  0.00    +0.004 C 
ATOM     16  C   UNL     1       1.933  -0.404   3.012  0.00  0.00    +0.003 C 
ENDBRANCH  14  16
ENDBRANCH   1  14
BRANCH   2  17
ATOM     17  C   UNL     1      -1.166  -2.683   2.598  0.00  0.00    +0.214 C 
BRANCH  17  18
ATOM     18  O   UNL     1      -2.254  -2.292   1.759  0.00  0.00    -0.389 OA
ATOM     19  H   UNL     1      -3.074  -2.109   2.238  0.00  0.00    +0.210 HD
ENDBRANCH  17  18
ENDBRANCH   2  17
TORSDOF 5
