REMARK  Name = ZINC39774288
REMARK  7 active torsions:
REMARK  status: ('A' for Active; 'I' for Inactive)
REMARK    1  A    between atoms: C_1  and  C_2
REMARK    2  A    between atoms: C_10  and  O_40
REMARK    3  A    between atoms: N_22  and  N_23
REMARK    4  A    between atoms: C_24  and  C_26
REMARK    5  A    between atoms: C_26  and  C_27
REMARK    6  A    between atoms: C_26  and  C_33
REMARK    7  A    between atoms: C_26  and  O_39
REMARK                            x       y       z     vdW  Elec       q    Type
REMARK                         _______ _______ _______ _____ _____    ______ ____
ROOT
ATOM      1  C   UNL     1       0.609   2.993  -1.043  0.00  0.00    +0.018 C 
ATOM      2  C   UNL     1       0.532   1.520  -0.648  0.00  0.00    +0.011 C 
ATOM      3  C   UNL     1      -0.898   1.115  -0.374  0.00  0.00    +0.013 C 
ATOM      4  C   UNL     1      -1.387   1.840   0.886  0.00  0.00    +0.009 C 
ATOM      5  C   UNL     1      -0.516   1.513   2.096  0.00  0.00    +0.023 C 
ATOM      6  C   UNL     1      -1.021   2.263   3.302  0.00  0.00    -0.041 A 
ATOM      7  C   UNL     1      -2.251   1.878   3.824  0.00  0.00    +0.008 A 
ATOM      8  C   UNL     1      -2.774   2.510   4.931  0.00  0.00    +0.046 A 
ATOM      9  C   UNL     1      -2.068   3.543   5.530  0.00  0.00    +0.117 A 
ATOM     10  C   UNL     1      -0.845   3.929   5.010  0.00  0.00    +0.049 A 
ATOM     11  C   UNL     1      -0.319   3.288   3.897  0.00  0.00    -0.040 A 
ATOM     12  C   UNL     1       1.018   3.757   3.383  0.00  0.00    +0.036 C 
ATOM     13  C   UNL     1       1.173   3.341   1.913  0.00  0.00    +0.009 C 
ATOM     14  C   UNL     1       0.959   1.836   1.839  0.00  0.00    +0.001 C 
ATOM     15  C   UNL     1       1.404   1.175   0.576  0.00  0.00    +0.005 C 
ATOM     16  C   UNL     1       2.811   1.463   0.039  0.00  0.00    +0.010 C 
ATOM     17  C   UNL     1       2.728   0.899  -1.409  0.00  0.00    +0.053 C 
ATOM     18  C   UNL     1       1.245   0.729  -1.728  0.00  0.00    +0.043 C 
ATOM     19  N   UNL     1       0.712   0.073  -2.679  0.00  0.00    -0.189 NA
ENDROOT
BRANCH  19  20
ATOM     20  N   UNL     1       1.519  -0.608  -3.600  0.00  0.00    -0.204 N 
ATOM     21  C   UNL     1       0.955  -1.302  -4.607  0.00  0.00    +0.273 C 
ATOM     22  O   UNL     1      -0.253  -1.337  -4.718  0.00  0.00    -0.270 OA
ATOM     23  H   UNL     1       2.485  -0.580  -3.511  0.00  0.00    +0.177 HD
BRANCH  21  24
ATOM     24  C   UNL     1       1.823  -2.034  -5.597  0.00  0.00    +0.194 C 
BRANCH  24  25
ATOM     25  C   UNL     1       2.173  -3.394  -5.049  0.00  0.00    -0.003 A 
ATOM     26  C   UNL     1       1.220  -4.132  -4.372  0.00  0.00    +0.007 A 
ATOM     27  C   UNL     1       1.541  -5.379  -3.869  0.00  0.00    +0.000 A 
ATOM     28  C   UNL     1       2.814  -5.888  -4.043  0.00  0.00    +0.000 A 
ATOM     29  C   UNL     1       3.767  -5.150  -4.721  0.00  0.00    +0.000 A 
ATOM     30  C   UNL     1       3.445  -3.905  -5.227  0.00  0.00    +0.007 A 
ENDBRANCH  24  25
BRANCH  24  31
ATOM     31  C   UNL     1       1.079  -2.194  -6.898  0.00  0.00    -0.003 A 
ATOM     32  C   UNL     1       1.547  -1.575  -8.042  0.00  0.00    +0.007 A 
ATOM     33  C   UNL     1       0.865  -1.722  -9.235  0.00  0.00    +0.000 A 
ATOM     34  C   UNL     1      -0.286  -2.486  -9.284  0.00  0.00    +0.000 A 
ATOM     35  C   UNL     1      -0.754  -3.105  -8.140  0.00  0.00    +0.000 A 
ATOM     36  C   UNL     1      -0.069  -2.962  -6.948  0.00  0.00    +0.007 A 
ENDBRANCH  24  31
BRANCH  24  37
ATOM     37  O   UNL     1       3.022  -1.289  -5.822  0.00  0.00    -0.371 OA
ATOM     38  H   UNL     1       2.872  -0.402  -6.176  0.00  0.00    +0.212 HD
ENDBRANCH  24  37
ENDBRANCH  21  24
ENDBRANCH  19  20
BRANCH   9  39
ATOM     39  O   UNL     1      -2.576   4.173   6.622  0.00  0.00    -0.507 OA
ATOM     40  H   UNL     1      -2.316   3.773   7.463  0.00  0.00    +0.292 HD
ENDBRANCH   9  39
TORSDOF 6
