REMARK  Name = ZINC63958640
REMARK  5 active torsions:
REMARK  status: ('A' for Active; 'I' for Inactive)
REMARK    1  A    between atoms: C_1  and  C_2
REMARK    2  A    between atoms: C_10  and  C_14
REMARK    3  A    between atoms: C_14  and  N_15
REMARK    4  A    between atoms: C_16  and  C_18
REMARK    5  A    between atoms: C_18  and  C_19
REMARK                            x       y       z     vdW  Elec       q    Type
REMARK                         _______ _______ _______ _____ _____    ______ ____
ROOT
ATOM      1  N   UNL     1       4.871  -2.550   4.093  0.00  0.00    -0.311 N 
ATOM      2  C   UNL     1       5.456  -3.279   5.064  0.00  0.00    +0.214 C 
ATOM      3  O   UNL     1       5.386  -2.917   6.220  0.00  0.00    -0.276 OA
ATOM      4  H   UNL     1       4.928  -2.840   3.169  0.00  0.00    +0.149 HD
ENDROOT
BRANCH   1   5
ATOM      5  C   UNL     1       4.151  -1.321   4.433  0.00  0.00    +0.139 C 
BRANCH   5  14
ATOM      6  C   UNL     1      -0.250   1.264  -0.009  0.00  0.00    +0.054 C 
ATOM      7  C   UNL     1      -0.088  -0.254  -0.112  0.00  0.00    +0.189 C 
ATOM      8  N   UNL     1      -1.402  -0.890  -0.188  0.00  0.00    -0.272 NA
ATOM      9  C   UNL     1      -1.591  -1.688   0.784  0.00  0.00    +0.099 C 
ATOM     10  C   UNL     1      -0.385  -1.704   1.687  0.00  0.00    +0.155 C 
ATOM     11  N   UNL     1       0.586  -0.767   1.091  0.00  0.00    -0.290 N 
ATOM     12  C   UNL     1       1.853  -0.441   1.559  0.00  0.00    +0.101 A 
ATOM     13  C   UNL     1       2.332  -1.035   2.722  0.00  0.00    +0.047 A 
ATOM     14  C   UNL     1       3.595  -0.701   3.177  0.00  0.00    -0.026 A 
ATOM     15  C   UNL     1       4.340   0.219   2.450  0.00  0.00    +0.023 A 
ATOM     16  C   UNL     1       3.802   0.769   1.304  0.00  0.00    +0.084 A 
ATOM     17  N   UNL     1       2.596   0.428   0.891  0.00  0.00    -0.350 N 
ATOM     18  H   UNL     1       2.243   0.827   0.080  0.00  0.00    +0.166 HD
ENDBRANCH   5  14
ENDBRANCH   1   5
BRANCH   2  19
ATOM     19  C   UNL     1       6.197  -4.544   4.715  0.00  0.00    +0.112 C 
BRANCH  19  20
ATOM     20  C   UNL     1       6.898  -5.086   5.963  0.00  0.00    +0.107 C 
ATOM     21  C   UNL     1       7.851  -4.018   6.463  0.00  0.00    -0.004 C 
ATOM     22  C   UNL     1       9.168  -4.353   6.562  0.00  0.00    -0.007 A 
ATOM     23  C   UNL     1      10.156  -3.382   7.035  0.00  0.00    +0.009 A 
ATOM     24  C   UNL     1      11.458  -3.760   7.117  0.00  0.00    +0.001 A 
ATOM     25  C   UNL     1      11.865  -5.046   6.761  0.00  0.00    +0.002 A 
ATOM     26  C   UNL     1      10.998  -5.992   6.314  0.00  0.00    +0.024 A 
ATOM     27  C   UNL     1       9.626  -5.704   6.193  0.00  0.00    +0.040 A 
ATOM     28  N   UNL     1       8.785  -6.640   5.755  0.00  0.00    -0.284 N 
ATOM     29  C   UNL     1       7.487  -6.434   5.615  0.00  0.00    +0.225 C 
ATOM     30  O   UNL     1       6.768  -7.328   5.209  0.00  0.00    -0.275 OA
ATOM     31  H   UNL     1       9.142  -7.512   5.527  0.00  0.00    +0.155 HD
ENDBRANCH  19  20
ENDBRANCH   2  19
TORSDOF 4
