REMARK  Name = ZINC05418491
REMARK  10 active torsions:
REMARK  status: ('A' for Active; 'I' for Inactive)
REMARK    1  A    between atoms: C_1  and  C_2
REMARK    2  A    between atoms: C_2  and  C_3
REMARK    3  A    between atoms: C_3  and  C_4
REMARK    4  A    between atoms: C_4  and  C_5
REMARK    5  A    between atoms: C_5  and  C_6
REMARK    6  A    between atoms: C_6  and  C_7
REMARK    7  A    between atoms: C_12  and  O_13
REMARK    8  A    between atoms: C_15  and  N_28
REMARK    9  A    between atoms: C_16  and  C_26
REMARK   10  A    between atoms: C_17  and  C_19
REMARK                            x       y       z     vdW  Elec       q    Type
REMARK                         _______ _______ _______ _____ _____    ______ ____
ROOT
ATOM      1  C   UNL     1      -1.318  -4.615  -1.204  0.00  0.00    -0.005 A 
ATOM      2  C   UNL     1      -0.111  -4.056  -0.831  0.00  0.00    +0.015 A 
ATOM      3  C   UNL     1      -0.050  -2.736  -0.423  0.00  0.00    +0.008 A 
ATOM      4  C   UNL     1      -1.203  -1.968  -0.387  0.00  0.00    +0.138 A 
ATOM      5  C   UNL     1      -2.418  -2.527  -0.761  0.00  0.00    +0.092 A 
ATOM      6  C   UNL     1      -2.475  -3.850  -1.169  0.00  0.00    +0.124 A 
ATOM      7  O   UNL     1      -1.164  -0.672   0.015  0.00  0.00    -0.441 OA
ATOM      8  C   UNL     1       0.002  -0.004   0.002  0.00  0.00    +0.199 C 
ATOM      9  C   UNL     1       1.195  -0.645  -0.013  0.00  0.00    +0.098 C 
ATOM     10  C   UNL     1       1.276  -2.145  -0.021  0.00  0.00    +0.098 C 
ENDROOT
BRANCH  10  11
ATOM     11  C   UNL     1       1.639  -2.634   1.357  0.00  0.00    -0.035 A 
ATOM     12  C   UNL     1       0.818  -2.343   2.432  0.00  0.00    +0.006 A 
ATOM     13  C   UNL     1       1.148  -2.795   3.695  0.00  0.00    +0.020 A 
ATOM     14  C   UNL     1       2.304  -3.529   3.887  0.00  0.00    +0.041 A 
ATOM     15  C   UNL     1       3.128  -3.815   2.813  0.00  0.00    +0.020 A 
ATOM     16  C   UNL     1       2.795  -3.367   1.549  0.00  0.00    +0.006 A 
ATOM     17 CL   UNL     1       2.723  -4.091   5.476  0.00  0.00    -0.084 Cl
ENDBRANCH  10  11
BRANCH   8  18
ATOM     18  N   UNL     1      -0.017   1.368   0.010  0.00  0.00    -0.328 N 
ATOM     19  H   UNL     1       0.817   1.865   0.004  0.00  0.00    +0.145 HD
ATOM     20  H   UNL     1      -0.863   1.842   0.016  0.00  0.00    +0.145 HD
ENDBRANCH   8  18
BRANCH   6  21
ATOM     21  O   UNL     1      -3.664  -4.398  -1.536  0.00  0.00    -0.506 OA
ATOM     22  H   UNL     1      -4.149  -4.808  -0.807  0.00  0.00    +0.292 HD
ENDBRANCH   6  21
BRANCH   9  23
ATOM     23  C   UNL     1       2.404   0.123  -0.021  0.00  0.00    +0.101 C 
ATOM     24  N   UNL     1       3.362   0.732  -0.028  0.00  0.00    -0.191 NA
ENDBRANCH   9  23
BRANCH   1  25
ATOM     25  C   UNL     1      -1.378  -6.053  -1.647  0.00  0.00    +0.039 C 
BRANCH  25  26
ATOM     26  C   UNL     1      -1.872  -6.924  -0.490  0.00  0.00    +0.005 C 
BRANCH  26  27
ATOM     27  C   UNL     1      -1.933  -8.385  -0.941  0.00  0.00    +0.000 C 
BRANCH  27  28
ATOM     28  C   UNL     1      -2.427  -9.255   0.216  0.00  0.00    -0.000 C 
BRANCH  28  30
ATOM     29  C   UNL     1      -2.982 -11.587   0.922  0.00  0.00    +0.004 C 
ATOM     30  C   UNL     1      -2.488 -10.716  -0.235  0.00  0.00    -0.003 C 
ENDBRANCH  28  30
ENDBRANCH  27  28
ENDBRANCH  26  27
ENDBRANCH  25  26
ENDBRANCH   1  25
TORSDOF 9
