REMARK  Name = ZINC45974400
REMARK  8 active torsions:
REMARK  status: ('A' for Active; 'I' for Inactive)
REMARK    1  A    between atoms: C_1  and  C_2
REMARK    2  A    between atoms: C_2  and  C_3
REMARK    3  A    between atoms: C_6  and  S_9
REMARK    4  A    between atoms: S_9  and  N_12
REMARK    5  A    between atoms: N_12  and  C_13
REMARK    6  A    between atoms: N_12  and  C_20
REMARK    7  A    between atoms: C_13  and  C_14
REMARK    8  A    between atoms: C_20  and  C_21
REMARK                            x       y       z     vdW  Elec       q    Type
REMARK                         _______ _______ _______ _____ _____    ______ ____
ROOT
ATOM      1  N   UNL     1       3.400  -0.674   5.753  0.00  0.00    -0.165 NA
ENDROOT
BRANCH   1   2
ATOM      2  S   UNL     1       2.920  -2.003   4.890  0.00  0.00    +0.061 S 
ATOM      3  O   UNL     1       1.959  -2.680   5.688  0.00  0.00    -0.153 OA
ATOM      4  O   UNL     1       4.105  -2.635   4.425  0.00  0.00    -0.153 OA
BRANCH   2   8
ATOM      5  C   UNL     1       0.731  -0.503   1.223  0.00  0.00    -0.048 A 
ATOM      6  C   UNL     1       2.097  -0.710   1.176  0.00  0.00    +0.005 A 
ATOM      7  C   UNL     1       2.766  -1.167   2.296  0.00  0.00    +0.029 A 
ATOM      8  C   UNL     1       2.068  -1.419   3.463  0.00  0.00    +0.106 A 
ATOM      9  C   UNL     1       0.702  -1.212   3.510  0.00  0.00    +0.029 A 
ATOM     10  C   UNL     1       0.034  -0.750   2.391  0.00  0.00    +0.005 A 
BRANCH   5  12
ATOM     11  C   UNL     1      -0.019   1.526   0.010  0.00  0.00    +0.009 C 
ATOM     12  C   UNL     1       0.002  -0.004   0.002  0.00  0.00    +0.032 C 
ENDBRANCH   5  12
ENDBRANCH   2   8
ENDBRANCH   1   2
BRANCH   1  13
ATOM     13  C   UNL     1       2.519  -0.109   6.778  0.00  0.00    +0.141 C 
BRANCH  13  14
ATOM     14  C   UNL     1       2.896  -0.680   8.146  0.00  0.00    +0.134 C 
ATOM     15  C   UNL     1       1.953  -0.122   9.241  0.00  0.00    +0.035 C 
ATOM     16  C   UNL     1       2.053  -1.239  10.315  0.00  0.00    +0.031 C 
ATOM     17  C   UNL     1       2.211  -2.510   9.452  0.00  0.00    +0.160 C 
ATOM     18  O   UNL     1       2.696  -2.102   8.165  0.00  0.00    -0.375 OA
ENDBRANCH  13  14
ENDBRANCH   1  13
BRANCH   1  19
ATOM     19  C   UNL     1       4.705  -0.063   5.491  0.00  0.00    +0.205 C 
BRANCH  19  20
ATOM     20  C   UNL     1       4.541   1.075   4.517  0.00  0.00    +0.231 C 
ATOM     21  O   UNL     1       3.442   1.349   4.084  0.00  0.00    -0.274 OA
ATOM     22  N   UNL     1       5.616   1.789   4.127  0.00  0.00    -0.304 N 
ATOM     23  C   UNL     1       6.959   1.471   4.635  0.00  0.00    +0.089 C 
ATOM     24  C   UNL     1       7.914   1.353   3.442  0.00  0.00    -0.063 C 
ATOM     25  N   UNL     1       7.844   2.580   2.638  0.00  0.00    +0.381 N 
ATOM     26  C   UNL     1       6.503   2.722   2.058  0.00  0.00    -0.063 C 
ATOM     27  C   UNL     1       5.479   2.904   3.178  0.00  0.00    +0.089 C 
ATOM     28  H   UNL     1       8.042   3.377   3.224  0.00  0.00    -0.086 HD
ATOM     29  H   UNL     1       8.527   2.533   1.896  0.00  0.00    -0.086 HD
ENDBRANCH  19  20
ENDBRANCH   1  19
TORSDOF 7
