REMARK  Name = ZINC13552970
REMARK  12 active torsions:
REMARK  status: ('A' for Active; 'I' for Inactive)
REMARK    1  A    between atoms: C_1  and  C_2
REMARK    2  A    between atoms: C_2  and  N_3
REMARK    3  A    between atoms: C_4  and  C_23
REMARK    4  A    between atoms: C_7  and  S_8
REMARK    5  A    between atoms: S_8  and  C_9
REMARK    6  A    between atoms: C_9  and  C_10
REMARK    7  A    between atoms: N_12  and  N_13
REMARK    8  A    between atoms: C_14  and  C_15
REMARK    9  A    between atoms: C_14  and  C_16
REMARK   10  A    between atoms: C_21  and  O_22
REMARK   11  A    between atoms: C_26  and  O_29
REMARK   12  A    between atoms: O_29  and  C_30
REMARK                            x       y       z     vdW  Elec       q    Type
REMARK                         _______ _______ _______ _____ _____    ______ ____
ROOT
ATOM      1  S   UNL     1      -1.666   0.100  -2.867  0.00  0.00    -0.077 S 
ENDROOT
BRANCH   1   6
ATOM      2  N   UNL     1      -1.206   0.133  -0.108  0.00  0.00    -0.302 N 
ATOM      3  C   UNL     1      -1.906  -0.233   1.019  0.00  0.00    +0.165 A 
ATOM      4  N   UNL     1      -3.060  -0.711   0.616  0.00  0.00    -0.128 NA
ATOM      5  N   UNL     1      -3.129  -0.670  -0.666  0.00  0.00    -0.122 NA
ATOM      6  C   UNL     1      -2.025  -0.159  -1.161  0.00  0.00    +0.192 A 
BRANCH   3   7
ATOM      7  C   UNL     1      -1.445  -0.111   2.418  0.00  0.00    +0.020 A 
ATOM      8  C   UNL     1      -2.050  -0.868   3.423  0.00  0.00    +0.015 A 
ATOM      9  C   UNL     1      -1.617  -0.752   4.726  0.00  0.00    +0.046 A 
ATOM     10  C   UNL     1      -0.580   0.117   5.040  0.00  0.00    +0.120 A 
ATOM     11  C   UNL     1       0.024   0.872   4.044  0.00  0.00    +0.046 A 
ATOM     12  C   UNL     1      -0.399   0.756   2.737  0.00  0.00    +0.015 A 
BRANCH  10  13
ATOM     13  O   UNL     1      -0.157   0.229   6.327  0.00  0.00    -0.495 OA
ATOM     14  C   UNL     1       0.914   1.141   6.580  0.00  0.00    +0.277 C 
ENDBRANCH  10  13
ENDBRANCH   3   7
BRANCH   2  16
ATOM     15  C   UNL     1       0.025   2.244  -0.209  0.00  0.00    +0.027 C 
ATOM     16  C   UNL     1       0.136   0.718  -0.165  0.00  0.00    +0.122 C 
ENDBRANCH   2  16
ENDBRANCH   1   6
BRANCH   1  17
ATOM     17  C   UNL     1      -3.152  -0.492  -3.723  0.00  0.00    +0.174 C 
BRANCH  17  18
ATOM     18  C   UNL     1      -2.975  -0.325  -5.210  0.00  0.00    +0.242 C 
ATOM     19  O   UNL     1      -1.948   0.147  -5.650  0.00  0.00    -0.273 OA
ATOM     20  N   UNL     1      -3.959  -0.701  -6.052  0.00  0.00    -0.206 N 
ATOM     21  H   UNL     1      -4.780  -1.078  -5.700  0.00  0.00    +0.177 HD
BRANCH  20  22
ATOM     22  N   UNL     1      -3.794  -0.545  -7.434  0.00  0.00    -0.184 NA
ATOM     23  C   UNL     1      -4.780  -0.806  -8.238  0.00  0.00    +0.067 C 
ATOM     24  C   UNL     1      -4.631  -0.556  -9.717  0.00  0.00    +0.068 C 
BRANCH  23  25
ATOM     25  C   UNL     1      -6.043  -1.345  -7.705  0.00  0.00    +0.039 A 
ATOM     26  C   UNL     1      -6.836  -0.568  -6.857  0.00  0.00    +0.013 A 
ATOM     27  C   UNL     1      -8.018  -1.078  -6.362  0.00  0.00    +0.001 A 
ATOM     28  C   UNL     1      -8.422  -2.358  -6.701  0.00  0.00    +0.004 A 
ATOM     29  C   UNL     1      -7.646  -3.137  -7.539  0.00  0.00    +0.046 A 
ATOM     30  C   UNL     1      -6.459  -2.638  -8.050  0.00  0.00    +0.126 A 
BRANCH  30  31
ATOM     31  O   UNL     1      -5.699  -3.401  -8.877  0.00  0.00    -0.506 OA
ATOM     32  H   UNL     1      -5.098  -4.003  -8.417  0.00  0.00    +0.292 HD
ENDBRANCH  30  31
ENDBRANCH  23  25
ENDBRANCH  20  22
ENDBRANCH  17  18
ENDBRANCH   1  17
TORSDOF 9
