REMARK  Name = ZINC45026101
REMARK  4 active torsions:
REMARK  status: ('A' for Active; 'I' for Inactive)
REMARK    1  A    between atoms: C_4  and  N_7
REMARK    2  A    between atoms: C_8  and  C_21
REMARK    3  A    between atoms: C_11  and  S_12
REMARK    4  A    between atoms: S_12  and  C_13
REMARK                            x       y       z     vdW  Elec       q    Type
REMARK                         _______ _______ _______ _____ _____    ______ ____
ROOT
ATOM      1  N   UNL     1       3.623  -0.652  -0.037  0.00  0.00    -0.268 N 
ATOM      2  C   UNL     1       4.118  -1.454  -1.044  0.00  0.00    +0.205 A 
ATOM      3  N   UNL     1       5.293  -1.891  -0.645  0.00  0.00    -0.125 NA
ATOM      4  N   UNL     1       5.561  -1.425   0.522  0.00  0.00    -0.121 NA
ATOM      5  C   UNL     1       4.581  -0.658   0.941  0.00  0.00    +0.203 A 
ENDROOT
BRANCH   1   9
ATOM      6  C   UNL     1      -0.017   1.379   0.010  0.00  0.00    +0.000 A 
ATOM      7  C   UNL     1       1.170   2.089   0.002  0.00  0.00    +0.002 A 
ATOM      8  C   UNL     1       2.377   1.419  -0.013  0.00  0.00    +0.026 A 
ATOM      9  C   UNL     1       2.399   0.031  -0.021  0.00  0.00    +0.051 A 
ATOM     10  C   UNL     1       1.207  -0.680  -0.013  0.00  0.00    +0.026 A 
ATOM     11  C   UNL     1       0.002  -0.004   0.002  0.00  0.00    +0.002 A 
ENDBRANCH   1   9
BRANCH   2  12
ATOM     12  C   UNL     1       3.457  -1.762  -2.321  0.00  0.00    +0.172 A 
ATOM     13  C   UNL     1       4.051  -2.313  -3.417  0.00  0.00    +0.053 A 
ATOM     14  C   UNL     1       3.053  -2.430  -4.403  0.00  0.00    +0.042 A 
ATOM     15  C   UNL     1       1.911  -1.951  -3.870  0.00  0.00    +0.196 A 
ATOM     16  O   UNL     1       2.157  -1.554  -2.611  0.00  0.00    -0.460 OA
ENDBRANCH   2  12
BRANCH   5  17
ATOM     17  S   UNL     1       4.511   0.201   2.478  0.00  0.00    -0.030 S 
BRANCH  17  18
ATOM     18  C   UNL     1       6.030  -0.214   3.268  0.00  0.00    +0.111 A 
ATOM     19  C   UNL     1       6.329   0.290   4.535  0.00  0.00    +0.075 A 
ATOM     20  C   UNL     1       7.533  -0.063   5.117  0.00  0.00    +0.135 A 
ATOM     21  N   UNL     1       8.361  -0.864   4.460  0.00  0.00    -0.203 NA
ATOM     22  C   UNL     1       8.050  -1.326   3.258  0.00  0.00    +0.215 A 
ATOM     23  N   UNL     1       6.905  -1.016   2.669  0.00  0.00    -0.208 NA
ATOM     24  N   UNL     1       8.941  -2.159   2.604  0.00  0.00    -0.327 N 
ATOM     25 CL   UNL     1       7.955   0.535   6.691  0.00  0.00    -0.062 Cl
ATOM     26  H   UNL     1       9.781  -2.397   3.026  0.00  0.00    +0.145 HD
ATOM     27  H   UNL     1       8.725  -2.505   1.724  0.00  0.00    +0.145 HD
ENDBRANCH  17  18
ENDBRANCH   5  17
TORSDOF 4
