REMARK  Name = ZINC25155892
REMARK  8 active torsions:
REMARK  status: ('A' for Active; 'I' for Inactive)
REMARK    1  A    between atoms: C_1  and  C_2
REMARK    2  A    between atoms: C_8  and  C_29
REMARK    3  A    between atoms: C_12  and  C_13
REMARK    4  A    between atoms: N_15  and  C_16
REMARK    5  A    between atoms: C_16  and  C_17
REMARK    6  A    between atoms: C_17  and  C_19
REMARK    7  A    between atoms: C_17  and  N_24
REMARK    8  A    between atoms: C_29  and  C_30
REMARK                            x       y       z     vdW  Elec       q    Type
REMARK                         _______ _______ _______ _____ _____    ______ ____
ROOT
ATOM      1  C   UNL     1      -0.487   1.464   0.007  0.00  0.00    +0.046 C 
ATOM      2  C   UNL     1      -0.177  -0.011   0.002  0.00  0.00    -0.017 A 
ATOM      3  C   UNL     1      -0.015  -0.688  -1.209  0.00  0.00    +0.076 A 
ATOM      4  C   UNL     1      -0.101  -0.166  -2.592  0.00  0.00    +0.260 A 
ATOM      5  O   UNL     1      -0.344   1.009  -2.802  0.00  0.00    -0.267 OA
ATOM      6  N   UNL     1       0.098  -1.024  -3.612  0.00  0.00    -0.310 N 
ATOM      7  H   UNL     1       0.045  -0.698  -4.524  0.00  0.00    +0.170 HD
ATOM      8  C   UNL     1       0.370  -2.334  -3.389  0.00  0.00    +0.115 A 
ATOM      9  N   UNL     1       0.452  -2.826  -2.183  0.00  0.00    -0.226 NA
ATOM     10  C   UNL     1       0.274  -2.068  -1.109  0.00  0.00    +0.116 A 
ATOM     11  S   UNL     1       0.303  -2.352   0.643  0.00  0.00    -0.064 S 
ATOM     12  C   UNL     1      -0.050  -0.687   1.180  0.00  0.00    +0.079 A 
ENDROOT
BRANCH  12  13
ATOM     13  C   UNL     1      -0.174  -0.173   2.547  0.00  0.00    +0.251 C 
ATOM     14  O   UNL     1      -0.423   1.003   2.735  0.00  0.00    -0.270 OA
ATOM     15  N   UNL     1      -0.013  -1.004   3.597  0.00  0.00    -0.312 N 
ATOM     16  H   UNL     1       0.186  -1.941   3.447  0.00  0.00    +0.149 HD
BRANCH  15  17
ATOM     17  C   UNL     1      -0.137  -0.490   4.963  0.00  0.00    +0.094 C 
BRANCH  17  18
ATOM     18  C   UNL     1      -0.042  -1.652   5.955  0.00  0.00    -0.013 C 
BRANCH  18  19
ATOM     19  N   UNL     1      -0.035  -1.125   7.326  0.00  0.00    +0.386 N 
ATOM     20  C   UNL     1       0.078  -2.240   8.302  0.00  0.00    -0.078 C 
ATOM     21  C   UNL     1       0.629  -1.544   9.572  0.00  0.00    -0.020 C 
ATOM     22  C   UNL     1       1.614  -0.502   8.995  0.00  0.00    -0.020 C 
ATOM     23  C   UNL     1       1.158  -0.279   7.541  0.00  0.00    -0.078 C 
ATOM     24  H   UNL     1      -0.875  -0.594   7.499  0.00  0.00    -0.081 HD
ENDBRANCH  18  19
BRANCH  18  25
ATOM     25  C   UNL     1      -1.226  -2.566   5.773  0.00  0.00    -0.022 A 
ATOM     26  C   UNL     1      -1.300  -3.746   5.111  0.00  0.00    +0.009 A 
ATOM     27  C   UNL     1      -2.506  -4.420   5.075  0.00  0.00    +0.008 A 
ATOM     28  C   UNL     1      -3.580  -3.881   5.704  0.00  0.00    +0.045 A 
ATOM     29  S   UNL     1      -2.894  -2.378   6.381  0.00  0.00    -0.103 S 
ENDBRANCH  18  25
ENDBRANCH  17  18
ENDBRANCH  15  17
ENDBRANCH  12  13
BRANCH   8  30
ATOM     30  C   UNL     1       0.582  -3.247  -4.569  0.00  0.00    +0.109 C 
BRANCH  30  31
ATOM     31  C   UNL     1       0.868  -4.643  -4.078  0.00  0.00    -0.040 A 
ATOM     32  C   UNL     1       2.170  -5.035  -3.827  0.00  0.00    +0.004 A 
ATOM     33  C   UNL     1       2.432  -6.315  -3.377  0.00  0.00    +0.000 A 
ATOM     34  C   UNL     1       1.392  -7.204  -3.177  0.00  0.00    +0.000 A 
ATOM     35  C   UNL     1       0.090  -6.812  -3.426  0.00  0.00    +0.000 A 
ATOM     36  C   UNL     1      -0.173  -5.530  -3.873  0.00  0.00    +0.004 A 
ENDBRANCH  30  31
ENDBRANCH   8  30
TORSDOF 7
