REMARK  Name = ZINC03521559
REMARK  9 active torsions:
REMARK  status: ('A' for Active; 'I' for Inactive)
REMARK    1  A    between atoms: C_1  and  C_2
REMARK    2  A    between atoms: C_2  and  C_4
REMARK    3  A    between atoms: C_2  and  O_10
REMARK    4  A    between atoms: O_10  and  C_11
REMARK    5  A    between atoms: C_11  and  C_13
REMARK    6  A    between atoms: C_24  and  C_28
REMARK    7  A    between atoms: C_28  and  C_29
REMARK    8  A    between atoms: C_28  and  C_30
REMARK    9  A    between atoms: C_28  and  C_31
REMARK                            x       y       z     vdW  Elec       q    Type
REMARK                         _______ _______ _______ _____ _____    ______ ____
ROOT
ATOM      1  C   UNL     1       1.289  -2.659  -2.336  0.00  0.00    +0.073 A 
ATOM      2  C   UNL     1       1.512  -4.056  -2.274  0.00  0.00    +0.015 A 
ATOM      3  C   UNL     1       1.833  -4.800  -3.416  0.00  0.00    +0.011 A 
ATOM      4  C   UNL     1       2.041  -6.143  -3.309  0.00  0.00    +0.001 A 
ATOM      5  C   UNL     1       1.938  -6.785  -2.077  0.00  0.00    +0.002 A 
ATOM      6  C   UNL     1       1.627  -6.092  -0.948  0.00  0.00    +0.028 A 
ATOM      7  C   UNL     1       1.405  -4.704  -1.019  0.00  0.00    +0.072 A 
ATOM      8  N   UNL     1       1.096  -3.998   0.067  0.00  0.00    -0.251 NA
ATOM      9  C   UNL     1       0.881  -2.697   0.034  0.00  0.00    +0.046 A 
ATOM     10  C   UNL     1       0.971  -1.988  -1.156  0.00  0.00    -0.011 A 
ATOM     11  C   UNL     1       0.741  -0.502  -1.239  0.00  0.00    +0.042 C 
ATOM     12  C   UNL     1       0.002  -0.004   0.002  0.00  0.00    -0.001 C 
ATOM     13  C   UNL     1       0.743  -0.518   1.242  0.00  0.00    +0.010 C 
ATOM     14  C   UNL     1       0.533  -2.027   1.341  0.00  0.00    +0.056 C 
ENDROOT
BRANCH  12  15
ATOM     15  C   UNL     1      -0.019   1.526   0.010  0.00  0.00    -0.035 C 
ATOM     16  C   UNL     1       1.417   2.055  -0.000  0.00  0.00    +0.011 C 
ATOM     17  C   UNL     1      -0.759   2.033  -1.229  0.00  0.00    +0.011 C 
ATOM     18  C   UNL     1      -0.735   2.019   1.269  0.00  0.00    +0.011 C 
ENDBRANCH  12  15
BRANCH   1  19
ATOM     19  C   UNL     1       1.389  -1.932  -3.619  0.00  0.00    +0.341 C 
ATOM     20  O   UNL     1       2.453  -1.461  -3.968  0.00  0.00    -0.245 OA
BRANCH  19  21
ATOM     21  O   UNL     1       0.301  -1.791  -4.400  0.00  0.00    -0.449 OA
BRANCH  21  23
ATOM     22  C   UNL     1       0.209   0.424  -5.409  0.00  0.00    +0.062 C 
ATOM     23  C   UNL     1       0.473  -1.065  -5.646  0.00  0.00    +0.259 C 
BRANCH  23  24
ATOM     24  C   UNL     1      -0.497  -1.590  -6.672  0.00  0.00    +0.261 C 
ATOM     25  O   UNL     1      -1.320  -2.424  -6.358  0.00  0.00    -0.271 OA
ATOM     26  N   UNL     1      -0.451  -1.133  -7.939  0.00  0.00    -0.237 N 
ATOM     27  C   UNL     1      -1.319  -1.603  -8.857  0.00  0.00    +0.303 C 
ATOM     28  O   UNL     1      -2.144  -2.439  -8.542  0.00  0.00    -0.253 OA
ATOM     29  N   UNL     1      -1.273  -1.146 -10.124  0.00  0.00    -0.313 N 
ATOM     30  H   UNL     1       0.207  -0.466  -8.191  0.00  0.00    +0.159 HD
ATOM     31  H   UNL     1      -0.615  -0.479 -10.376  0.00  0.00    +0.146 HD
ATOM     32  H   UNL     1      -1.898  -1.485 -10.785  0.00  0.00    +0.146 HD
ENDBRANCH  23  24
ENDBRANCH  21  23
ENDBRANCH  19  21
ENDBRANCH   1  19
TORSDOF 5
