REMARK  Name = ZINC50636386
REMARK  6 active torsions:
REMARK  status: ('A' for Active; 'I' for Inactive)
REMARK    1  A    between atoms: C_1  and  C_2
REMARK    2  A    between atoms: C_4  and  C_14
REMARK    3  A    between atoms: C_5  and  C_13
REMARK    4  A    between atoms: N_6  and  C_7
REMARK    5  A    between atoms: C_15  and  C_16
REMARK    6  A    between atoms: N_18  and  C_19
REMARK                            x       y       z     vdW  Elec       q    Type
REMARK                         _______ _______ _______ _____ _____    ______ ____
ROOT
ATOM      1  C   UNL     1       0.243  -3.370  -1.452  0.00  0.00    +0.015 C 
ATOM      2  C   UNL     1       0.003  -3.307  -2.781  0.00  0.00    +0.068 C 
ENDROOT
BRANCH   1   6
ATOM      3  C   UNL     1      -0.548   1.442   0.033  0.00  0.00    +0.063 C 
ATOM      4  C   UNL     1      -0.232  -0.031   0.012  0.00  0.00    +0.017 A 
ATOM      5  C   UNL     1      -0.248  -0.816  -1.079  0.00  0.00    +0.030 A 
ATOM      6  C   UNL     1       0.122  -2.163  -0.627  0.00  0.00    -0.004 A 
ATOM      7  C   UNL     1       0.332  -2.061   0.734  0.00  0.00    +0.023 A 
ATOM      8  N   UNL     1       0.122  -0.779   1.097  0.00  0.00    -0.345 N 
ATOM      9  C   UNL     1       0.734  -3.186   1.653  0.00  0.00    +0.064 C 
BRANCH   8  10
ATOM     10  C   UNL     1       0.252  -0.265   2.462  0.00  0.00    +0.087 C 
ATOM     11  C   UNL     1       1.627  -0.637   3.019  0.00  0.00    +0.025 C 
ATOM     12  C   UNL     1       1.763  -0.099   4.445  0.00  0.00    +0.002 C 
ATOM     13  C   UNL     1       0.673  -0.712   5.327  0.00  0.00    +0.000 C 
ATOM     14  C   UNL     1      -0.703  -0.340   4.770  0.00  0.00    +0.002 C 
ATOM     15  C   UNL     1      -0.838  -0.878   3.344  0.00  0.00    +0.025 C 
ENDBRANCH   8  10
ENDBRANCH   1   6
BRANCH   2  16
ATOM     16  C   UNL     1       0.120  -4.473  -3.578  0.00  0.00    +0.237 C 
ATOM     17  O   UNL     1       0.437  -5.531  -3.066  0.00  0.00    -0.271 OA
ATOM     18  N   UNL     1      -0.119  -4.410  -4.903  0.00  0.00    -0.301 N 
ATOM     19  H   UNL     1      -0.371  -3.567  -5.311  0.00  0.00    +0.150 HD
BRANCH  18  20
ATOM     20  C   UNL     1       0.002  -5.616  -5.727  0.00  0.00    +0.159 C 
ATOM     21  C   UNL     1      -0.878  -5.472  -6.971  0.00  0.00    +0.033 C 
ATOM     22  C   UNL     1      -0.531  -6.604  -7.944  0.00  0.00    +0.021 C 
ATOM     23  C   UNL     1       0.889  -6.383  -8.467  0.00  0.00    +0.104 C 
ATOM     24  N   UNL     1       1.812  -6.164  -7.361  0.00  0.00    -0.314 N 
ATOM     25  C   UNL     1       1.435  -5.799  -6.136  0.00  0.00    +0.233 C 
ATOM     26  O   UNL     1       2.298  -5.605  -5.306  0.00  0.00    -0.274 OA
ATOM     27  H   UNL     1       2.759  -6.291  -7.527  0.00  0.00    +0.149 HD
ENDBRANCH  18  20
ENDBRANCH   2  16
TORSDOF 4
