REMARK  Name = ZINC54616935
REMARK  11 active torsions:
REMARK  status: ('A' for Active; 'I' for Inactive)
REMARK    1  A    between atoms: C_1  and  C_2
REMARK    2  A    between atoms: C_2  and  C_3
REMARK    3  A    between atoms: C_3  and  O_4
REMARK    4  A    between atoms: O_4  and  C_5
REMARK    5  A    between atoms: C_10  and  C_11
REMARK    6  A    between atoms: C_13  and  C_22
REMARK    7  A    between atoms: C_14  and  C_21
REMARK    8  A    between atoms: N_24  and  C_25
REMARK    9  A    between atoms: C_30  and  O_31
REMARK   10  A    between atoms: O_31  and  C_32
REMARK   11  A    between atoms: C_32  and  C_33
REMARK                            x       y       z     vdW  Elec       q    Type
REMARK                         _______ _______ _______ _____ _____    ______ ____
ROOT
ATOM      1  C   UNL     1       1.048  -4.431   1.139  0.00  0.00    +0.182 C 
ATOM      2  C   UNL     1      -0.060  -5.361   1.558  0.00  0.00    +0.060 C 
ATOM      3  C   UNL     1       0.069  -6.695   1.572  0.00  0.00    +0.018 C 
ATOM      4  N   UNL     1       1.229  -7.324   1.190  0.00  0.00    -0.286 N 
ATOM      5  C   UNL     1       2.186  -6.557   0.541  0.00  0.00    +0.240 A 
ATOM      6  N   UNL     1       2.112  -5.201   0.505  0.00  0.00    -0.201 N 
ATOM      7  N   UNL     1       3.222  -4.785  -0.228  0.00  0.00    -0.042 NA
ATOM      8  N   UNL     1       3.863  -5.857  -0.564  0.00  0.00    -0.021 NA
ATOM      9  N   UNL     1       3.258  -6.903  -0.112  0.00  0.00    -0.092 NA
ATOM     10  C   UNL     1      -1.099  -7.535   2.022  0.00  0.00    +0.061 C 
ATOM     11  H   UNL     1       1.373  -8.267   1.367  0.00  0.00    +0.155 HD
ENDROOT
BRANCH   1  17
ATOM     12  C   UNL     1       1.455  -2.347   2.471  0.00  0.00    +0.126 A 
ATOM     13  C   UNL     1       1.953  -1.696   3.591  0.00  0.00    +0.047 A 
ATOM     14  C   UNL     1       2.592  -2.418   4.580  0.00  0.00    +0.019 A 
ATOM     15  C   UNL     1       2.735  -3.789   4.456  0.00  0.00    +0.018 A 
ATOM     16  C   UNL     1       2.239  -4.439   3.340  0.00  0.00    +0.025 A 
ATOM     17  C   UNL     1       1.594  -3.721   2.351  0.00  0.00    +0.024 A 
ATOM     18 BR   UNL     1       3.609  -4.774   5.812  0.00  0.00    -0.050 Br
BRANCH  12  19
ATOM     19  O   UNL     1       0.826  -1.638   1.496  0.00  0.00    -0.492 OA
BRANCH  19  20
ATOM     20  C   UNL     1       0.602  -0.249   1.746  0.00  0.00    +0.229 C 
BRANCH  20  22
ATOM     21  C   UNL     1      -0.352   1.859   0.804  0.00  0.00    +0.007 C 
ATOM     22  C   UNL     1      -0.215   0.349   0.599  0.00  0.00    +0.038 C 
ENDBRANCH  20  22
ENDBRANCH  19  20
ENDBRANCH  12  19
ENDBRANCH   1  17
BRANCH   2  23
ATOM     23  C   UNL     1      -1.296  -4.799   1.957  0.00  0.00    +0.248 C 
ATOM     24  O   UNL     1      -2.102  -4.442   1.116  0.00  0.00    -0.270 OA
ATOM     25  N   UNL     1      -1.581  -4.659   3.267  0.00  0.00    -0.279 N 
ATOM     26  H   UNL     1      -0.913  -4.878   3.934  0.00  0.00    +0.155 HD
BRANCH  25  27
ATOM     27  C   UNL     1      -2.843  -4.197   3.663  0.00  0.00    +0.076 A 
ATOM     28  C   UNL     1      -3.913  -4.253   2.781  0.00  0.00    +0.027 A 
ATOM     29  C   UNL     1      -5.156  -3.797   3.175  0.00  0.00    +0.002 A 
ATOM     30  C   UNL     1      -5.338  -3.284   4.446  0.00  0.00    +0.004 A 
ATOM     31  C   UNL     1      -4.277  -3.225   5.330  0.00  0.00    +0.047 A 
ATOM     32  C   UNL     1      -3.028  -3.686   4.946  0.00  0.00    +0.142 A 
BRANCH  32  33
ATOM     33  O   UNL     1      -1.985  -3.634   5.816  0.00  0.00    -0.490 OA
BRANCH  33  34
ATOM     34  C   UNL     1      -2.271  -3.198   7.146  0.00  0.00    +0.226 C 
ATOM     35  C   UNL     1      -0.970  -3.119   7.948  0.00  0.00    +0.048 C 
ENDBRANCH  33  34
ENDBRANCH  32  33
ENDBRANCH  25  27
ENDBRANCH   2  23
TORSDOF 8
