REMARK  Name = ZINC01190046
REMARK  9 active torsions:
REMARK  status: ('A' for Active; 'I' for Inactive)
REMARK    1  A    between atoms: C_1  and  C_2
REMARK    2  A    between atoms: C_2  and  O_3
REMARK    3  A    between atoms: O_3  and  C_4
REMARK    4  A    between atoms: C_7  and  C_10
REMARK    5  A    between atoms: C_12  and  C_16
REMARK    6  A    between atoms: N_18  and  N_19
REMARK    7  A    between atoms: C_20  and  C_21
REMARK    8  A    between atoms: C_24  and  O_28
REMARK    9  A    between atoms: C_26  and  O_27
REMARK                            x       y       z     vdW  Elec       q    Type
REMARK                         _______ _______ _______ _____ _____    ______ ____
ROOT
ATOM      1  C   UNL     1      -1.156  -0.694   0.009  0.00  0.00    +0.281 C 
ATOM      2  O   UNL     1      -2.218  -0.100   0.023  0.00  0.00    -0.267 OA
ATOM      3  N   UNL     1       0.002  -0.004   0.002  0.00  0.00    -0.202 N 
ATOM      4  H   UNL     1       0.849  -0.478  -0.009  0.00  0.00    +0.178 HD
ENDROOT
BRANCH   1   7
ATOM      5  C   UNL     1      -1.699  -4.309  -0.005  0.00  0.00    +0.093 A 
ATOM      6  C   UNL     1      -2.232  -3.007   0.013  0.00  0.00    +0.062 A 
ATOM      7  C   UNL     1      -1.136  -2.165   0.001  0.00  0.00    +0.122 A 
ATOM      8  N   UNL     1      -0.030  -2.968  -0.013  0.00  0.00    -0.272 N 
ATOM      9  H   UNL     1       0.915  -2.644  -0.020  0.00  0.00    +0.189 HD
ATOM     10  N   UNL     1      -0.387  -4.202  -0.017  0.00  0.00    -0.173 NA
BRANCH   5  14
ATOM     11  C   UNL     1      -3.923  -7.936  -0.003  0.00  0.00    +0.121 A 
ATOM     12  C   UNL     1      -2.536  -7.974  -0.016  0.00  0.00    +0.046 A 
ATOM     13  C   UNL     1      -1.812  -6.800  -0.017  0.00  0.00    +0.013 A 
ATOM     14  C   UNL     1      -2.475  -5.575  -0.004  0.00  0.00    +0.002 A 
ATOM     15  C   UNL     1      -3.868  -5.539   0.015  0.00  0.00    +0.013 A 
ATOM     16  C   UNL     1      -4.586  -6.716   0.010  0.00  0.00    +0.046 A 
BRANCH  11  17
ATOM     17  O   UNL     1      -4.634  -9.094  -0.002  0.00  0.00    -0.492 OA
BRANCH  17  19
ATOM     18  C   UNL     1      -6.681 -10.379   0.009  0.00  0.00    +0.048 C 
ATOM     19  C   UNL     1      -6.058  -8.982   0.011  0.00  0.00    +0.225 C 
ENDBRANCH  17  19
ENDBRANCH  11  17
ENDBRANCH   5  14
ENDBRANCH   1   7
BRANCH   3  20
ATOM     20  N   UNL     1      -0.017   1.397   0.010  0.00  0.00    -0.187 NA
ATOM     21  C   UNL     1       1.099   2.061   0.003  0.00  0.00    +0.142 C 
BRANCH  21  22
ATOM     22  C   UNL     1       1.079   3.534   0.011  0.00  0.00    +0.036 A 
ATOM     23  C   UNL     1       2.278   4.252   0.003  0.00  0.00    +0.016 A 
ATOM     24  C   UNL     1       2.255   5.629   0.010  0.00  0.00    +0.046 A 
ATOM     25  C   UNL     1       1.042   6.309   0.025  0.00  0.00    +0.120 A 
ATOM     26  C   UNL     1      -0.154   5.605   0.032  0.00  0.00    +0.091 A 
ATOM     27  C   UNL     1      -0.143   4.221   0.020  0.00  0.00    +0.129 A 
BRANCH  27  28
ATOM     28  O   UNL     1      -1.313   3.532   0.022  0.00  0.00    -0.506 OA
ATOM     29  H   UNL     1      -1.648   3.327   0.906  0.00  0.00    +0.292 HD
ENDBRANCH  27  28
BRANCH  25  30
ATOM     30  O   UNL     1       1.028   7.667   0.031  0.00  0.00    -0.507 OA
ATOM     31  H   UNL     1       1.016   8.065  -0.850  0.00  0.00    +0.292 HD
ENDBRANCH  25  30
ENDBRANCH  21  22
ENDBRANCH   3  20
TORSDOF 8
