REMARK  Name = ZINC14158997
REMARK  8 active torsions:
REMARK  status: ('A' for Active; 'I' for Inactive)
REMARK    1  A    between atoms: C_1  and  C_2
REMARK    2  A    between atoms: C_4  and  C_29
REMARK    3  A    between atoms: N_10  and  C_11
REMARK    4  A    between atoms: C_11  and  N_13
REMARK    5  A    between atoms: N_13  and  C_14
REMARK    6  A    between atoms: N_21  and  C_22
REMARK    7  A    between atoms: C_22  and  C_23
REMARK    8  A    between atoms: C_23  and  C_24
REMARK                            x       y       z     vdW  Elec       q    Type
REMARK                         _______ _______ _______ _____ _____    ______ ____
ROOT
ATOM      1  C   UNL     1       9.076  -0.744  -6.167  0.00  0.00    +0.066 C 
ATOM      2  C   UNL     1       7.597  -0.518  -6.346  0.00  0.00    +0.044 A 
ATOM      3  C   UNL     1       7.076  -0.239  -7.600  0.00  0.00    +0.046 A 
ATOM      4  C   UNL     1       5.710  -0.038  -7.720  0.00  0.00    +0.044 A 
ATOM      5  N   UNL     1       4.949  -0.117  -6.641  0.00  0.00    -0.217 NA
ATOM      6  C   UNL     1       5.479  -0.385  -5.457  0.00  0.00    +0.231 A 
ATOM      7  N   UNL     1       6.780  -0.577  -5.307  0.00  0.00    -0.217 NA
ATOM      8  N   UNL     1       4.650  -0.460  -4.345  0.00  0.00    -0.297 N 
ATOM      9  C   UNL     1       5.191  -0.622  -3.098  0.00  0.00    +0.195 C 
ATOM     10  N   UNL     1       6.503  -0.594  -2.938  0.00  0.00    -0.159 NA
ATOM     11  N   UNL     1       4.376  -0.813  -2.020  0.00  0.00    -0.357 N 
ATOM     12  C   UNL     1       5.099   0.266  -9.063  0.00  0.00    +0.066 C 
ATOM     13  H   UNL     1       3.688  -0.398  -4.452  0.00  0.00    +0.171 HD
ATOM     14  H   UNL     1       4.760  -0.996  -1.148  0.00  0.00    +0.162 HD
ENDROOT
BRANCH  10  15
ATOM     15  C   UNL     1       7.039  -0.889  -1.745  0.00  0.00    +0.161 C 
ATOM     16  S   UNL     1       6.865  -2.464  -1.095  0.00  0.00    -0.016 S 
BRANCH  15  17
ATOM     17  N   UNL     1       7.716   0.052  -1.058  0.00  0.00    -0.295 N 
ATOM     18  H   UNL     1       7.741   0.966  -1.384  0.00  0.00    +0.154 HD
BRANCH  17  19
ATOM     19  C   UNL     1       8.381  -0.288   0.126  0.00  0.00    +0.033 A 
ATOM     20  C   UNL     1       8.361   0.582   1.208  0.00  0.00    +0.026 A 
ATOM     21  C   UNL     1       9.013   0.241   2.377  0.00  0.00    +0.040 A 
ATOM     22  C   UNL     1       9.696  -0.960   2.466  0.00  0.00    +0.124 A 
ATOM     23  C   UNL     1       9.722  -1.826   1.386  0.00  0.00    +0.040 A 
ATOM     24  C   UNL     1       9.066  -1.492   0.217  0.00  0.00    +0.026 A 
ATOM     25  F   UNL     1      10.338  -1.288   3.609  0.00  0.00    -0.205 F 
ENDBRANCH  17  19
ENDBRANCH  15  17
ENDBRANCH  10  15
BRANCH  11  26
ATOM     26  C   UNL     1       2.921  -0.742  -2.180  0.00  0.00    +0.120 C 
BRANCH  26  27
ATOM     27  C   UNL     1       2.251  -0.869  -0.810  0.00  0.00    +0.063 C 
BRANCH  27  28
ATOM     28  C   UNL     1       0.755  -0.916  -0.986  0.00  0.00    -0.009 A 
ATOM     29  C   UNL     1      -0.040  -1.982  -1.249  0.00  0.00    +0.011 A 
ATOM     30  C   UNL     1      -1.403  -1.786  -1.376  0.00  0.00    +0.008 A 
ATOM     31  C   UNL     1      -1.905  -0.536  -1.221  0.00  0.00    +0.045 A 
ATOM     32  S   UNL     1      -0.430   0.417  -0.900  0.00  0.00    -0.102 S 
ENDBRANCH  27  28
ENDBRANCH  26  27
ENDBRANCH  11  26
TORSDOF 6
