REMARK  Name = ZINC20704344
REMARK  7 active torsions:
REMARK  status: ('A' for Active; 'I' for Inactive)
REMARK    1  A    between atoms: C_1  and  C_2
REMARK    2  A    between atoms: C_2  and  C_3
REMARK    3  A    between atoms: C_2  and  N_4
REMARK    4  A    between atoms: N_4  and  S_5
REMARK    5  A    between atoms: S_5  and  C_8
REMARK    6  A    between atoms: C_21  and  C_24
REMARK    7  A    between atoms: C_28  and  N_30
REMARK                            x       y       z     vdW  Elec       q    Type
REMARK                         _______ _______ _______ _____ _____    ______ ____
ROOT
ATOM      1  C   UNL     1      -1.579   2.303  -3.195  0.00  0.00    +0.106 A 
ATOM      2  C   UNL     1      -2.918   2.284  -2.849  0.00  0.00    +0.030 A 
ATOM      3  C   UNL     1      -3.301   1.892  -1.583  0.00  0.00    +0.025 A 
ATOM      4  C   UNL     1      -2.346   1.511  -0.647  0.00  0.00    +0.031 A 
ATOM      5  C   UNL     1      -1.000   1.537  -0.996  0.00  0.00    -0.018 A 
ATOM      6  C   UNL     1      -0.622   1.920  -2.274  0.00  0.00    +0.034 A 
ATOM      7  C   UNL     1      -0.013   1.086   0.008  0.00  0.00    +0.049 C 
ATOM      8  C   UNL     1       1.393   1.565  -0.003  0.00  0.00    -0.023 C 
ATOM      9  C   UNL     1       1.834   1.613   1.249  0.00  0.00    -0.030 C 
ATOM     10  C   UNL     1       0.722   1.193   2.212  0.00  0.00    +0.033 C 
ATOM     11  C   UNL     1      -0.534   1.542   1.403  0.00  0.00    +0.029 C 
ATOM     12  C   UNL     1      -1.778   0.711   1.662  0.00  0.00    +0.105 C 
ATOM     13  N   UNL     1      -2.758   1.132   0.636  0.00  0.00    -0.336 N 
ATOM     14  H   UNL     1      -3.832   1.151   0.876  0.00  0.00    +0.147 HD
ENDROOT
BRANCH  12  15
ATOM     15  C   UNL     1      -2.315   0.992   3.041  0.00  0.00    -0.025 A 
ATOM     16  C   UNL     1      -3.077   2.123   3.269  0.00  0.00    +0.007 A 
ATOM     17  C   UNL     1      -3.570   2.381   4.534  0.00  0.00    +0.022 A 
ATOM     18  C   UNL     1      -3.301   1.508   5.573  0.00  0.00    +0.071 A 
ATOM     19  C   UNL     1      -2.538   0.376   5.344  0.00  0.00    +0.145 A 
ATOM     20  C   UNL     1      -2.051   0.116   4.077  0.00  0.00    +0.039 A 
ATOM     21 CL   UNL     1      -3.920   1.831   7.162  0.00  0.00    -0.081 Cl
BRANCH  19  22
ATOM     22  N   UNL     1      -2.249  -0.559   6.455  0.00  0.00    +0.058 N 
ATOM     23  O   UNL     1      -1.578  -1.555   6.254  0.00  0.00    -0.126 OA
ATOM     24  O   UNL     1      -2.683  -0.332   7.570  0.00  0.00    -0.126 OA
ENDBRANCH  19  22
ENDBRANCH  12  15
BRANCH   1  25
ATOM     25  S   UNL     1      -1.094   2.814  -4.810  0.00  0.00    +0.059 S 
ATOM     26  O   UNL     1       0.173   2.221  -5.060  0.00  0.00    -0.153 OA
ATOM     27  O   UNL     1      -2.215   2.601  -5.657  0.00  0.00    -0.153 OA
BRANCH  25  28
ATOM     28  N   UNL     1      -0.848   4.450  -4.753  0.00  0.00    -0.187 NA
ATOM     29  H   UNL     1      -1.597   5.122  -5.198  0.00  0.00    +0.148 HD
BRANCH  28  31
ATOM     30  C   UNL     1       0.825   6.229  -4.624  0.00  0.00    +0.025 C 
ATOM     31  C   UNL     1       0.233   5.000  -3.931  0.00  0.00    +0.070 C 
ATOM     32  C   UNL     1      -0.321   5.404  -2.563  0.00  0.00    +0.025 C 
ENDBRANCH  28  31
ENDBRANCH  25  28
ENDBRANCH   1  25
TORSDOF 5
