REMARK  Name = ZINC39521056
REMARK  5 active torsions:
REMARK  status: ('A' for Active; 'I' for Inactive)
REMARK    1  A    between atoms: C_4  and  C_7
REMARK    2  A    between atoms: C_7  and  N_8
REMARK    3  A    between atoms: C_9  and  S_22
REMARK    4  A    between atoms: S_22  and  O_25
REMARK    5  A    between atoms: O_25  and  C_26
REMARK                            x       y       z     vdW  Elec       q    Type
REMARK                         _______ _______ _______ _____ _____    ______ ____
ROOT
ATOM      1  N   UNL     1       3.907  -0.119   0.329  0.00  0.00    +0.403 N 
ATOM      2  C   UNL     1       4.113   0.664   1.553  0.00  0.00    +0.120 C 
ATOM      3  C   UNL     1       5.223   1.692   1.325  0.00  0.00    +0.010 C 
ATOM      4  C   UNL     1       6.519   0.962   0.960  0.00  0.00    -0.001 C 
ATOM      5  C   UNL     1       6.272   0.091  -0.275  0.00  0.00    -0.012 C 
ATOM      6  C   UNL     1       5.123  -0.878   0.011  0.00  0.00    -0.061 C 
ATOM      7  C   UNL     1       5.493  -1.770   1.198  0.00  0.00    -0.012 C 
ATOM      8  C   UNL     1       4.347  -2.744   1.482  0.00  0.00    -0.000 C 
ATOM      9  C   UNL     1       4.099  -3.614   0.248  0.00  0.00    +0.014 C 
ATOM     10  C   UNL     1       3.728  -2.721  -0.938  0.00  0.00    +0.051 C 
ATOM     11  C   UNL     1       4.874  -1.748  -1.222  0.00  0.00    +0.002 C 
ATOM     12  I   UNL     1       3.376  -3.950  -2.682  0.00  0.00    -0.082 I 
ATOM     13  H   UNL     1       3.139  -0.759   0.467  0.00  0.00    -0.078 HD
ENDROOT
BRANCH   2  14
ATOM     14  S   UNL     1       2.575   1.523   1.986  0.00  0.00    +0.108 S 
ATOM     15  O   UNL     1       2.584   2.841   1.454  0.00  0.00    -0.138 OA
ATOM     16  O   UNL     1       1.460   0.666   1.780  0.00  0.00    -0.138 OA
BRANCH  14  17
ATOM     17  O   UNL     1       2.644   1.712   3.495  0.00  0.00    -0.347 OA
BRANCH  17  18
ATOM     18  C   UNL     1       3.490   2.701   3.889  0.00  0.00    +0.156 A 
ATOM     19  C   UNL     1       4.782   2.392   4.288  0.00  0.00    +0.048 A 
ATOM     20  C   UNL     1       5.639   3.398   4.688  0.00  0.00    +0.004 A 
ATOM     21  C   UNL     1       5.210   4.712   4.692  0.00  0.00    +0.000 A 
ATOM     22  C   UNL     1       3.923   5.023   4.296  0.00  0.00    +0.004 A 
ATOM     23  C   UNL     1       3.063   4.021   3.889  0.00  0.00    +0.048 A 
ENDBRANCH  17  18
ENDBRANCH  14  17
ENDBRANCH   2  14
BRANCH   1  24
ATOM     24  C   UNL     1       3.593   0.788  -0.783  0.00  0.00    -0.039 C 
BRANCH  24  28
ATOM     25  C   UNL     1      -0.545   1.840  -0.641  0.00  0.00    +0.000 A 
ATOM     26  C   UNL     1       0.420   2.830  -0.654  0.00  0.00    +0.000 A 
ATOM     27  C   UNL     1       1.759   2.489  -0.700  0.00  0.00    +0.002 A 
ATOM     28  C   UNL     1       2.133   1.159  -0.732  0.00  0.00    -0.064 A 
ATOM     29  C   UNL     1       1.168   0.169  -0.718  0.00  0.00    +0.002 A 
ATOM     30  C   UNL     1      -0.171   0.510  -0.673  0.00  0.00    +0.000 A 
ENDBRANCH  24  28
ENDBRANCH   1  24
TORSDOF 5
