REMARK  Name = ZINC37730544
REMARK  6 active torsions:
REMARK  status: ('A' for Active; 'I' for Inactive)
REMARK    1  A    between atoms: C_1  and  C_2
REMARK    2  A    between atoms: C_3  and  S_8
REMARK    3  A    between atoms: S_8  and  N_11
REMARK    4  A    between atoms: N_11  and  C_12
REMARK    5  A    between atoms: C_12  and  C_13
REMARK    6  A    between atoms: C_13  and  C_14
REMARK                            x       y       z     vdW  Elec       q    Type
REMARK                         _______ _______ _______ _____ _____    ______ ____
ROOT
ATOM      1  N   UNL     1      -1.187   0.498  -3.147  0.00  0.00    -0.190 NA
ATOM      2  H   UNL     1      -1.857   0.173  -3.769  0.00  0.00    +0.148 HD
ENDROOT
BRANCH   1   3
ATOM      3  S   UNL     1       0.077  -0.476  -2.708  0.00  0.00    +0.062 S 
ATOM      4  O   UNL     1       1.260   0.293  -2.874  0.00  0.00    -0.153 OA
ATOM      5  O   UNL     1      -0.121  -1.720  -3.366  0.00  0.00    -0.153 OA
BRANCH   3   8
ATOM      6  C   UNL     1      -2.279  -2.082  -1.077  0.00  0.00    +0.067 C 
ATOM      7  C   UNL     1      -1.091  -1.465  -0.384  0.00  0.00    +0.059 A 
ATOM      8  C   UNL     1      -0.082  -0.789  -0.981  0.00  0.00    +0.145 A 
ATOM      9  C   UNL     1       0.813  -0.384   0.014  0.00  0.00    +0.163 A 
ATOM     10  N   UNL     1       0.357  -0.801   1.168  0.00  0.00    -0.180 NA
ATOM     11  N   UNL     1      -0.846  -1.482   0.943  0.00  0.00    -0.280 N 
ATOM     12  H   UNL     1      -1.404  -1.894   1.621  0.00  0.00    +0.189 HD
ENDBRANCH   3   8
ENDBRANCH   1   3
BRANCH   1  13
ATOM     13  C   UNL     1      -1.294   1.852  -2.598  0.00  0.00    +0.104 C 
BRANCH  13  14
ATOM     14  C   UNL     1      -2.312   2.654  -3.411  0.00  0.00    +0.001 C 
BRANCH  14  15
ATOM     15  C   UNL     1      -2.423   4.068  -2.837  0.00  0.00    -0.071 C 
ATOM     16  C   UNL     1      -3.344   4.907  -3.725  0.00  0.00    -0.016 C 
ATOM     17  C   UNL     1      -3.452   6.321  -3.147  0.00  0.00    -0.003 C 
ATOM     18  C   UNL     1      -3.958   6.235  -1.704  0.00  0.00    -0.019 C 
ATOM     19  C   UNL     1      -3.014   5.346  -0.891  0.00  0.00    -0.082 C 
ATOM     20  N   UNL     1      -2.975   4.002  -1.479  0.00  0.00    +0.381 N 
ATOM     21  H   UNL     1      -3.910   3.624  -1.515  0.00  0.00    -0.086 HD
ATOM     22  H   UNL     1      -2.395   3.404  -0.910  0.00  0.00    -0.086 HD
ENDBRANCH  14  15
ENDBRANCH  13  14
ENDBRANCH   1  13
TORSDOF 5
