REMARK  Name = ZINC27922527
REMARK  7 active torsions:
REMARK  status: ('A' for Active; 'I' for Inactive)
REMARK    1  A    between atoms: C_1  and  C_2
REMARK    2  A    between atoms: C_3  and  N_16
REMARK    3  A    between atoms: C_4  and  C_15
REMARK    4  A    between atoms: N_5  and  C_7
REMARK    5  A    between atoms: C_7  and  C_8
REMARK    6  A    between atoms: C_17  and  C_19
REMARK    7  A    between atoms: C_19  and  C_20
REMARK                            x       y       z     vdW  Elec       q    Type
REMARK                         _______ _______ _______ _____ _____    ______ ____
ROOT
ATOM      1  C   UNL     1       2.958   3.142   4.286  0.00  0.00    +0.069 C 
ATOM      2  C   UNL     1       2.195   3.881   3.217  0.00  0.00    +0.081 A 
ATOM      3  C   UNL     1       1.290   4.931   3.431  0.00  0.00    +0.077 A 
ATOM      4  C   UNL     1       0.822   5.329   2.220  0.00  0.00    +0.058 A 
ATOM      5  N   UNL     1       1.408   4.548   1.277  0.00  0.00    -0.262 N 
ATOM      6  N   UNL     1       2.265   3.654   1.930  0.00  0.00    -0.174 NA
ATOM      7  C   UNL     1      -0.171   6.435   1.970  0.00  0.00    +0.067 C 
ENDROOT
BRANCH   3   8
ATOM      8  N   UNL     1       0.934   5.477   4.678  0.00  0.00    -0.282 N 
ATOM      9  C   UNL     1       1.821   6.228   5.362  0.00  0.00    +0.222 C 
ATOM     10  O   UNL     1       2.895   6.499   4.868  0.00  0.00    -0.275 OA
ATOM     11  H   UNL     1      -0.067   5.292   5.095  0.00  0.00    +0.155 HD
BRANCH   9  12
ATOM     12  C   UNL     1       1.476   6.733   6.740  0.00  0.00    +0.133 C 
BRANCH  12  13
ATOM     13  C   UNL     1       2.627   7.540   7.281  0.00  0.00    -0.014 A 
ATOM     14  C   UNL     1       3.608   7.096   8.083  0.00  0.00    +0.087 A 
ATOM     15  N   UNL     1       4.477   8.114   8.366  0.00  0.00    -0.360 N 
ATOM     16  H   UNL     1       5.351   7.929   9.008  0.00  0.00    +0.165 HD
ATOM     17  C   UNL     1       4.062   9.270   7.744  0.00  0.00    +0.047 A 
ATOM     18  C   UNL     1       2.885   8.962   7.037  0.00  0.00    +0.003 A 
ATOM     19  C   UNL     1       2.234   9.954   6.303  0.00  0.00    +0.010 A 
ATOM     20  C   UNL     1       2.744  11.222   6.274  0.00  0.00    +0.001 A 
ATOM     21  C   UNL     1       3.904  11.531   6.970  0.00  0.00    +0.002 A 
ATOM     22  C   UNL     1       4.563  10.567   7.701  0.00  0.00    +0.026 A 
ENDBRANCH  12  13
ENDBRANCH   9  12
ENDBRANCH   3   8
BRANCH   5  23
ATOM     23  C   UNL     1       1.187   4.631  -0.169  0.00  0.00    +0.180 C 
BRANCH  23  24
ATOM     24  C   UNL     1       0.050   3.721  -0.556  0.00  0.00    -0.008 A 
ATOM     25  C   UNL     1      -1.213   4.244  -0.766  0.00  0.00    +0.007 A 
ATOM     26  C   UNL     1      -2.256   3.410  -1.122  0.00  0.00    +0.000 A 
ATOM     27  C   UNL     1      -2.038   2.053  -1.268  0.00  0.00    +0.001 A 
ATOM     28  C   UNL     1      -0.776   1.529  -1.059  0.00  0.00    +0.020 A 
ATOM     29  C   UNL     1       0.269   2.363  -0.703  0.00  0.00    +0.046 A 
ATOM     30 CL   UNL     1       1.854   1.706  -0.440  0.00  0.00    -0.083 Cl
ENDBRANCH  23  24
ENDBRANCH   5  23
TORSDOF 5
