REMARK  Name = ZINC64074426
REMARK  5 active torsions:
REMARK  status: ('A' for Active; 'I' for Inactive)
REMARK    1  A    between atoms: C_1  and  C_2
REMARK    2  A    between atoms: C_5  and  S_7
REMARK    3  A    between atoms: S_7  and  C_8
REMARK    4  A    between atoms: C_8  and  C_9
REMARK    5  A    between atoms: C_24  and  C_26
REMARK                            x       y       z     vdW  Elec       q    Type
REMARK                         _______ _______ _______ _____ _____    ______ ____
ROOT
ATOM      1  C   UNL     1      -0.500  -6.845  -0.438  0.00  0.00    +0.226 C 
ATOM      2  O   UNL     1      -0.459  -7.277   0.695  0.00  0.00    -0.275 OA
ATOM      3  N   UNL     1      -0.241  -7.660  -1.480  0.00  0.00    -0.295 N 
ATOM      4  C   UNL     1      -0.427  -7.169  -2.849  0.00  0.00    +0.112 C 
ATOM      5  C   UNL     1       0.898  -7.295  -3.623  0.00  0.00    +0.052 C 
ATOM      6  C   UNL     1       1.446  -8.668  -3.322  0.00  0.00    -0.035 C 
ATOM      7  C   UNL     1       1.862  -9.642  -4.122  0.00  0.00    -0.001 A 
ATOM      8  C   UNL     1       2.044  -9.700  -5.581  0.00  0.00    +0.010 A 
ATOM      9  C   UNL     1       2.476 -10.887  -6.085  0.00  0.00    +0.001 A 
ATOM     10  C   UNL     1       2.743 -12.007  -5.291  0.00  0.00    +0.002 A 
ATOM     11  C   UNL     1       2.611 -12.040  -3.941  0.00  0.00    +0.026 A 
ATOM     12  C   UNL     1       2.171 -10.848  -3.296  0.00  0.00    +0.043 A 
ATOM     13  N   UNL     1       1.984 -10.595  -2.034  0.00  0.00    -0.376 N 
ATOM     14  C   UNL     1       1.596  -9.191  -1.898  0.00  0.00    +0.127 C 
ATOM     15  C   UNL     1       0.231  -9.032  -1.231  0.00  0.00    +0.105 C 
ATOM     16  H   UNL     1       2.083 -11.229  -1.307  0.00  0.00    +0.160 HD
ENDROOT
BRANCH  15  17
ATOM     17  C   UNL     1       0.361  -9.270   0.275  0.00  0.00    +0.012 C 
ATOM     18  C   UNL     1       1.527  -8.444   0.822  0.00  0.00    +0.005 C 
ATOM     19  C   UNL     1       1.657  -8.682   2.328  0.00  0.00    +0.000 C 
ATOM     20  C   UNL     1       1.918 -10.166   2.589  0.00  0.00    +0.000 C 
ATOM     21  C   UNL     1       0.753 -10.993   2.041  0.00  0.00    +0.000 C 
ATOM     22  C   UNL     1       0.622 -10.755   0.535  0.00  0.00    +0.005 C 
ENDBRANCH  15  17
BRANCH   1  23
ATOM     23  C   UNL     1      -0.839  -5.397  -0.681  0.00  0.00    +0.172 C 
BRANCH  23  24
ATOM     24  S   UNL     1      -1.132  -4.571   0.907  0.00  0.00    -0.088 S 
BRANCH  24  29
ATOM     25  C   UNL     1      -2.482   1.126   0.180  0.00  0.00    +0.075 C 
ATOM     26  C   UNL     1      -2.123  -0.337   0.146  0.00  0.00    +0.100 A 
ATOM     27  N   UNL     1      -1.872  -1.123  -0.881  0.00  0.00    -0.146 NA
ATOM     28  N   UNL     1      -1.582  -2.343  -0.738  0.00  0.00    -0.135 NA
ATOM     29  C   UNL     1      -1.512  -2.909   0.460  0.00  0.00    +0.159 A 
ATOM     30  S   UNL     1      -1.907  -1.500   1.490  0.00  0.00    -0.044 S 
ENDBRANCH  24  29
ENDBRANCH  23  24
ENDBRANCH   1  23
TORSDOF 4
