REMARK  Name = ZINC45340296
REMARK  5 active torsions:
REMARK  status: ('A' for Active; 'I' for Inactive)
REMARK    1  A    between atoms: C_3  and  C_6
REMARK    2  A    between atoms: C_8  and  C_11
REMARK    3  A    between atoms: C_11  and  S_12
REMARK    4  A    between atoms: S_12  and  C_15
REMARK    5  A    between atoms: C_15  and  C_16
REMARK                            x       y       z     vdW  Elec       q    Type
REMARK                         _______ _______ _______ _____ _____    ______ ____
ROOT
ATOM      1  S   UNL     1       6.939  -1.944  -1.798  0.00  0.00    -0.021 S 
ATOM      2  O   UNL     1       5.725  -2.368  -2.403  0.00  0.00    -0.174 OA
ATOM      3  O   UNL     1       7.685  -0.898  -2.406  0.00  0.00    -0.174 OA
ENDROOT
BRANCH   1   4
ATOM      4  C   UNL     1       6.592  -1.478  -0.080  0.00  0.00    +0.222 C 
BRANCH   4   7
ATOM      5  C   UNL     1       3.567   0.618  -0.029  0.00  0.00    +0.144 A 
ATOM      6  N   UNL     1       4.385  -0.428  -0.048  0.00  0.00    -0.239 NA
ATOM      7  C   UNL     1       5.689  -0.272  -0.059  0.00  0.00    +0.070 A 
ATOM      8  C   UNL     1       6.222   0.978  -0.051  0.00  0.00    +0.072 A 
ATOM      9  S   UNL     1       4.735   1.972  -0.034  0.00  0.00    -0.072 S 
BRANCH   5  12
ATOM     10  C   UNL     1      -0.016   1.344   0.009  0.00  0.00    +0.042 A 
ATOM     11  C   UNL     1       1.324   1.776  -0.001  0.00  0.00    +0.052 A 
ATOM     12  C   UNL     1       2.097   0.654  -0.015  0.00  0.00    +0.160 A 
ATOM     13  O   UNL     1       1.279  -0.418  -0.012  0.00  0.00    -0.461 OA
ATOM     14  C   UNL     1       0.002  -0.004   0.002  0.00  0.00    +0.196 A 
ENDBRANCH   5  12
ENDBRANCH   4   7
ENDBRANCH   1   4
BRANCH   1  15
ATOM     15  C   UNL     1       8.021  -3.388  -1.611  0.00  0.00    +0.201 C 
BRANCH  15  16
ATOM     16  C   UNL     1       8.408  -3.906  -2.973  0.00  0.00    -0.021 A 
ATOM     17  C   UNL     1       7.622  -4.857  -3.597  0.00  0.00    +0.055 A 
ATOM     18  C   UNL     1       7.975  -5.335  -4.849  0.00  0.00    +0.168 A 
ATOM     19  C   UNL     1       9.121  -4.854  -5.476  0.00  0.00    +0.184 A 
ATOM     20  C   UNL     1       9.904  -3.901  -4.845  0.00  0.00    +0.087 A 
ATOM     21  C   UNL     1       9.543  -3.424  -3.597  0.00  0.00    +0.029 A 
ATOM     22 CL   UNL     1      11.334  -3.299  -5.623  0.00  0.00    -0.080 Cl
ATOM     23  O   UNL     1       9.248  -5.474  -6.686  0.00  0.00    -0.451 OA
ATOM     24  C   UNL     1       8.397  -6.633  -6.616  0.00  0.00    +0.466 C 
ATOM     25  O   UNL     1       7.384  -6.255  -5.665  0.00  0.00    -0.453 OA
ENDBRANCH  15  16
ENDBRANCH   1  15
TORSDOF 5
