REMARK  Name = ZINC08824386
REMARK  16 active torsions:
REMARK  status: ('A' for Active; 'I' for Inactive)
REMARK    1  A    between atoms: C_1  and  C_2
REMARK    2  A    between atoms: C_3  and  C_9
REMARK    3  A    between atoms: C_4  and  C_8
REMARK    4  A    between atoms: N_5  and  C_7
REMARK    5  A    between atoms: C_9  and  C_11
REMARK    6  A    between atoms: C_11  and  O_13
REMARK    7  A    between atoms: O_13  and  C_14
REMARK    8  A    between atoms: C_14  and  C_15
REMARK    9  A    between atoms: C_18  and  C_21
REMARK   10  A    between atoms: C_21  and  O_22
REMARK   11  A    between atoms: O_22  and  C_23
REMARK   12  A    between atoms: C_23  and  C_25
REMARK   13  A    between atoms: C_25  and  C_27
REMARK   14  A    between atoms: C_28  and  C_34
REMARK   15  A    between atoms: N_30  and  C_33
REMARK   16  A    between atoms: C_31  and  C_32
REMARK                            x       y       z     vdW  Elec       q    Type
REMARK                         _______ _______ _______ _____ _____    ______ ____
ROOT
ATOM      1  C   UNL     1       5.498  -4.973  -0.512  0.00  0.00    -0.010 A 
ATOM      2  C   UNL     1       5.739  -5.728   0.621  0.00  0.00    +0.007 A 
ATOM      3  C   UNL     1       6.030  -7.074   0.506  0.00  0.00    +0.007 A 
ATOM      4  C   UNL     1       6.089  -7.664  -0.743  0.00  0.00    -0.010 A 
ATOM      5  C   UNL     1       5.853  -6.908  -1.876  0.00  0.00    +0.007 A 
ATOM      6  C   UNL     1       5.558  -5.563  -1.760  0.00  0.00    +0.007 A 
ENDROOT
BRANCH   1   7
ATOM      7  C   UNL     1       5.176  -3.506  -0.386  0.00  0.00    +0.268 C 
BRANCH   7   8
ATOM      8  O   UNL     1       3.739  -3.334  -0.268  0.00  0.00    -0.454 OA
BRANCH   8   9
ATOM      9  C   UNL     1       3.283  -2.075  -0.147  0.00  0.00    +0.380 C 
ATOM     10  O   UNL     1       4.062  -1.145  -0.139  0.00  0.00    -0.241 OA
BRANCH   9  11
ATOM     11  C   UNL     1       1.817  -1.821  -0.021  0.00  0.00    +0.273 C 
ATOM     12  O   UNL     1       1.045  -2.753   0.067  0.00  0.00    -0.280 OA
BRANCH  11  15
ATOM     13  C   UNL     1       1.206  -0.096   2.574  0.00  0.00    +0.068 C 
ATOM     14  C   UNL     1       1.032   0.340   1.142  0.00  0.00    +0.071 A 
ATOM     15  C   UNL     1       1.309  -0.442  -0.005  0.00  0.00    +0.072 A 
ATOM     16  C   UNL     1       1.010   0.339  -1.110  0.00  0.00    +0.047 A 
ATOM     17  N   UNL     1       0.577   1.525  -0.656  0.00  0.00    -0.271 N 
ATOM     18  N   UNL     1       0.598   1.502   0.742  0.00  0.00    -0.176 NA
ATOM     19  C   UNL     1       0.157   2.656  -1.486  0.00  0.00    +0.172 C 
ATOM     20  C   UNL     1       1.147  -0.067  -2.555  0.00  0.00    +0.066 C 
ENDBRANCH  11  15
ENDBRANCH   9  11
ENDBRANCH   8   9
ENDBRANCH   7   8
ENDBRANCH   1   7
BRANCH   4  21
ATOM     21  C   UNL     1       6.410  -9.131  -0.868  0.00  0.00    +0.268 C 
BRANCH  21  22
ATOM     22  O   UNL     1       7.846  -9.304  -0.987  0.00  0.00    -0.454 OA
BRANCH  22  23
ATOM     23  C   UNL     1       8.302 -10.564  -1.109  0.00  0.00    +0.380 C 
ATOM     24  O   UNL     1       7.522 -11.493  -1.115  0.00  0.00    -0.241 OA
BRANCH  23  25
ATOM     25  C   UNL     1       9.767 -10.819  -1.235  0.00  0.00    +0.273 C 
ATOM     26  O   UNL     1      10.540  -9.887  -1.324  0.00  0.00    -0.280 OA
BRANCH  25  27
ATOM     27  C   UNL     1      10.274 -12.198  -1.252  0.00  0.00    +0.072 A 
ATOM     28  C   UNL     1      10.584 -12.995  -0.123  0.00  0.00    +0.071 A 
ATOM     29  N   UNL     1      11.001 -14.153  -0.551  0.00  0.00    -0.176 NA
ATOM     30  N   UNL     1      10.989 -14.155  -1.950  0.00  0.00    -0.271 N 
ATOM     31  C   UNL     1      10.546 -12.963  -2.376  0.00  0.00    +0.047 A 
ATOM     32  C   UNL     1      10.375 -12.534  -3.810  0.00  0.00    +0.066 C 
ATOM     33  C   UNL     1      11.393 -15.273  -2.807  0.00  0.00    +0.172 C 
ATOM     34  C   UNL     1      10.451 -12.578   1.319  0.00  0.00    +0.068 C 
ENDBRANCH  25  27
ENDBRANCH  23  25
ENDBRANCH  22  23
ENDBRANCH  21  22
ENDBRANCH   4  21
TORSDOF 10
