REMARK  Name = ZINC61267508
REMARK  7 active torsions:
REMARK  status: ('A' for Active; 'I' for Inactive)
REMARK    1  A    between atoms: C_1  and  C_2
REMARK    2  A    between atoms: C_2  and  N_3
REMARK    3  A    between atoms: N_3  and  C_4
REMARK    4  A    between atoms: C_4  and  C_5
REMARK    5  A    between atoms: C_5  and  C_7
REMARK    6  A    between atoms: C_5  and  C_8
REMARK    7  A    between atoms: C_12  and  C_21
REMARK                            x       y       z     vdW  Elec       q    Type
REMARK                         _______ _______ _______ _____ _____    ______ ____
ROOT
ATOM      1  C   UNL     1      -2.570  -3.792   0.457  0.00  0.00    +0.221 C 
ATOM      2  O   UNL     1      -2.366  -2.597   0.442  0.00  0.00    -0.275 OA
ATOM      3  N   UNL     1      -3.815  -4.261   0.674  0.00  0.00    -0.264 N 
ATOM      4  C   UNL     1      -4.077  -5.706   0.785  0.00  0.00    +0.168 C 
ATOM      5  C   UNL     1      -5.368  -6.004   0.009  0.00  0.00    +0.276 C 
ATOM      6  O   UNL     1      -6.428  -5.220   0.561  0.00  0.00    -0.476 OA
ATOM      7  C   UNL     1      -6.205  -3.891   0.741  0.00  0.00    +0.143 A 
ATOM      8  C   UNL     1      -4.908  -3.387   0.810  0.00  0.00    +0.078 A 
ATOM      9  C   UNL     1      -4.694  -2.033   1.004  0.00  0.00    +0.027 A 
ATOM     10  C   UNL     1      -5.773  -1.177   1.134  0.00  0.00    +0.002 A 
ATOM     11  C   UNL     1      -7.061  -1.672   1.069  0.00  0.00    +0.004 A 
ATOM     12  C   UNL     1      -7.282  -3.025   0.865  0.00  0.00    +0.047 A 
ENDROOT
BRANCH   5  13
ATOM     13  C   UNL     1      -5.704  -7.468   0.130  0.00  0.00    +0.253 C 
ATOM     14  O   UNL     1      -6.711  -7.813   0.710  0.00  0.00    -0.272 OA
ATOM     15  N   UNL     1      -4.884  -8.394  -0.407  0.00  0.00    -0.326 N 
ATOM     16  H   UNL     1      -4.078  -8.118  -0.871  0.00  0.00    +0.145 HD
ATOM     17  H   UNL     1      -5.100  -9.336  -0.329  0.00  0.00    +0.145 HD
ENDBRANCH   5  13
BRANCH   1  18
ATOM     18  C   UNL     1      -1.431  -4.754   0.234  0.00  0.00    +0.055 C 
ATOM     19  C   UNL     1      -0.930  -5.273   1.584  0.00  0.00    +0.015 C 
BRANCH  18  20
ATOM     20  C   UNL     1      -0.291  -4.035  -0.490  0.00  0.00    -0.070 C 
BRANCH  20  21
ATOM     21  N   UNL     1       0.768  -4.999  -0.814  0.00  0.00    +0.379 N 
ATOM     22  H   UNL     1       0.394  -5.723  -1.410  0.00  0.00    -0.086 HD
ATOM     23  H   UNL     1       1.119  -5.412   0.037  0.00  0.00    -0.086 HD
BRANCH  21  25
ATOM     24  C   UNL     1       2.966  -5.314  -1.847  0.00  0.00    -0.017 C 
ATOM     25  C   UNL     1       1.863  -4.309  -1.510  0.00  0.00    -0.086 C 
ENDBRANCH  21  25
ENDBRANCH  20  21
ENDBRANCH  18  20
ENDBRANCH   1  18
TORSDOF 5
