REMARK  Name = ZINC20929830
REMARK  7 active torsions:
REMARK  status: ('A' for Active; 'I' for Inactive)
REMARK    1  A    between atoms: C_1  and  C_2
REMARK    2  A    between atoms: C_2  and  C_3
REMARK    3  A    between atoms: C_3  and  O_4
REMARK    4  A    between atoms: O_4  and  C_5
REMARK    5  A    between atoms: C_6  and  C_13
REMARK    6  A    between atoms: C_13  and  N_14
REMARK    7  A    between atoms: N_14  and  C_15
REMARK                            x       y       z     vdW  Elec       q    Type
REMARK                         _______ _______ _______ _____ _____    ______ ____
ROOT
ATOM      1  C   UNL     1      -0.149   1.182   2.380  0.00  0.00    +0.136 A 
ATOM      2  C   UNL     1      -0.560   0.009   2.995  0.00  0.00    -0.021 A 
ATOM      3  C   UNL     1      -0.015  -0.362   4.209  0.00  0.00    +0.020 A 
ATOM      4  C   UNL     1       0.935   0.440   4.816  0.00  0.00    +0.019 A 
ATOM      5  C   UNL     1       1.344   1.613   4.207  0.00  0.00    +0.034 A 
ATOM      6  C   UNL     1       0.804   1.986   2.990  0.00  0.00    +0.061 A 
ATOM      7 BR   UNL     1       1.363   3.589   2.158  0.00  0.00    -0.046 Br
ATOM      8 BR   UNL     1       1.675  -0.067   6.481  0.00  0.00    -0.050 Br
ENDROOT
BRANCH   1   9
ATOM      9  O   UNL     1      -0.682   1.547   1.184  0.00  0.00    -0.491 OA
BRANCH   9  10
ATOM     10  C   UNL     1      -0.013   1.086   0.008  0.00  0.00    +0.229 C 
BRANCH  10  12
ATOM     11  C   UNL     1      -0.037   1.099  -2.490  0.00  0.00    +0.007 C 
ATOM     12  C   UNL     1      -0.753   1.593  -1.232  0.00  0.00    +0.038 C 
ENDBRANCH  10  12
ENDBRANCH   9  10
ENDBRANCH   1   9
BRANCH   2  13
ATOM     13  C   UNL     1      -1.599  -0.863   2.338  0.00  0.00    -0.043 C 
BRANCH  13  14
ATOM     14  N   UNL     1      -0.965  -1.677   1.292  0.00  0.00    +0.384 N 
ATOM     15  H   UNL     1      -0.510  -1.017   0.539  0.00  0.00    -0.085 HD
ATOM     16  H   UNL     1      -0.187  -2.310   1.743  0.00  0.00    -0.085 HD
BRANCH  14  17
ATOM     17  C   UNL     1      -1.950  -2.541   0.628  0.00  0.00    -0.071 C 
ATOM     18  C   UNL     1      -2.123  -3.830   1.435  0.00  0.00    -0.016 C 
ATOM     19  C   UNL     1      -3.402  -4.542   0.989  0.00  0.00    -0.002 C 
ATOM     20  C   UNL     1      -4.532  -3.520   0.846  0.00  0.00    -0.000 C 
ATOM     21  C   UNL     1      -4.925  -3.397  -0.628  0.00  0.00    -0.000 C 
ATOM     22  C   UNL     1      -3.869  -2.574  -1.369  0.00  0.00    -0.000 C 
ATOM     23  C   UNL     1      -2.626  -3.433  -1.606  0.00  0.00    -0.002 C 
ATOM     24  C   UNL     1      -1.460  -2.883  -0.781  0.00  0.00    -0.016 C 
ENDBRANCH  14  17
ENDBRANCH  13  14
ENDBRANCH   2  13
TORSDOF 6
