REMARK  Name = ZINC23408223
REMARK  6 active torsions:
REMARK  status: ('A' for Active; 'I' for Inactive)
REMARK    1  A    between atoms: C_1  and  C_2
REMARK    2  A    between atoms: C_7  and  S_15
REMARK    3  A    between atoms: S_15  and  C_16
REMARK    4  A    between atoms: C_16  and  C_18
REMARK    5  A    between atoms: C_16  and  C_19
REMARK    6  A    between atoms: C_25  and  C_28
REMARK                            x       y       z     vdW  Elec       q    Type
REMARK                         _______ _______ _______ _____ _____    ______ ____
ROOT
ATOM      1  S   UNL     1       5.103  -1.156   2.229  0.00  0.00    -0.073 S 
ENDROOT
BRANCH   1   8
ATOM      2  C   UNL     1       9.107  -5.040   6.535  0.00  0.00    +0.044 C 
ATOM      3  C   UNL     1       8.195  -4.134   5.749  0.00  0.00    -0.038 A 
ATOM      4  C   UNL     1       7.426  -3.220   6.383  0.00  0.00    +0.052 A 
ATOM      5  C   UNL     1       6.570  -2.369   5.644  0.00  0.00    +0.162 A 
ATOM      6  N   UNL     1       5.735  -1.414   6.009  0.00  0.00    -0.129 NA
ATOM      7  N   UNL     1       5.167  -0.911   4.971  0.00  0.00    -0.122 NA
ATOM      8  C   UNL     1       5.599  -1.509   3.882  0.00  0.00    +0.197 A 
ATOM      9  N   UNL     1       6.499  -2.457   4.272  0.00  0.00    -0.270 N 
ATOM     10  C   UNL     1       7.272  -3.373   3.579  0.00  0.00    +0.058 A 
ATOM     11  C   UNL     1       8.131  -4.231   4.287  0.00  0.00    +0.002 A 
ATOM     12  C   UNL     1       8.911  -5.161   3.594  0.00  0.00    +0.010 A 
ATOM     13  C   UNL     1       8.831  -5.230   2.221  0.00  0.00    +0.001 A 
ATOM     14  C   UNL     1       7.982  -4.382   1.525  0.00  0.00    +0.002 A 
ATOM     15  C   UNL     1       7.207  -3.458   2.195  0.00  0.00    +0.027 A 
ENDBRANCH   1   8
BRANCH   1  16
ATOM     16  C   UNL     1       3.917   0.177   2.534  0.00  0.00    +0.137 C 
ATOM     17  C   UNL     1       4.649   1.387   3.118  0.00  0.00    +0.029 C 
BRANCH  16  18
ATOM     18  C   UNL     1       3.256   0.568   1.238  0.00  0.00    +0.229 C 
ATOM     19  O   UNL     1       3.780   0.288   0.181  0.00  0.00    -0.274 OA
ATOM     20  N   UNL     1       2.081   1.229   1.253  0.00  0.00    -0.300 N 
ATOM     21  C   UNL     1       1.434   1.576   2.525  0.00  0.00    +0.108 C 
ATOM     22  C   UNL     1      -0.003   1.045   2.508  0.00  0.00    +0.020 C 
ATOM     23  C   UNL     1      -0.725   1.580   1.269  0.00  0.00    +0.016 C 
ATOM     24  C   UNL     1      -0.013   1.086   0.008  0.00  0.00    +0.092 C 
ATOM     25  C   UNL     1       1.424   1.617  -0.003  0.00  0.00    +0.120 C 
BRANCH  24  26
ATOM     26  C   UNL     1      -0.743   1.586  -1.212  0.00  0.00    +0.215 C 
ATOM     27  O   UNL     1      -0.171   2.295  -2.012  0.00  0.00    -0.276 OA
ATOM     28  N   UNL     1      -2.031   1.244  -1.413  0.00  0.00    -0.329 N 
ATOM     29  H   UNL     1      -2.564   1.609  -2.304  0.00  0.00    +0.145 HD
ATOM     30  H   UNL     1      -2.549   0.600  -0.687  0.00  0.00    +0.145 HD
ENDBRANCH  24  26
ENDBRANCH  16  18
ENDBRANCH   1  16
TORSDOF 4
