REMARK  Name = ZINC12719721
REMARK  7 active torsions:
REMARK  status: ('A' for Active; 'I' for Inactive)
REMARK    1  A    between atoms: C_1  and  C_2
REMARK    2  A    between atoms: C_5  and  O_36
REMARK    3  A    between atoms: C_18  and  C_35
REMARK    4  A    between atoms: C_23  and  C_24
REMARK    5  A    between atoms: C_27  and  N_30
REMARK    6  A    between atoms: N_30  and  C_31
REMARK    7  A    between atoms: N_30  and  C_32
REMARK                            x       y       z     vdW  Elec       q    Type
REMARK                         _______ _______ _______ _____ _____    ______ ____
ROOT
ATOM      1  C   UNL     1      -8.070   0.072   0.968  0.00  0.00    +0.012 C 
ATOM      2  C   UNL     1      -7.648   0.452   2.382  0.00  0.00    -0.026 C 
ATOM      3  C   UNL     1      -8.906   0.750   3.213  0.00  0.00    +0.010 C 
ATOM      4  C   UNL     1      -9.808  -0.478   3.292  0.00  0.00    +0.032 C 
ATOM      5  C   UNL     1      -9.064  -1.669   3.890  0.00  0.00    +0.115 C 
ATOM      6  C   UNL     1      -7.796  -1.961   3.086  0.00  0.00    +0.035 C 
ATOM      7  C   UNL     1      -6.916  -0.718   3.048  0.00  0.00    -0.002 C 
ATOM      8  C   UNL     1      -5.608  -1.003   2.313  0.00  0.00    +0.004 C 
ATOM      9  C   UNL     1      -4.692   0.214   2.451  0.00  0.00    +0.004 C 
ATOM     10  C   UNL     1      -5.353   1.454   1.852  0.00  0.00    -0.003 C 
ATOM     11  C   UNL     1      -6.745   1.676   2.400  0.00  0.00    -0.001 C 
ATOM     12  C   UNL     1      -7.391   2.913   1.798  0.00  0.00    +0.005 C 
ATOM     13  C   UNL     1      -7.306   2.978   0.288  0.00  0.00    +0.015 C 
ATOM     14  C   UNL     1      -5.961   2.641  -0.293  0.00  0.00    +0.034 C 
ATOM     15  C   UNL     1      -5.291   1.405   0.329  0.00  0.00    +0.010 C 
ATOM     16  C   UNL     1      -3.802   1.664  -0.063  0.00  0.00    +0.043 C 
ATOM     17  C   UNL     1      -3.668   3.175  -0.047  0.00  0.00    -0.004 C 
ATOM     18  C   UNL     1      -2.501   3.862   0.047  0.00  0.00    +0.015 C 
ATOM     19  C   UNL     1      -4.954   3.753  -0.144  0.00  0.00    +0.165 C 
ATOM     20  O   UNL     1      -5.205   4.942  -0.115  0.00  0.00    -0.292 OA
ATOM     21  C   UNL     1      -6.148   2.374  -1.794  0.00  0.00    +0.020 C 
ENDROOT
BRANCH  18  22
ATOM     22  C   UNL     1      -1.222   3.146  -0.006  0.00  0.00    -0.025 A 
ATOM     23  C   UNL     1      -1.135   1.909  -0.659  0.00  0.00    +0.010 A 
ATOM     24  C   UNL     1       0.056   1.244  -0.701  0.00  0.00    +0.023 A 
ATOM     25  C   UNL     1       1.187   1.797  -0.105  0.00  0.00    +0.029 A 
ATOM     26  C   UNL     1       1.108   3.029   0.540  0.00  0.00    +0.023 A 
ATOM     27  C   UNL     1      -0.081   3.700   0.592  0.00  0.00    +0.010 A 
BRANCH  25  28
ATOM     28  N   UNL     1       2.399   1.118  -0.155  0.00  0.00    -0.336 N 
ATOM     29  C   UNL     1       2.486  -0.177  -0.834  0.00  0.00    +0.129 C 
ATOM     30  C   UNL     1       3.590   1.698   0.470  0.00  0.00    +0.129 C 
ENDBRANCH  25  28
ENDBRANCH  18  22
BRANCH   5  31
ATOM     31  O   UNL     1      -8.717  -1.388   5.248  0.00  0.00    -0.392 OA
ATOM     32  H   UNL     1      -9.476  -1.213   5.820  0.00  0.00    +0.210 HD
ENDBRANCH   5  31
TORSDOF 3
