REMARK  Name = ZINC09495281
REMARK  8 active torsions:
REMARK  status: ('A' for Active; 'I' for Inactive)
REMARK    1  A    between atoms: C_2  and  C_3
REMARK    2  A    between atoms: C_3  and  N_4
REMARK    3  A    between atoms: N_4  and  C_5
REMARK    4  A    between atoms: N_4  and  S_11
REMARK    5  A    between atoms: S_11  and  C_14
REMARK    6  A    between atoms: C_22  and  C_26
REMARK    7  A    between atoms: N_28  and  C_29
REMARK    8  A    between atoms: C_29  and  C_30
REMARK                            x       y       z     vdW  Elec       q    Type
REMARK                         _______ _______ _______ _____ _____    ______ ____
ROOT
ATOM      1  C   UNL     1       6.110   7.279  -0.375  0.00  0.00    +0.110 A 
ATOM      2  C   UNL     1       7.010   6.237  -0.550  0.00  0.00    +0.031 A 
ATOM      3  C   UNL     1       6.565   4.950  -0.758  0.00  0.00    +0.028 A 
ATOM      4  C   UNL     1       5.198   4.683  -0.793  0.00  0.00    +0.050 A 
ATOM      5  C   UNL     1       4.289   5.740  -0.615  0.00  0.00    +0.048 A 
ATOM      6  C   UNL     1       4.754   7.038  -0.407  0.00  0.00    +0.042 A 
ATOM      7  C   UNL     1       2.845   5.445  -0.661  0.00  0.00    +0.202 A 
ATOM      8  O   UNL     1       2.012   6.323  -0.518  0.00  0.00    -0.286 OA
ATOM      9  C   UNL     1       2.452   4.044  -0.882  0.00  0.00    +0.100 A 
ATOM     10  C   UNL     1       3.438   3.092  -1.043  0.00  0.00    +0.100 A 
ATOM     11  N   UNL     1       4.741   3.400  -1.000  0.00  0.00    -0.360 N 
ATOM     12  H   UNL     1       5.390   2.689  -1.119  0.00  0.00    +0.165 HD
ENDROOT
BRANCH   9  13
ATOM     13  C   UNL     1       1.031   3.666  -0.937  0.00  0.00    +0.249 C 
ATOM     14  O   UNL     1       0.170   4.513  -0.793  0.00  0.00    -0.270 OA
ATOM     15  N   UNL     1       0.684   2.380  -1.145  0.00  0.00    -0.307 N 
ATOM     16  H   UNL     1       1.370   1.704  -1.260  0.00  0.00    +0.149 HD
BRANCH  15  17
ATOM     17  C   UNL     1      -0.731   2.003  -1.200  0.00  0.00    +0.141 C 
BRANCH  17  18
ATOM     18  C   UNL     1      -0.847   0.520  -1.442  0.00  0.00    -0.012 A 
ATOM     19  C   UNL     1      -1.119   0.047  -2.712  0.00  0.00    +0.006 A 
ATOM     20  C   UNL     1      -1.221  -1.313  -2.935  0.00  0.00    +0.000 A 
ATOM     21  C   UNL     1      -1.061  -2.201  -1.887  0.00  0.00    +0.001 A 
ATOM     22  C   UNL     1      -0.794  -1.728  -0.616  0.00  0.00    +0.020 A 
ATOM     23  C   UNL     1      -0.687  -0.367  -0.393  0.00  0.00    +0.046 A 
ATOM     24 CL   UNL     1      -0.352   0.228   1.203  0.00  0.00    -0.083 Cl
ENDBRANCH  17  18
ENDBRANCH  15  17
ENDBRANCH   9  13
BRANCH   1  25
ATOM     25  S   UNL     1       6.704   8.916  -0.112  0.00  0.00    +0.075 S 
ATOM     26  O   UNL     1       5.672   9.619   0.567  0.00  0.00    -0.150 OA
ATOM     27  O   UNL     1       8.017   8.791   0.418  0.00  0.00    -0.150 OA
BRANCH  25  28
ATOM     28  N   UNL     1       6.861   9.626  -1.600  0.00  0.00    -0.199 N 
BRANCH  28  29
ATOM     29  C   UNL     1       8.098   9.624  -2.248  0.00  0.00    +0.052 A 
ATOM     30  C   UNL     1       8.233   9.010  -3.487  0.00  0.00    +0.025 A 
ATOM     31  C   UNL     1       9.457   9.014  -4.128  0.00  0.00    +0.002 A 
ATOM     32  C   UNL     1      10.549   9.619  -3.532  0.00  0.00    +0.000 A 
ATOM     33  C   UNL     1      10.418  10.226  -2.297  0.00  0.00    +0.002 A 
ATOM     34  C   UNL     1       9.197  10.230  -1.653  0.00  0.00    +0.025 A 
ENDBRANCH  28  29
BRANCH  28  35
ATOM     35  C   UNL     1       5.701  10.256  -2.236  0.00  0.00    +0.158 C 
BRANCH  35  37
ATOM     36  C   UNL     1       5.660  12.602  -2.909  0.00  0.00    +0.005 C 
ATOM     37  C   UNL     1       5.701  11.732  -1.931  0.00  0.00    -0.014 C 
ENDBRANCH  35  37
ENDBRANCH  28  35
ENDBRANCH  25  28
ENDBRANCH   1  25
TORSDOF 8
