REMARK  Name = ZINC15889692
REMARK  10 active torsions:
REMARK  status: ('A' for Active; 'I' for Inactive)
REMARK    1  A    between atoms: C_1  and  C_2
REMARK    2  A    between atoms: C_5  and  N_9
REMARK    3  A    between atoms: C_7  and  C_8
REMARK    4  A    between atoms: N_9  and  S_10
REMARK    5  A    between atoms: S_10  and  C_13
REMARK    6  A    between atoms: C_16  and  C_19
REMARK    7  A    between atoms: N_21  and  N_22
REMARK    8  A    between atoms: C_23  and  C_25
REMARK    9  A    between atoms: C_25  and  O_26
REMARK   10  A    between atoms: O_26  and  C_27
REMARK                            x       y       z     vdW  Elec       q    Type
REMARK                         _______ _______ _______ _____ _____    ______ ____
ROOT
ATOM      1  C   UNL     1       2.725  -4.602  -0.542  0.00  0.00    +0.109 A 
ATOM      2  C   UNL     1       3.376  -3.506  -1.080  0.00  0.00    +0.029 A 
ATOM      3  C   UNL     1       4.666  -3.207  -0.691  0.00  0.00    +0.015 A 
ATOM      4  C   UNL     1       5.313  -4.013   0.246  0.00  0.00    +0.038 A 
ATOM      5  C   UNL     1       4.650  -5.117   0.785  0.00  0.00    +0.015 A 
ATOM      6  C   UNL     1       3.359  -5.401   0.392  0.00  0.00    +0.029 A 
ENDROOT
BRANCH   4   7
ATOM      7  C   UNL     1       6.695  -3.699   0.667  0.00  0.00    +0.260 C 
ATOM      8  O   UNL     1       7.270  -2.737   0.197  0.00  0.00    -0.269 OA
ATOM      9  N   UNL     1       7.318  -4.479   1.573  0.00  0.00    -0.230 N 
ATOM     10  H   UNL     1       6.859  -5.247   1.949  0.00  0.00    +0.173 HD
BRANCH   9  11
ATOM     11  N   UNL     1       8.627  -4.181   1.972  0.00  0.00    -0.231 N 
ATOM     12  C   UNL     1       9.250  -4.962   2.878  0.00  0.00    +0.267 C 
ATOM     13  O   UNL     1       8.676  -5.921   3.348  0.00  0.00    -0.271 OA
ATOM     14  H   UNL     1       9.086  -3.414   1.596  0.00  0.00    +0.173 HD
BRANCH  12  15
ATOM     15  C   UNL     1      10.658  -4.641   3.307  0.00  0.00    +0.326 C 
BRANCH  15  16
ATOM     16  O   UNL     1      11.095  -5.606   4.266  0.00  0.00    -0.480 OA
BRANCH  16  17
ATOM     17  C   UNL     1      12.354  -5.461   4.759  0.00  0.00    +0.156 A 
ATOM     18  C   UNL     1      13.149  -4.409   4.332  0.00  0.00    +0.048 A 
ATOM     19  C   UNL     1      14.428  -4.263   4.834  0.00  0.00    +0.004 A 
ATOM     20  C   UNL     1      14.916  -5.165   5.761  0.00  0.00    +0.003 A 
ATOM     21  C   UNL     1      14.127  -6.215   6.189  0.00  0.00    +0.042 A 
ATOM     22  C   UNL     1      12.843  -6.363   5.695  0.00  0.00    +0.165 A 
ATOM     23  F   UNL     1      12.069  -7.386   6.118  0.00  0.00    -0.202 F 
ENDBRANCH  16  17
ENDBRANCH  15  16
ENDBRANCH  12  15
ENDBRANCH   9  11
ENDBRANCH   4   7
BRANCH   1  24
ATOM     24  S   UNL     1       1.078  -4.976  -1.044  0.00  0.00    +0.072 S 
ATOM     25  O   UNL     1       0.884  -6.362  -0.799  0.00  0.00    -0.150 OA
ATOM     26  O   UNL     1       0.904  -4.399  -2.331  0.00  0.00    -0.150 OA
BRANCH  24  27
ATOM     27  N   UNL     1       0.058  -4.167  -0.021  0.00  0.00    -0.216 N 
ATOM     28  H   UNL     1      -0.526  -4.663   0.573  0.00  0.00    +0.174 HD
BRANCH  27  33
ATOM     29  C   UNL     1      -0.018   1.503   0.010  0.00  0.00    +0.044 C 
ATOM     30  C   UNL     1       0.002  -0.004   0.002  0.00  0.00    -0.047 A 
ATOM     31  C   UNL     1       0.006  -0.687  -1.200  0.00  0.00    +0.005 A 
ATOM     32  C   UNL     1       0.024  -2.068  -1.212  0.00  0.00    +0.025 A 
ATOM     33  C   UNL     1       0.040  -2.771  -0.013  0.00  0.00    +0.048 A 
ATOM     34  C   UNL     1       0.036  -2.081   1.192  0.00  0.00    +0.028 A 
ATOM     35  C   UNL     1       0.023  -0.700   1.196  0.00  0.00    -0.046 A 
ATOM     36  C   UNL     1       0.025   0.049   2.504  0.00  0.00    +0.044 C 
ENDBRANCH  27  33
ENDBRANCH  24  27
ENDBRANCH   1  24
TORSDOF 8
