REMARK  Name = ZINC66421466
REMARK  8 active torsions:
REMARK  status: ('A' for Active; 'I' for Inactive)
REMARK    1  A    between atoms: C_1  and  C_2
REMARK    2  A    between atoms: C_7  and  C_10
REMARK    3  A    between atoms: C_11  and  C_13
REMARK    4  A    between atoms: N_16  and  C_19
REMARK    5  A    between atoms: C_19  and  C_21
REMARK    6  A    between atoms: C_19  and  C_22
REMARK    7  A    between atoms: C_25  and  O_28
REMARK    8  A    between atoms: O_28  and  C_29
REMARK                            x       y       z     vdW  Elec       q    Type
REMARK                         _______ _______ _______ _____ _____    ______ ____
ROOT
ATOM      1  C   UNL     1      -1.917  -4.312  -0.493  0.00  0.00    +0.072 C 
ATOM      2  C   UNL     1      -0.435  -4.687  -0.598  0.00  0.00    -0.006 C 
ATOM      3  C   UNL     1      -0.296  -6.210  -0.541  0.00  0.00    -0.077 C 
ATOM      4  N   UNL     1      -1.035  -6.814  -1.655  0.00  0.00    +0.384 N 
ATOM      5  C   UNL     1      -2.466  -6.519  -1.522  0.00  0.00    -0.077 C 
ATOM      6  C   UNL     1      -2.690  -5.008  -1.617  0.00  0.00    -0.006 C 
ATOM      7  H   UNL     1      -0.694  -6.438  -2.527  0.00  0.00    -0.081 HD
ENDROOT
BRANCH   1  16
ATOM      8  C   UNL     1      -2.227  -2.375   4.196  0.00  0.00    +0.039 C 
ATOM      9  C   UNL     1      -2.595  -1.946   2.774  0.00  0.00    +0.133 C 
ATOM     10  C   UNL     1      -1.627  -2.595   1.777  0.00  0.00    +0.139 C 
ATOM     11  N   UNL     1      -1.881  -2.023   0.445  0.00  0.00    -0.296 N 
ATOM     12  C   UNL     1      -1.925  -0.558   0.318  0.00  0.00    +0.139 C 
ATOM     13  C   UNL     1      -2.878  -0.008   1.386  0.00  0.00    +0.133 C 
ATOM     14  O   UNL     1      -2.500  -0.524   2.665  0.00  0.00    -0.371 OA
ATOM     15  C   UNL     1      -2.797   1.519   1.405  0.00  0.00    +0.039 C 
ATOM     16  C   UNL     1      -2.068  -2.818  -0.627  0.00  0.00    +0.219 C 
ATOM     17  O   UNL     1      -2.359  -2.332  -1.699  0.00  0.00    -0.275 OA
ENDBRANCH   1  16
BRANCH   4  18
ATOM     18  C   UNL     1      -0.834  -8.270  -1.642  0.00  0.00    -0.041 C 
ATOM     19  C   UNL     1      -1.604  -8.902  -2.804  0.00  0.00    -0.008 C 
BRANCH  18  20
ATOM     20  C   UNL     1       0.635  -8.575  -1.788  0.00  0.00    -0.061 A 
ATOM     21  C   UNL     1       1.412  -7.831  -2.656  0.00  0.00    +0.005 A 
ATOM     22  C   UNL     1       2.758  -8.109  -2.792  0.00  0.00    +0.046 A 
ATOM     23  C   UNL     1       3.330  -9.136  -2.055  0.00  0.00    +0.127 A 
ATOM     24  C   UNL     1       2.549  -9.881  -1.184  0.00  0.00    +0.046 A 
ATOM     25  C   UNL     1       1.204  -9.595  -1.048  0.00  0.00    +0.005 A 
BRANCH  23  26
ATOM     26  O   UNL     1       4.655  -9.412  -2.187  0.00  0.00    -0.434 OA
BRANCH  26  27
ATOM     27  C   UNL     1       5.176 -10.483  -1.398  0.00  0.00    +0.541 C 
ATOM     28  F   UNL     1       4.984 -10.199  -0.042  0.00  0.00    -0.166 F 
ATOM     29  F   UNL     1       4.510 -11.670  -1.724  0.00  0.00    -0.166 F 
ENDBRANCH  26  27
ENDBRANCH  23  26
ENDBRANCH  18  20
ENDBRANCH   4  18
TORSDOF 5
