REMARK  Name = ZINC66947539
REMARK  6 active torsions:
REMARK  status: ('A' for Active; 'I' for Inactive)
REMARK    1  A    between atoms: C_1  and  N_2
REMARK    2  A    between atoms: N_2  and  C_3
REMARK    3  A    between atoms: N_2  and  C_4
REMARK    4  A    between atoms: C_4  and  C_5
REMARK    5  A    between atoms: C_12  and  C_14
REMARK    6  A    between atoms: C_14  and  N_15
REMARK                            x       y       z     vdW  Elec       q    Type
REMARK                         _______ _______ _______ _____ _____    ______ ____
ROOT
ATOM      1  C   UNL     1      -0.506   3.512  -0.799  0.00  0.00    +0.213 C 
ENDROOT
BRANCH   1   2
ATOM      2  N   UNL     1       0.485   3.961   0.183  0.00  0.00    -0.215 N 
ATOM      3  C   UNL     1       0.175   4.510   1.376  0.00  0.00    +0.247 C 
ATOM      4  O   UNL     1      -0.933   4.718   1.823  0.00  0.00    -0.273 OA
ATOM      5  C   UNL     1       1.500   4.810   2.038  0.00  0.00    +0.113 C 
ATOM      6  C   UNL     1       1.634   4.027   3.340  0.00  0.00    +0.035 C 
ATOM      7  C   UNL     1       2.993   4.322   3.978  0.00  0.00    +0.003 C 
ATOM      8  C   UNL     1       3.112   5.823   4.252  0.00  0.00    +0.000 C 
ATOM      9  C   UNL     1       2.999   6.593   2.935  0.00  0.00    +0.003 C 
ATOM     10  C   UNL     1       1.640   6.307   2.292  0.00  0.00    +0.035 C 
ATOM     11  N   UNL     1       2.498   4.359   1.061  0.00  0.00    -0.285 N 
ATOM     12  C   UNL     1       1.809   3.872   0.010  0.00  0.00    +0.310 C 
ATOM     13  O   UNL     1       2.331   3.408  -0.984  0.00  0.00    -0.252 OA
ATOM     14  H   UNL     1       3.462   4.399   1.154  0.00  0.00    +0.151 HD
ENDBRANCH   1   2
BRANCH   1  21
ATOM     15  C   UNL     1      -2.017   0.005  -1.153  0.00  0.00    +0.059 C 
ATOM     16  C   UNL     1      -3.523  -0.202  -0.971  0.00  0.00    +0.021 C 
ATOM     17  C   UNL     1      -4.268   0.441  -2.144  0.00  0.00    +0.003 C 
ATOM     18  C   UNL     1      -3.986   1.945  -2.166  0.00  0.00    +0.019 C 
ATOM     19  C   UNL     1      -2.484   2.176  -2.361  0.00  0.00    +0.108 C 
ATOM     20  N   UNL     1      -1.750   1.440  -1.323  0.00  0.00    -0.299 N 
ATOM     21  C   UNL     1      -0.853   2.069  -0.538  0.00  0.00    +0.234 C 
ATOM     22  O   UNL     1      -0.326   1.474   0.378  0.00  0.00    -0.274 OA
BRANCH  15  23
ATOM     23  C   UNL     1      -1.275  -0.512   0.082  0.00  0.00    -0.057 C 
BRANCH  23  25
ATOM     24  C   UNL     1      -0.914  -2.677  -0.887  0.00  0.00    -0.097 C 
ATOM     25  N   UNL     1      -1.524  -1.952   0.235  0.00  0.00    +0.377 N 
ATOM     26  C   UNL     1      -0.936  -2.418   1.498  0.00  0.00    -0.097 C 
ATOM     27  H   UNL     1      -2.519  -2.122   0.244  0.00  0.00    -0.083 HD
ENDBRANCH  23  25
ENDBRANCH  15  23
ENDBRANCH   1  21
TORSDOF 4
