REMARK  Name = ZINC01142349
REMARK  12 active torsions:
REMARK  status: ('A' for Active; 'I' for Inactive)
REMARK    1  A    between atoms: C_1  and  C_2
REMARK    2  A    between atoms: C_3  and  N_9
REMARK    3  A    between atoms: C_10  and  C_12
REMARK    4  A    between atoms: C_12  and  S_13
REMARK    5  A    between atoms: S_13  and  C_14
REMARK    6  A    between atoms: C_15  and  C_35
REMARK    7  A    between atoms: C_16  and  C_27
REMARK    8  A    between atoms: C_18  and  C_23
REMARK    9  A    between atoms: C_23  and  O_25
REMARK   10  A    between atoms: O_25  and  C_26
REMARK   11  A    between atoms: C_30  and  O_33
REMARK   12  A    between atoms: O_33  and  C_34
REMARK                            x       y       z     vdW  Elec       q    Type
REMARK                         _______ _______ _______ _____ _____    ______ ____
ROOT
ATOM      1  C   UNL     1       6.317  -5.091   0.368  0.00  0.00    +0.082 C 
ATOM      2  C   UNL     1       6.552  -6.426   0.475  0.00  0.00    +0.066 C 
ATOM      3  C   UNL     1       7.962  -6.944   0.597  0.00  0.00    +0.084 C 
ATOM      4  C   UNL     1       8.912  -6.041  -0.191  0.00  0.00    +0.196 C 
ATOM      5  C   UNL     1       8.623  -4.599   0.135  0.00  0.00    +0.232 C 
ATOM      6  O   UNL     1       9.534  -3.803   0.211  0.00  0.00    -0.275 OA
ATOM      7  N   UNL     1       7.359  -4.189   0.342  0.00  0.00    -0.279 N 
ATOM      8  H   UNL     1       7.178  -3.245   0.475  0.00  0.00    +0.155 HD
ENDROOT
BRANCH   3   9
ATOM      9  C   UNL     1       8.365  -6.951   2.049  0.00  0.00    -0.038 A 
ATOM     10  C   UNL     1       8.382  -5.769   2.766  0.00  0.00    +0.008 A 
ATOM     11  C   UNL     1       8.746  -5.773   4.099  0.00  0.00    +0.046 A 
ATOM     12  C   UNL     1       9.104  -6.963   4.715  0.00  0.00    +0.120 A 
ATOM     13  C   UNL     1       9.091  -8.148   3.992  0.00  0.00    +0.046 A 
ATOM     14  C   UNL     1       8.721  -8.139   2.661  0.00  0.00    +0.008 A 
BRANCH  12  15
ATOM     15  O   UNL     1       9.467  -6.970   6.024  0.00  0.00    -0.495 OA
ATOM     16  C   UNL     1       9.458  -5.714   6.706  0.00  0.00    +0.277 C 
ENDBRANCH  12  15
ENDBRANCH   3   9
BRANCH   4  17
ATOM     17  C   UNL     1      10.336  -6.364   0.181  0.00  0.00    +0.320 C 
ATOM     18  O   UNL     1      10.567  -7.228   0.994  0.00  0.00    -0.250 OA
BRANCH  17  19
ATOM     19  O   UNL     1      11.348  -5.693  -0.391  0.00  0.00    -0.467 OA
ATOM     20  C   UNL     1      12.694  -6.057   0.016  0.00  0.00    +0.280 C 
ENDBRANCH  17  19
ENDBRANCH   4  17
BRANCH   2  21
ATOM     21  C   UNL     1       5.454  -7.345   0.466  0.00  0.00    +0.098 C 
ATOM     22  N   UNL     1       4.583  -8.074   0.460  0.00  0.00    -0.191 NA
ENDBRANCH   2  21
BRANCH   1  23
ATOM     23  S   UNL     1       4.659  -4.505   0.269  0.00  0.00    -0.100 S 
BRANCH  23  24
ATOM     24  C   UNL     1       4.960  -2.724   0.156  0.00  0.00    +0.171 C 
BRANCH  24  26
ATOM     25  N   UNL     1       3.622  -0.653  -0.036  0.00  0.00    -0.285 N 
ATOM     26  C   UNL     1       3.643  -1.997   0.059  0.00  0.00    +0.227 C 
ATOM     27  O   UNL     1       2.604  -2.622   0.065  0.00  0.00    -0.275 OA
ATOM     28  H   UNL     1       4.453  -0.158  -0.107  0.00  0.00    +0.155 HD
BRANCH  25  31
ATOM     29  C   UNL     1       3.510   1.897   1.222  0.00  0.00    +0.047 C 
ATOM     30  C   UNL     1       2.301   1.276   0.572  0.00  0.00    -0.011 A 
ATOM     31  C   UNL     1       2.400   0.029  -0.031  0.00  0.00    +0.038 A 
ATOM     32  C   UNL     1       1.283  -0.540  -0.629  0.00  0.00    +0.023 A 
ATOM     33  C   UNL     1       0.078   0.135  -0.623  0.00  0.00    +0.003 A 
ATOM     34  C   UNL     1      -0.018   1.376  -0.023  0.00  0.00    +0.020 A 
ATOM     35  C   UNL     1       1.093   1.947   0.575  0.00  0.00    +0.046 A 
ATOM     36 CL   UNL     1       0.968   3.506   1.327  0.00  0.00    -0.083 Cl
ENDBRANCH  25  31
ENDBRANCH  24  26
ENDBRANCH  23  24
ENDBRANCH   1  23
TORSDOF 9
