REMARK  Name = ZINC52723001
REMARK  10 active torsions:
REMARK  status: ('A' for Active; 'I' for Inactive)
REMARK    1  A    between atoms: C_1  and  C_2
REMARK    2  A    between atoms: C_2  and  C_3
REMARK    3  A    between atoms: C_3  and  C_4
REMARK    4  A    between atoms: C_4  and  C_5
REMARK    5  A    between atoms: C_5  and  N_6
REMARK    6  A    between atoms: C_7  and  C_9
REMARK    7  A    between atoms: N_12  and  C_15
REMARK    8  A    between atoms: C_15  and  C_17
REMARK    9  A    between atoms: C_15  and  C_18
REMARK   10  A    between atoms: C_24  and  C_27
REMARK                            x       y       z     vdW  Elec       q    Type
REMARK                         _______ _______ _______ _____ _____    ______ ____
ROOT
ATOM      1  C   UNL     1      -3.949  -6.215  -0.144  0.00  0.00    +0.071 C 
ATOM      2  C   UNL     1      -3.048  -6.853  -1.206  0.00  0.00    -0.006 C 
ATOM      3  C   UNL     1      -3.207  -8.374  -1.154  0.00  0.00    -0.077 C 
ATOM      4  N   UNL     1      -4.606  -8.733  -1.417  0.00  0.00    +0.387 N 
ATOM      5  C   UNL     1      -5.468  -8.184  -0.363  0.00  0.00    -0.077 C 
ATOM      6  C   UNL     1      -5.396  -6.656  -0.385  0.00  0.00    -0.006 C 
ATOM      7  H   UNL     1      -4.886  -8.356  -2.310  0.00  0.00    -0.081 HD
ENDROOT
BRANCH   1   9
ATOM      8  N   UNL     1      -2.672  -4.098  -0.064  0.00  0.00    -0.315 N 
ATOM      9  C   UNL     1      -3.857  -4.714  -0.242  0.00  0.00    +0.216 C 
ATOM     10  O   UNL     1      -4.851  -4.060  -0.480  0.00  0.00    -0.276 OA
ATOM     11  H   UNL     1      -1.877  -4.621   0.127  0.00  0.00    +0.149 HD
BRANCH   8  12
ATOM     12  C   UNL     1      -2.582  -2.639  -0.159  0.00  0.00    +0.104 C 
BRANCH  12  13
ATOM     13  C   UNL     1      -1.137  -2.200   0.082  0.00  0.00    +0.019 C 
BRANCH  13  14
ATOM     14  C   UNL     1      -1.043  -0.676  -0.017  0.00  0.00    +0.001 C 
BRANCH  14  16
ATOM     15  C   UNL     1       0.496   1.287   0.124  0.00  0.00    +0.004 C 
ATOM     16  C   UNL     1       0.402  -0.237   0.223  0.00  0.00    -0.003 C 
ENDBRANCH  14  16
ENDBRANCH  13  14
ENDBRANCH  12  13
ENDBRANCH   8  12
ENDBRANCH   1   9
BRANCH   4  17
ATOM     17  C   UNL     1      -4.738 -10.196  -1.444  0.00  0.00    +0.016 C 
ATOM     18  C   UNL     1      -6.206 -10.572  -1.651  0.00  0.00    -0.004 C 
BRANCH  17  19
ATOM     19  C   UNL     1      -3.912 -10.754  -2.574  0.00  0.00    +0.202 C 
ATOM     20  O   UNL     1      -3.651 -10.061  -3.534  0.00  0.00    -0.277 OA
ATOM     21  N   UNL     1      -3.463 -12.024  -2.517  0.00  0.00    -0.302 N 
ATOM     22  C   UNL     1      -3.690 -12.845  -1.320  0.00  0.00    +0.108 C 
ATOM     23  C   UNL     1      -4.363 -14.155  -1.742  0.00  0.00    +0.020 C 
ATOM     24  C   UNL     1      -3.516 -14.835  -2.819  0.00  0.00    +0.016 C 
ATOM     25  C   UNL     1      -3.421 -13.925  -4.046  0.00  0.00    +0.092 C 
ATOM     26  C   UNL     1      -2.742 -12.614  -3.652  0.00  0.00    +0.120 C 
BRANCH  25  27
ATOM     27  C   UNL     1      -2.614 -14.610  -5.119  0.00  0.00    +0.215 C 
ATOM     28  O   UNL     1      -1.594 -14.098  -5.530  0.00  0.00    -0.276 OA
ATOM     29  N   UNL     1      -3.026 -15.790  -5.622  0.00  0.00    -0.329 N 
ATOM     30  H   UNL     1      -3.842 -16.199  -5.293  0.00  0.00    +0.145 HD
ATOM     31  H   UNL     1      -2.507 -16.231  -6.312  0.00  0.00    +0.145 HD
ENDBRANCH  25  27
ENDBRANCH  17  19
ENDBRANCH   4  17
TORSDOF 8
