REMARK  Name = ZINC35705046
REMARK  15 active torsions:
REMARK  status: ('A' for Active; 'I' for Inactive)
REMARK    1  A    between atoms: C_1  and  C_2
REMARK    2  A    between atoms: C_2  and  O_3
REMARK    3  A    between atoms: O_3  and  C_4
REMARK    4  A    between atoms: C_4  and  C_6
REMARK    5  A    between atoms: C_7  and  C_33
REMARK    6  A    between atoms: C_11  and  C_13
REMARK    7  A    between atoms: C_18  and  O_19
REMARK    8  A    between atoms: O_19  and  C_20
REMARK    9  A    between atoms: C_21  and  C_24
REMARK   10  A    between atoms: C_25  and  N_27
REMARK   11  A    between atoms: N_27  and  C_28
REMARK   12  A    between atoms: C_28  and  C_29
REMARK   13  A    between atoms: C_29  and  N_30
REMARK   14  A    between atoms: N_30  and  C_31
REMARK   15  A    between atoms: N_30  and  C_32
REMARK                            x       y       z     vdW  Elec       q    Type
REMARK                         _______ _______ _______ _____ _____    ______ ____
ROOT
ATOM      1  C   UNL     1      -3.042  -2.476  -0.115  0.00  0.00    +0.088 C 
ATOM      2  C   UNL     1      -3.563  -3.766  -0.018  0.00  0.00    +0.086 C 
ATOM      3  N   UNL     1      -4.872  -3.948   0.148  0.00  0.00    -0.224 NA
ATOM      4  C   UNL     1      -5.758  -2.980   0.233  0.00  0.00    +0.166 C 
ATOM      5  N   UNL     1      -5.449  -1.650   0.162  0.00  0.00    -0.267 N 
ATOM      6  C   UNL     1      -4.011  -1.318  -0.018  0.00  0.00    +0.153 C 
ATOM      7  C   UNL     1      -6.498  -0.757   0.269  0.00  0.00    +0.048 C 
ATOM      8  C   UNL     1      -7.739  -1.265   0.435  0.00  0.00    +0.072 C 
ATOM      9  S   UNL     1      -7.423  -3.018   0.439  0.00  0.00    -0.060 S 
ENDROOT
BRANCH   6  10
ATOM     10  C   UNL     1      -3.883  -0.500  -1.277  0.00  0.00    +0.020 A 
ATOM     11  C   UNL     1      -4.708  -0.757  -2.355  0.00  0.00    +0.009 A 
ATOM     12  C   UNL     1      -4.590  -0.007  -3.510  0.00  0.00    +0.001 A 
ATOM     13  C   UNL     1      -3.647   1.002  -3.590  0.00  0.00    +0.004 A 
ATOM     14  C   UNL     1      -2.821   1.262  -2.515  0.00  0.00    +0.046 A 
ATOM     15  C   UNL     1      -2.940   0.515  -1.352  0.00  0.00    +0.125 A 
BRANCH  15  16
ATOM     16  O   UNL     1      -2.132   0.773  -0.291  0.00  0.00    -0.495 OA
ATOM     17  C   UNL     1      -1.259   1.899  -0.399  0.00  0.00    +0.277 C 
ENDBRANCH  15  16
ENDBRANCH   6  10
BRANCH   2  18
ATOM     18  C   UNL     1      -2.659  -4.936  -0.100  0.00  0.00    +0.001 A 
ATOM     19  C   UNL     1      -1.493  -4.975   0.666  0.00  0.00    +0.010 A 
ATOM     20  C   UNL     1      -0.655  -6.068   0.585  0.00  0.00    +0.001 A 
ATOM     21  C   UNL     1      -0.968  -7.123  -0.253  0.00  0.00    +0.000 A 
ATOM     22  C   UNL     1      -2.122  -7.089  -1.016  0.00  0.00    +0.001 A 
ATOM     23  C   UNL     1      -2.972  -6.005  -0.939  0.00  0.00    +0.010 A 
ENDBRANCH   2  18
BRANCH   7  24
ATOM     24  C   UNL     1      -6.272   0.693   0.205  0.00  0.00    +0.091 C 
ATOM     25  C   UNL     1      -7.286   1.545   0.452  0.00  0.00    +0.239 C 
ATOM     26  O   UNL     1      -8.479   1.070   0.887  0.00  0.00    -0.271 OA
BRANCH  25  27
ATOM     27  N   UNL     1      -7.110   2.905   0.263  0.00  0.00    -0.314 N 
ATOM     28  H   UNL     1      -6.256   3.245  -0.048  0.00  0.00    +0.149 HD
BRANCH  27  29
ATOM     29  C   UNL     1      -8.213   3.831   0.531  0.00  0.00    +0.086 C 
BRANCH  29  30
ATOM     30  C   UNL     1      -7.758   5.263   0.244  0.00  0.00    -0.061 C 
BRANCH  30  31
ATOM     31  N   UNL     1      -8.864   6.191   0.513  0.00  0.00    +0.377 N 
ATOM     32  C   UNL     1      -8.393   7.574   0.353  0.00  0.00    -0.097 C 
ATOM     33  C   UNL     1      -9.960   5.935  -0.431  0.00  0.00    -0.097 C 
ATOM     34  H   UNL     1      -9.195   6.056   1.457  0.00  0.00    -0.083 HD
ENDBRANCH  30  31
ENDBRANCH  29  30
ENDBRANCH  27  29
ENDBRANCH  25  27
ENDBRANCH   7  24
BRANCH   1  35
ATOM     35  C   UNL     1      -1.674  -2.260  -0.289  0.00  0.00    +0.339 C 
ATOM     36  O   UNL     1      -0.994  -1.872   0.646  0.00  0.00    -0.245 OA
BRANCH  35  37
ATOM     37  O   UNL     1      -1.103  -2.481  -1.494  0.00  0.00    -0.462 OA
BRANCH  37  39
ATOM     38  C   UNL     1       0.765  -2.513  -3.027  0.00  0.00    +0.048 C 
ATOM     39  C   UNL     1       0.318  -2.348  -1.573  0.00  0.00    +0.229 C 
ENDBRANCH  37  39
ENDBRANCH  35  37
ENDBRANCH   1  35
TORSDOF 11
