REMARK  Name = ZINC39951277
REMARK  10 active torsions:
REMARK  status: ('A' for Active; 'I' for Inactive)
REMARK    1  A    between atoms: C_1  and  C_2
REMARK    2  A    between atoms: C_2  and  C_3
REMARK    3  A    between atoms: C_3  and  C_4
REMARK    4  A    between atoms: C_9  and  C_27
REMARK    5  A    between atoms: C_15  and  C_17
REMARK    6  A    between atoms: C_22  and  O_23
REMARK    7  A    between atoms: O_23  and  C_24
REMARK    8  A    between atoms: C_24  and  C_25
REMARK    9  A    between atoms: C_27  and  C_28
REMARK   10  A    between atoms: C_28  and  C_29
REMARK                            x       y       z     vdW  Elec       q    Type
REMARK                         _______ _______ _______ _____ _____    ______ ____
ROOT
ATOM      1  C   UNL     1       0.750  -1.994  -1.447  0.00  0.00    +0.040 C 
ATOM      2  C   UNL     1       1.398  -2.541  -0.213  0.00  0.00    -0.003 C 
ATOM      3  C   UNL     1       1.965  -3.912  -0.333  0.00  0.00    -0.075 C 
ATOM      4  N   UNL     1       1.228  -4.830  -1.166  0.00  0.00    +0.393 N 
ATOM      5  C   UNL     1      -0.203  -4.784  -1.133  0.00  0.00    -0.060 C 
ATOM      6  C   UNL     1      -0.897  -3.834  -2.094  0.00  0.00    +0.028 C 
ATOM      7  C   UNL     1      -0.677  -2.422  -1.597  0.00  0.00    +0.146 C 
ATOM      8  O   UNL     1      -1.602  -1.688  -1.341  0.00  0.00    -0.296 OA
ATOM      9  C   UNL     1      -0.224  -3.885  -3.476  0.00  0.00    +0.095 C 
ATOM     10  N   UNL     1       1.212  -3.660  -3.257  0.00  0.00    -0.310 NA
ATOM     11  C   UNL     1       1.536  -2.350  -2.707  0.00  0.00    +0.097 C 
ATOM     12  C   UNL     1       1.783  -4.790  -2.525  0.00  0.00    +0.037 C 
ATOM     13  H   UNL     1       1.461  -5.748  -0.818  0.00  0.00    -0.079 HD
ENDROOT
BRANCH  12  14
ATOM     14  C   UNL     1       1.448  -6.073  -3.241  0.00  0.00    -0.005 A 
ATOM     15  C   UNL     1       1.147  -7.210  -2.518  0.00  0.00    +0.022 A 
ATOM     16  C   UNL     1       0.840  -8.388  -3.175  0.00  0.00    +0.018 A 
ATOM     17  C   UNL     1       0.834  -8.429  -4.558  0.00  0.00    +0.019 A 
ATOM     18  C   UNL     1       1.134  -7.294  -5.285  0.00  0.00    +0.047 A 
ATOM     19  C   UNL     1       1.437  -6.110  -4.628  0.00  0.00    +0.123 A 
ATOM     20 BR   UNL     1       0.429  -9.944  -2.182  0.00  0.00    -0.050 Br
BRANCH  19  21
ATOM     21  O   UNL     1       1.728  -4.991  -5.341  0.00  0.00    -0.492 OA
BRANCH  21  22
ATOM     22  C   UNL     1       1.698  -5.103  -6.766  0.00  0.00    +0.225 C 
ATOM     23  C   UNL     1       2.049  -3.752  -7.391  0.00  0.00    +0.048 C 
ENDBRANCH  21  22
ENDBRANCH  19  21
ENDBRANCH  12  14
BRANCH   1  24
ATOM     24  C   UNL     1       0.756  -0.469  -1.326  0.00  0.00    +0.015 C 
BRANCH  24  26
ATOM     25  C   UNL     1       2.204   1.567  -1.330  0.00  0.00    +0.004 C 
ATOM     26  C   UNL     1       2.200   0.037  -1.317  0.00  0.00    -0.002 C 
ENDBRANCH  24  26
ENDBRANCH   1  24
BRANCH   6  27
ATOM     27  C   UNL     1      -2.390  -4.155  -2.189  0.00  0.00    +0.013 C 
BRANCH  27  28
ATOM     28  C   UNL     1      -3.060  -3.183  -3.163  0.00  0.00    -0.002 C 
ATOM     29  C   UNL     1      -4.553  -3.505  -3.258  0.00  0.00    +0.004 C 
ENDBRANCH  27  28
ENDBRANCH   6  27
TORSDOF 7
