REMARK  Name = ZINC15803161
REMARK  10 active torsions:
REMARK  status: ('A' for Active; 'I' for Inactive)
REMARK    1  A    between atoms: C_1  and  C_2
REMARK    2  A    between atoms: C_5  and  C_31
REMARK    3  A    between atoms: C_6  and  N_8
REMARK    4  A    between atoms: C_9  and  C_11
REMARK    5  A    between atoms: C_11  and  C_13
REMARK    6  A    between atoms: C_11  and  O_14
REMARK    7  A    between atoms: O_14  and  C_15
REMARK    8  A    between atoms: C_15  and  C_17
REMARK    9  A    between atoms: C_20  and  S_23
REMARK   10  A    between atoms: S_23  and  N_26
REMARK                            x       y       z     vdW  Elec       q    Type
REMARK                         _______ _______ _______ _____ _____    ______ ____
ROOT
ATOM      1  C   UNL     1      -3.104   3.049   4.898  0.00  0.00    +0.340 C 
ATOM      2  O   UNL     1      -3.907   2.284   5.395  0.00  0.00    -0.245 OA
ENDROOT
BRANCH   1   3
ATOM      3  C   UNL     1      -2.340   2.643   3.701  0.00  0.00    +0.059 A 
ATOM      4  C   UNL     1      -2.538   1.380   3.138  0.00  0.00    +0.017 A 
ATOM      5  C   UNL     1      -1.821   1.007   2.020  0.00  0.00    +0.029 A 
ATOM      6  C   UNL     1      -0.908   1.881   1.457  0.00  0.00    +0.106 A 
ATOM      7  C   UNL     1      -0.703   3.131   2.013  0.00  0.00    +0.029 A 
ATOM      8  C   UNL     1      -1.417   3.519   3.127  0.00  0.00    +0.017 A 
BRANCH   6   9
ATOM      9  S   UNL     1       0.004   1.397   0.029  0.00  0.00    +0.061 S 
ATOM     10  O   UNL     1       0.032  -0.024   0.028  0.00  0.00    -0.153 OA
ATOM     11  O   UNL     1       1.188   2.182   0.017  0.00  0.00    -0.153 OA
BRANCH   9  12
ATOM     12  N   UNL     1      -0.881   1.853  -1.295  0.00  0.00    -0.177 NA
ATOM     13  C   UNL     1      -1.888   1.029  -1.978  0.00  0.00    +0.109 C 
ATOM     14  C   UNL     1      -2.429   1.855  -3.164  0.00  0.00    +0.018 C 
ATOM     15  C   UNL     1      -1.287   2.873  -3.425  0.00  0.00    +0.018 C 
ATOM     16  C   UNL     1      -0.784   3.151  -1.987  0.00  0.00    +0.109 C 
ENDBRANCH   9  12
ENDBRANCH   6   9
ENDBRANCH   1   3
BRANCH   1  17
ATOM     17  O   UNL     1      -2.911   4.268   5.439  0.00  0.00    -0.449 OA
BRANCH  17  18
ATOM     18  C   UNL     1      -3.697   4.599   6.614  0.00  0.00    +0.259 C 
ATOM     19  C   UNL     1      -5.010   5.255   6.181  0.00  0.00    +0.062 C 
BRANCH  18  21
ATOM     20  N   UNL     1      -3.412   5.924   8.683  0.00  0.00    -0.282 N 
ATOM     21  C   UNL     1      -2.921   5.555   7.484  0.00  0.00    +0.258 C 
ATOM     22  O   UNL     1      -1.855   5.991   7.104  0.00  0.00    -0.271 OA
ATOM     23  H   UNL     1      -4.299   5.640   8.953  0.00  0.00    +0.155 HD
BRANCH  20  29
ATOM     24  C   UNL     1       1.005   7.484  10.178  0.00  0.00    +0.044 C 
ATOM     25  C   UNL     1      -0.498   7.493  10.287  0.00  0.00    -0.049 A 
ATOM     26  C   UNL     1      -1.117   8.287  11.235  0.00  0.00    +0.004 A 
ATOM     27  C   UNL     1      -2.496   8.299  11.338  0.00  0.00    +0.005 A 
ATOM     28  C   UNL     1      -3.260   7.521  10.489  0.00  0.00    -0.029 A 
ATOM     29  C   UNL     1      -2.641   6.718   9.540  0.00  0.00    +0.037 A 
ATOM     30  C   UNL     1      -1.256   6.709   9.440  0.00  0.00    +0.027 A 
ATOM     31  C   UNL     1      -4.763   7.539  10.598  0.00  0.00    +0.045 C 
ENDBRANCH  20  29
ENDBRANCH  18  21
ENDBRANCH  17  18
ENDBRANCH   1  17
TORSDOF 7
