REMARK  Name = ZINC09613474
REMARK  9 active torsions:
REMARK  status: ('A' for Active; 'I' for Inactive)
REMARK    1  A    between atoms: C_1  and  C_2
REMARK    2  A    between atoms: C_5  and  N_9
REMARK    3  A    between atoms: C_6  and  C_8
REMARK    4  A    between atoms: N_9  and  S_10
REMARK    5  A    between atoms: S_10  and  C_13
REMARK    6  A    between atoms: C_15  and  N_31
REMARK    7  A    between atoms: C_18  and  N_19
REMARK    8  A    between atoms: N_19  and  N_20
REMARK    9  A    between atoms: N_20  and  C_21
REMARK                            x       y       z     vdW  Elec       q    Type
REMARK                         _______ _______ _______ _____ _____    ______ ____
ROOT
ATOM      1  C   UNL     1       2.611  -4.718  -0.896  0.00  0.00    +0.133 A 
ATOM      2  C   UNL     1       3.416  -5.780  -0.533  0.00  0.00    +0.063 A 
ATOM      3  C   UNL     1       4.786  -5.614  -0.448  0.00  0.00    +0.128 A 
ATOM      4  C   UNL     1       5.356  -4.385  -0.727  0.00  0.00    +0.035 A 
ATOM      5  C   UNL     1       4.557  -3.319  -1.090  0.00  0.00    +0.028 A 
ATOM      6  C   UNL     1       3.181  -3.483  -1.182  0.00  0.00    +0.071 A 
ENDROOT
BRANCH   1   7
ATOM      7  S   UNL     1       0.866  -4.930  -1.005  0.00  0.00    +0.074 S 
ATOM      8  O   UNL     1       0.592  -6.262  -0.591  0.00  0.00    -0.150 OA
ATOM      9  O   UNL     1       0.474  -4.431  -2.276  0.00  0.00    -0.150 OA
BRANCH   7  10
ATOM     10  N   UNL     1       0.180  -3.933   0.126  0.00  0.00    -0.216 N 
ATOM     11  H   UNL     1      -0.346  -3.168  -0.156  0.00  0.00    +0.174 HD
BRANCH  10  16
ATOM     12  C   UNL     1       0.906  -4.989   5.650  0.00  0.00    +0.044 C 
ATOM     13  C   UNL     1       0.713  -4.709   4.182  0.00  0.00    -0.050 A 
ATOM     14  C   UNL     1       1.699  -5.058   3.278  0.00  0.00    +0.005 A 
ATOM     15  C   UNL     1       1.525  -4.803   1.932  0.00  0.00    +0.025 A 
ATOM     16  C   UNL     1       0.358  -4.194   1.487  0.00  0.00    +0.051 A 
ATOM     17  C   UNL     1      -0.630  -3.844   2.398  0.00  0.00    -0.028 A 
ATOM     18  C   UNL     1      -0.452  -4.107   3.742  0.00  0.00    +0.008 A 
ATOM     19  C   UNL     1      -1.897  -3.182   1.920  0.00  0.00    +0.046 C 
ENDBRANCH  10  16
ENDBRANCH   7  10
ENDBRANCH   1   7
BRANCH   3  20
ATOM     20  N   UNL     1       5.645  -6.755  -0.057  0.00  0.00    +0.056 N 
ATOM     21  O   UNL     1       5.148  -7.830   0.187  0.00  0.00    -0.126 OA
ATOM     22  O   UNL     1       6.843  -6.612   0.017  0.00  0.00    -0.126 OA
ENDBRANCH   3  20
BRANCH   6  23
ATOM     23  N   UNL     1       2.371  -2.409  -1.556  0.00  0.00    -0.265 N 
ATOM     24  H   UNL     1       1.408  -2.519  -1.600  0.00  0.00    +0.170 HD
BRANCH  23  25
ATOM     25  N   UNL     1       2.949  -1.171  -1.865  0.00  0.00    -0.261 N 
ATOM     26  H   UNL     1       2.973  -0.466  -1.199  0.00  0.00    +0.170 HD
BRANCH  25  27
ATOM     27  C   UNL     1       3.466  -0.960  -3.078  0.00  0.00    +0.116 C 
ATOM     28  C   UNL     1       3.421  -1.827  -4.197  0.00  0.00    +0.024 A 
ATOM     29  C   UNL     1       2.867  -3.096  -4.404  0.00  0.00    +0.012 A 
ATOM     30  C   UNL     1       2.990  -3.703  -5.639  0.00  0.00    +0.001 A 
ATOM     31  C   UNL     1       3.658  -3.062  -6.670  0.00  0.00    +0.002 A 
ATOM     32  C   UNL     1       4.213  -1.806  -6.485  0.00  0.00    +0.024 A 
ATOM     33  C   UNL     1       4.105  -1.169  -5.252  0.00  0.00    +0.043 A 
ATOM     34  N   UNL     1       4.553   0.043  -4.816  0.00  0.00    -0.280 N 
ATOM     35  C   UNL     1       4.218   0.252  -3.555  0.00  0.00    +0.264 C 
ATOM     36  O   UNL     1       4.475   1.245  -2.898  0.00  0.00    -0.268 OA
ATOM     37  H   UNL     1       5.050   0.672  -5.362  0.00  0.00    +0.155 HD
ENDBRANCH  25  27
ENDBRANCH  23  25
ENDBRANCH   6  23
TORSDOF 7
