REMARK  Name = ZINC11983920
REMARK  8 active torsions:
REMARK  status: ('A' for Active; 'I' for Inactive)
REMARK    1  A    between atoms: C_1  and  C_2
REMARK    2  A    between atoms: C_2  and  C_3
REMARK    3  A    between atoms: C_2  and  C_4
REMARK    4  A    between atoms: C_4  and  C_5
REMARK    5  A    between atoms: C_5  and  N_51
REMARK    6  A    between atoms: N_9  and  C_19
REMARK    7  A    between atoms: C_22  and  O_25
REMARK    8  A    between atoms: O_25  and  C_26
REMARK                            x       y       z     vdW  Elec       q    Type
REMARK                         _______ _______ _______ _____ _____    ______ ____
ROOT
ATOM      1  C   UNL     1      -1.978   8.945   3.165  0.00  0.00    +0.020 C 
ATOM      2  C   UNL     1      -1.819   7.478   2.882  0.00  0.00    +0.203 C 
ATOM      3  O   UNL     1      -2.353   6.679   3.622  0.00  0.00    -0.277 OA
ATOM      4  N   UNL     1      -1.111   7.020   1.846  0.00  0.00    -0.270 N 
ATOM      5  C   UNL     1      -0.440   7.886   0.883  0.00  0.00    +0.090 C 
ATOM      6  C   UNL     1      -0.378   9.328   1.396  0.00  0.00    -0.024 C 
ATOM      7  C   UNL     1       0.694   9.404   2.518  0.00  0.00    +0.152 C 
ATOM      8  S   UNL     1       2.002   8.316   1.810  0.00  0.00    -0.031 S 
ATOM      9  O   UNL     1       2.923   9.116   1.081  0.00  0.00    -0.174 OA
ATOM     10  O   UNL     1       2.481   7.448   2.828  0.00  0.00    -0.174 OA
ATOM     11  C   UNL     1       0.984   7.345   0.626  0.00  0.00    +0.187 C 
ATOM     12  N   UNL     1      -1.696   9.712   1.935  0.00  0.00    +0.390 N 
ATOM     13  H   UNL     1      -2.418   9.499   1.236  0.00  0.00    -0.081 HD
ENDROOT
BRANCH   4  14
ATOM     14  C   UNL     1      -1.002   5.633   1.678  0.00  0.00    +0.037 A 
ATOM     15  C   UNL     1      -1.605   5.016   0.590  0.00  0.00    +0.027 A 
ATOM     16  C   UNL     1      -1.497   3.649   0.425  0.00  0.00    +0.047 A 
ATOM     17  C   UNL     1      -0.787   2.893   1.346  0.00  0.00    +0.120 A 
ATOM     18  C   UNL     1      -0.189   3.508   2.436  0.00  0.00    +0.047 A 
ATOM     19  C   UNL     1      -0.291   4.875   2.599  0.00  0.00    +0.027 A 
BRANCH  17  20
ATOM     20  O   UNL     1      -0.682   1.547   1.184  0.00  0.00    -0.495 OA
ATOM     21  C   UNL     1       0.064   0.830   2.170  0.00  0.00    +0.277 C 
ENDBRANCH  17  20
ENDBRANCH   4  14
BRANCH  12  22
ATOM     22  C   UNL     1      -1.722  11.161   2.225  0.00  0.00    -0.077 C 
BRANCH  22  23
ATOM     23  C   UNL     1      -3.154  11.571   2.572  0.00  0.00    -0.016 C 
BRANCH  23  25
ATOM     24  C   UNL     1      -4.651  13.506   3.080  0.00  0.00    +0.007 C 
ATOM     25  C   UNL     1      -3.200  13.074   2.855  0.00  0.00    -0.019 C 
ATOM     26  C   UNL     1      -2.376  13.383   4.106  0.00  0.00    +0.007 C 
ENDBRANCH  23  25
ENDBRANCH  22  23
ENDBRANCH  12  22
TORSDOF 5
