REMARK  Name = ZINC40376476
REMARK  6 active torsions:
REMARK  status: ('A' for Active; 'I' for Inactive)
REMARK    1  A    between atoms: C_1  and  C_2
REMARK    2  A    between atoms: C_5  and  N_8
REMARK    3  A    between atoms: C_14  and  C_19
REMARK    4  A    between atoms: C_19  and  C_20
REMARK    5  A    between atoms: N_22  and  C_23
REMARK    6  A    between atoms: C_28  and  N_29
REMARK                            x       y       z     vdW  Elec       q    Type
REMARK                         _______ _______ _______ _____ _____    ______ ____
ROOT
ATOM      1  N   UNL     1       2.528  -3.610   2.282  0.00  0.00    -0.215 NA
ATOM      2  C   UNL     1       1.935  -3.986   1.173  0.00  0.00    +0.202 C 
ATOM      3  N   UNL     1       1.324  -3.055   0.372  0.00  0.00    -0.369 N 
ATOM      4  N   UNL     1       1.926  -5.315   0.814  0.00  0.00    -0.295 N 
ATOM      5  C   UNL     1       2.634  -6.238   1.563  0.00  0.00    +0.230 C 
ATOM      6  N   UNL     1       2.743  -7.497   1.240  0.00  0.00    -0.236 NA
ATOM      7  C   UNL     1       3.568  -8.124   2.288  0.00  0.00    +0.208 C 
ATOM      8  C   UNL     1       3.876  -6.973   3.225  0.00  0.00    +0.274 C 
ATOM      9  O   UNL     1       4.605  -7.015   4.354  0.00  0.00    -0.268 OA
ATOM     10  N   UNL     1       3.288  -5.932   2.703  0.00  0.00    -0.176 NA
ATOM     11  H   UNL     1       0.974  -3.315  -0.494  0.00  0.00    +0.159 HD
ATOM     12  H   UNL     1       1.424  -5.604   0.036  0.00  0.00    +0.172 HD
ATOM     13  H   UNL     1       1.243  -2.136   0.671  0.00  0.00    +0.159 HD
ENDROOT
BRANCH   1  18
ATOM     14  C   UNL     1       3.015   1.881   3.502  0.00  0.00    +0.044 C 
ATOM     15  C   UNL     1       2.885   0.415   3.177  0.00  0.00    -0.050 A 
ATOM     16  C   UNL     1       2.237  -0.431   4.059  0.00  0.00    +0.005 A 
ATOM     17  C   UNL     1       2.115  -1.774   3.767  0.00  0.00    +0.028 A 
ATOM     18  C   UNL     1       2.646  -2.278   2.578  0.00  0.00    +0.068 A 
ATOM     19  C   UNL     1       3.297  -1.418   1.692  0.00  0.00    +0.028 A 
ATOM     20  C   UNL     1       3.409  -0.077   1.994  0.00  0.00    +0.005 A 
ENDBRANCH   1  18
BRANCH   7  21
ATOM     21  C   UNL     1       2.780  -9.218   3.012  0.00  0.00    +0.132 C 
BRANCH  21  22
ATOM     22  C   UNL     1       2.499 -10.350   2.057  0.00  0.00    +0.220 C 
ATOM     23  O   UNL     1       2.891 -10.288   0.911  0.00  0.00    -0.275 OA
ATOM     24  N   UNL     1       1.813 -11.431   2.478  0.00  0.00    -0.284 N 
ATOM     25  H   UNL     1       1.436 -11.449   3.371  0.00  0.00    +0.155 HD
BRANCH  24  26
ATOM     26  C   UNL     1       1.646 -12.528   1.625  0.00  0.00    +0.064 A 
ATOM     27  C   UNL     1       2.588 -12.795   0.641  0.00  0.00    +0.025 A 
ATOM     28  C   UNL     1       2.420 -13.878  -0.199  0.00  0.00    +0.002 A 
ATOM     29  C   UNL     1       1.314 -14.697  -0.060  0.00  0.00    +0.002 A 
ATOM     30  C   UNL     1       0.374 -14.434   0.919  0.00  0.00    +0.034 A 
ATOM     31  C   UNL     1       0.540 -13.356   1.766  0.00  0.00    +0.147 A 
BRANCH  31  32
ATOM     32  N   UNL     1      -0.464 -13.079   2.818  0.00  0.00    +0.058 N 
ATOM     33  O   UNL     1      -1.375 -13.852   3.003  0.00  0.00    -0.126 OA
ATOM     34  O   UNL     1      -0.373 -12.080   3.493  0.00  0.00    -0.126 OA
ENDBRANCH  31  32
ENDBRANCH  24  26
ENDBRANCH  21  22
ENDBRANCH   7  21
TORSDOF 5
