REMARK  Name = ZINC20751461
REMARK  5 active torsions:
REMARK  status: ('A' for Active; 'I' for Inactive)
REMARK    1  A    between atoms: C_4  and  N_7
REMARK    2  A    between atoms: N_7  and  S_8
REMARK    3  A    between atoms: S_8  and  C_11
REMARK    4  A    between atoms: C_24  and  C_27
REMARK    5  A    between atoms: C_36  and  O_37
REMARK                            x       y       z     vdW  Elec       q    Type
REMARK                         _______ _______ _______ _____ _____    ______ ____
ROOT
ATOM      1  C   UNL     1       7.616   0.141  -0.642  0.00  0.00    +0.109 A 
ATOM      2  C   UNL     1       7.010  -0.086  -1.864  0.00  0.00    +0.030 A 
ATOM      3  C   UNL     1       5.646  -0.290  -1.923  0.00  0.00    +0.025 A 
ATOM      4  C   UNL     1       4.888  -0.266  -0.759  0.00  0.00    +0.031 A 
ATOM      5  C   UNL     1       5.492  -0.040   0.468  0.00  0.00    -0.018 A 
ATOM      6  C   UNL     1       6.864   0.164   0.514  0.00  0.00    +0.034 A 
ATOM      7  C   UNL     1       4.718  -0.009   1.748  0.00  0.00    +0.049 C 
ATOM      8  C   UNL     1       4.548   1.404   2.255  0.00  0.00    -0.023 C 
ATOM      9  C   UNL     1       3.370   1.548   2.811  0.00  0.00    -0.030 C 
ATOM     10  C   UNL     1       2.594   0.247   2.755  0.00  0.00    +0.033 C 
ATOM     11  C   UNL     1       3.276  -0.531   1.592  0.00  0.00    +0.029 C 
ATOM     12  C   UNL     1       2.672  -0.017   0.282  0.00  0.00    +0.109 C 
ATOM     13  N   UNL     1       3.506  -0.471  -0.836  0.00  0.00    -0.336 N 
ATOM     14  H   UNL     1       3.041  -0.959  -1.706  0.00  0.00    +0.147 HD
ENDROOT
BRANCH  12  15
ATOM     15  C   UNL     1       2.632   1.489   0.303  0.00  0.00    +0.022 A 
ATOM     16  C   UNL     1       1.542   2.159   0.882  0.00  0.00    -0.009 A 
ATOM     17  C   UNL     1       0.471   1.450   1.453  0.00  0.00    +0.009 A 
ATOM     18  C   UNL     1      -0.572   2.131   2.001  0.00  0.00    +0.001 A 
ATOM     19  C   UNL     1      -0.590   3.525   2.015  0.00  0.00    +0.001 A 
ATOM     20  C   UNL     1       0.429   4.245   1.472  0.00  0.00    +0.008 A 
ATOM     21  C   UNL     1       1.521   3.576   0.892  0.00  0.00    -0.017 A 
ATOM     22  C   UNL     1       2.591   4.287   0.321  0.00  0.00    +0.012 A 
ATOM     23  C   UNL     1       3.632   3.610  -0.233  0.00  0.00    +0.046 A 
ATOM     24  C   UNL     1       3.655   2.211  -0.243  0.00  0.00    +0.122 A 
BRANCH  24  25
ATOM     25  O   UNL     1       4.709   1.562  -0.803  0.00  0.00    -0.506 OA
ATOM     26  H   UNL     1       5.537   2.136  -1.245  0.00  0.00    +0.292 HD
ENDBRANCH  24  25
ENDBRANCH  12  15
BRANCH   1  27
ATOM     27  S   UNL     1       9.357   0.402  -0.562  0.00  0.00    +0.072 S 
ATOM     28  O   UNL     1       9.738   0.985  -1.801  0.00  0.00    -0.150 OA
ATOM     29  O   UNL     1       9.617   1.029   0.686  0.00  0.00    -0.150 OA
BRANCH  27  30
ATOM     30  N   UNL     1      10.074  -1.089  -0.501  0.00  0.00    -0.216 N 
ATOM     31  H   UNL     1      10.769  -1.399  -1.295  0.00  0.00    +0.174 HD
BRANCH  30  35
ATOM     32  C   UNL     1       9.245  -3.670   2.660  0.00  0.00    +0.000 A 
ATOM     33  C   UNL     1       9.235  -4.144   1.361  0.00  0.00    +0.002 A 
ATOM     34  C   UNL     1       9.509  -3.291   0.311  0.00  0.00    +0.024 A 
ATOM     35  C   UNL     1       9.795  -1.955   0.560  0.00  0.00    +0.048 A 
ATOM     36  C   UNL     1       9.810  -1.483   1.866  0.00  0.00    +0.024 A 
ATOM     37  C   UNL     1       9.529  -2.340   2.912  0.00  0.00    +0.002 A 
ENDBRANCH  30  35
ENDBRANCH  27  30
ENDBRANCH   1  27
TORSDOF 5
