REMARK  Name = ZINC16571168
REMARK  8 active torsions:
REMARK  status: ('A' for Active; 'I' for Inactive)
REMARK    1  A    between atoms: C_1  and  C_2
REMARK    2  A    between atoms: C_4  and  C_35
REMARK    3  A    between atoms: N_6  and  C_8
REMARK    4  A    between atoms: C_9  and  C_21
REMARK    5  A    between atoms: N_12  and  C_15
REMARK    6  A    between atoms: C_22  and  C_34
REMARK    7  A    between atoms: N_24  and  C_27
REMARK    8  A    between atoms: C_25  and  O_26
REMARK                            x       y       z     vdW  Elec       q    Type
REMARK                         _______ _______ _______ _____ _____    ______ ____
ROOT
ATOM      1  C   UNL     1       1.173   2.085   0.002  0.00  0.00    +0.122 C 
ATOM      2  C   UNL     1       0.695   3.387   0.013  0.00  0.00    +0.080 C 
ATOM      3  C   UNL     1      -0.785   3.280   0.026  0.00  0.00    +0.256 C 
ATOM      4  O   UNL     1      -1.564   4.212   0.037  0.00  0.00    -0.269 OA
ATOM      5  N   UNL     1      -1.117   1.978   0.018  0.00  0.00    -0.230 N 
ATOM      6  C   UNL     1      -0.014   1.211   0.009  0.00  0.00    +0.271 C 
ATOM      7  O   UNL     1       0.002  -0.004   0.002  0.00  0.00    -0.268 OA
ENDROOT
BRANCH   1  13
ATOM      8  C   UNL     1       5.412   1.924  -2.313  0.00  0.00    +0.045 C 
ATOM      9  C   UNL     1       4.564   1.595  -1.111  0.00  0.00    -0.034 A 
ATOM     10  C   UNL     1       5.107   0.902  -0.038  0.00  0.00    +0.009 A 
ATOM     11  C   UNL     1       4.292   0.618   1.050  0.00  0.00    -0.034 A 
ATOM     12  C   UNL     1       2.976   1.029   1.032  0.00  0.00    +0.094 A 
ATOM     13  N   UNL     1       2.487   1.690  -0.011  0.00  0.00    -0.318 N 
ATOM     14  C   UNL     1       3.238   1.973  -1.069  0.00  0.00    +0.094 A 
ATOM     15  C   UNL     1       4.840  -0.132   2.237  0.00  0.00    +0.045 C 
ENDBRANCH   1  13
BRANCH   5  16
ATOM     16  C   UNL     1      -2.490   1.467   0.021  0.00  0.00    +0.085 C 
ATOM     17  C   UNL     1      -2.711   0.607   1.268  0.00  0.00    +0.023 C 
ATOM     18  C   UNL     1      -4.144   0.073   1.271  0.00  0.00    +0.002 C 
ATOM     19  C   UNL     1      -4.376  -0.775   0.019  0.00  0.00    +0.000 C 
ATOM     20  C   UNL     1      -4.155   0.084  -1.227  0.00  0.00    +0.002 C 
ATOM     21  C   UNL     1      -2.722   0.618  -1.231  0.00  0.00    +0.023 C 
ENDBRANCH   5  16
BRANCH   2  22
ATOM     22  C   UNL     1       1.493   4.622   0.011  0.00  0.00    +0.073 A 
ATOM     23  C   UNL     1       1.939   5.334  -1.127  0.00  0.00    +0.072 A 
ATOM     24  N   UNL     1       2.614   6.372  -0.720  0.00  0.00    -0.168 NA
ATOM     25  N   UNL     1       2.640   6.386   0.679  0.00  0.00    -0.200 N 
ATOM     26  C   UNL     1       1.948   5.316   1.130  0.00  0.00    +0.224 A 
ATOM     27  C   UNL     1       1.678   4.958  -2.563  0.00  0.00    +0.068 C 
BRANCH  25  28
ATOM     28  C   UNL     1       3.272   7.349   1.478  0.00  0.00    +0.069 A 
ATOM     29  C   UNL     1       2.705   7.729   2.687  0.00  0.00    +0.031 A 
ATOM     30  C   UNL     1       3.332   8.675   3.475  0.00  0.00    +0.040 A 
ATOM     31  C   UNL     1       4.519   9.252   3.055  0.00  0.00    +0.124 A 
ATOM     32  C   UNL     1       5.082   8.878   1.846  0.00  0.00    +0.040 A 
ATOM     33  C   UNL     1       4.462   7.928   1.058  0.00  0.00    +0.031 A 
ATOM     34  F   UNL     1       5.127  10.181   3.824  0.00  0.00    -0.205 F 
ENDBRANCH  25  28
BRANCH  26  35
ATOM     35  O   UNL     1       1.739   4.981   2.425  0.00  0.00    -0.492 OA
ATOM     36  H   UNL     1       2.421   4.404   2.797  0.00  0.00    +0.294 HD
ENDBRANCH  26  35
ENDBRANCH   2  22
TORSDOF 5
