REMARK  Name = ZINC09497593
REMARK  10 active torsions:
REMARK  status: ('A' for Active; 'I' for Inactive)
REMARK    1  A    between atoms: C_1  and  C_2
REMARK    2  A    between atoms: C_4  and  C_33
REMARK    3  A    between atoms: C_5  and  C_9
REMARK    4  A    between atoms: C_6  and  C_8
REMARK    5  A    between atoms: N_10  and  N_11
REMARK    6  A    between atoms: C_12  and  C_14
REMARK    7  A    between atoms: C_15  and  C_25
REMARK    8  A    between atoms: C_25  and  N_65
REMARK    9  A    between atoms: C_26  and  N_65
REMARK   10  A    between atoms: C_27  and  N_65
REMARK                            x       y       z     vdW  Elec       q    Type
REMARK                         _______ _______ _______ _____ _____    ______ ____
ROOT
ATOM      1  C   UNL     1       3.307  -3.517   1.001  0.00  0.00    +0.170 A 
ATOM      2  C   UNL     1       3.372  -2.153   1.043  0.00  0.00    +0.063 A 
ATOM      3  N   UNL     1       2.127  -1.712   1.331  0.00  0.00    -0.194 N 
ATOM      4  N   UNL     1       1.313  -2.847   1.450  0.00  0.00    -0.058 NA
ATOM      5  N   UNL     1       2.040  -3.891   1.250  0.00  0.00    -0.124 NA
ATOM      6  C   UNL     1       1.727  -0.379   1.475  0.00  0.00    +0.240 A 
ATOM      7  C   UNL     1       0.369   0.081   1.781  0.00  0.00    +0.206 A 
ATOM      8  N   UNL     1       0.380   1.384   1.838  0.00  0.00    -0.032 NA
ATOM      9  O   UNL     1       1.704   1.818   1.579  0.00  0.00    -0.239 OA
ATOM     10  N   UNL     1       2.498   0.665   1.360  0.00  0.00    -0.027 NA
ATOM     11  N   UNL     1      -0.740  -0.734   1.979  0.00  0.00    -0.337 N 
ATOM     12  H   UNL     1      -1.603  -0.338   2.179  0.00  0.00    +0.144 HD
ATOM     13  H   UNL     1      -0.652  -1.698   1.917  0.00  0.00    +0.144 HD
ENDROOT
BRANCH   1  15
ATOM     14  N   UNL     1       4.238  -5.759   0.705  0.00  0.00    -0.202 N 
ATOM     15  C   UNL     1       4.435  -4.426   0.723  0.00  0.00    +0.285 C 
ATOM     16  O   UNL     1       5.544  -3.972   0.510  0.00  0.00    -0.267 OA
ATOM     17  H   UNL     1       3.354  -6.121   0.874  0.00  0.00    +0.178 HD
BRANCH  14  19
ATOM     18  C   UNL     1       5.120  -7.905   0.423  0.00  0.00    +0.138 C 
ATOM     19  N   UNL     1       5.310  -6.622   0.441  0.00  0.00    -0.187 NA
BRANCH  18  24
ATOM     20  C   UNL     1       9.519 -11.448  -0.662  0.00  0.00    +0.044 C 
ATOM     21  C   UNL     1       8.366 -10.520  -0.378  0.00  0.00    -0.050 A 
ATOM     22  C   UNL     1       7.135 -11.040  -0.019  0.00  0.00    +0.007 A 
ATOM     23  C   UNL     1       6.076 -10.197   0.243  0.00  0.00    -0.041 A 
ATOM     24  C   UNL     1       6.248  -8.814   0.145  0.00  0.00    +0.000 A 
ATOM     25  C   UNL     1       7.492  -8.296  -0.223  0.00  0.00    -0.041 A 
ATOM     26  C   UNL     1       8.544  -9.151  -0.477  0.00  0.00    +0.007 A 
ATOM     27  C   UNL     1       7.686  -6.806  -0.337  0.00  0.00    +0.044 C 
ATOM     28  C   UNL     1       4.736 -10.765   0.633  0.00  0.00    +0.044 C 
ENDBRANCH  18  24
ENDBRANCH  14  19
ENDBRANCH   1  15
BRANCH   2  29
ATOM     29  C   UNL     1       4.596  -1.304   0.815  0.00  0.00    -0.020 C 
BRANCH  29  31
ATOM     30  C   UNL     1       5.827  -2.346   2.621  0.00  0.00    -0.095 C 
ATOM     31  N   UNL     1       5.267  -1.077   2.113  0.00  0.00    +0.383 N 
ATOM     32  H   UNL     1       4.577  -0.723   2.787  0.00  0.00    -0.081 HD
BRANCH  31  33
ATOM     33  C   UNL     1       6.343  -0.076   1.956  0.00  0.00    -0.068 C 
ATOM     34  C   UNL     1       7.430  -0.599   1.016  0.00  0.00    -0.015 C 
ATOM     35  C   UNL     1       8.531   0.454   0.872  0.00  0.00    -0.002 C 
ATOM     36  C   UNL     1       9.141   0.743   2.245  0.00  0.00    -0.000 C 
ATOM     37  C   UNL     1       8.054   1.267   3.186  0.00  0.00    -0.002 C 
ATOM     38  C   UNL     1       6.953   0.214   3.329  0.00  0.00    -0.015 C 
ENDBRANCH  31  33
ENDBRANCH  29  31
ENDBRANCH   2  29
TORSDOF 6
