REMARK  Name = ZINC43556996
REMARK  6 active torsions:
REMARK  status: ('A' for Active; 'I' for Inactive)
REMARK    1  A    between atoms: C_1  and  C_2
REMARK    2  A    between atoms: C_2  and  C_3
REMARK    3  A    between atoms: C_3  and  C_4
REMARK    4  A    between atoms: N_12  and  C_13
REMARK    5  A    between atoms: C_13  and  C_15
REMARK    6  A    between atoms: C_13  and  C_16
REMARK                            x       y       z     vdW  Elec       q    Type
REMARK                         _______ _______ _______ _____ _____    ______ ____
ROOT
ATOM      1  C   UNL     1       0.739  -2.004  -1.265  0.00  0.00    +0.104 A 
ATOM      2  N   UNL     1      -0.127  -2.859  -1.772  0.00  0.00    -0.145 NA
ATOM      3  N   UNL     1       0.095  -4.098  -1.662  0.00  0.00    -0.126 NA
ATOM      4  C   UNL     1       1.169  -4.561  -1.054  0.00  0.00    +0.189 A 
ATOM      5  S   UNL     1       1.948  -3.138  -0.597  0.00  0.00    -0.035 S 
ATOM      6  N   UNL     1       1.560  -5.880  -0.849  0.00  0.00    -0.247 N 
ATOM      7  C   UNL     1       0.790  -6.890  -1.302  0.00  0.00    +0.306 C 
ATOM      8  O   UNL     1      -0.245  -6.647  -1.892  0.00  0.00    -0.252 OA
ATOM      9  N   UNL     1       1.169  -8.168  -1.103  0.00  0.00    -0.290 N 
ATOM     10  H   UNL     1       2.386  -6.074  -0.379  0.00  0.00    +0.158 HD
ATOM     11  H   UNL     1       1.995  -8.361  -0.633  0.00  0.00    +0.151 HD
ENDROOT
BRANCH   9  12
ATOM     12  C   UNL     1       0.333  -9.265  -1.597  0.00  0.00    +0.137 C 
ATOM     13  C   UNL     1      -0.754  -9.580  -0.567  0.00  0.00    +0.036 C 
BRANCH  12  14
ATOM     14  C   UNL     1       1.186 -10.487  -1.817  0.00  0.00    +0.126 A 
ATOM     15  C   UNL     1       1.069 -11.328  -2.853  0.00  0.00    +0.055 A 
ATOM     16  C   UNL     1       2.093 -12.361  -2.660  0.00  0.00    +0.020 A 
ATOM     17  C   UNL     1       2.481 -13.496  -3.372  0.00  0.00    +0.011 A 
ATOM     18  C   UNL     1       3.505 -14.272  -2.905  0.00  0.00    +0.001 A 
ATOM     19  C   UNL     1       4.160 -13.937  -1.729  0.00  0.00    +0.004 A 
ATOM     20  C   UNL     1       3.791 -12.820  -1.011  0.00  0.00    +0.047 A 
ATOM     21  C   UNL     1       2.753 -12.017  -1.468  0.00  0.00    +0.135 A 
ATOM     22  O   UNL     1       2.180 -10.889  -1.004  0.00  0.00    -0.458 OA
ENDBRANCH  12  14
ENDBRANCH   9  12
BRANCH   1  23
ATOM     23  C   UNL     1       0.718  -0.497  -1.257  0.00  0.00    +0.064 C 
BRANCH  23  25
ATOM     24  C   UNL     1      -0.019   1.526   0.010  0.00  0.00    +0.004 C 
ATOM     25  C   UNL     1       0.002  -0.004   0.002  0.00  0.00    +0.003 C 
ENDBRANCH  23  25
ENDBRANCH   1  23
TORSDOF 4
