REMARK  Name = ZINC05427348
REMARK  6 active torsions:
REMARK  status: ('A' for Active; 'I' for Inactive)
REMARK    1  A    between atoms: C_1  and  C_2
REMARK    2  A    between atoms: C_6  and  N_9
REMARK    3  A    between atoms: C_7  and  C_8
REMARK    4  A    between atoms: C_21  and  C_22
REMARK    5  A    between atoms: C_21  and  C_23
REMARK    6  A    between atoms: C_21  and  N_45
REMARK                            x       y       z     vdW  Elec       q    Type
REMARK                         _______ _______ _______ _____ _____    ______ ____
ROOT
ATOM      1  N   UNL     1      -0.189   7.054   2.035  0.00  0.00    -0.250 N 
ATOM      2  C   UNL     1      -0.324   5.689   1.880  0.00  0.00    +0.112 A 
ATOM      3  C   UNL     1      -1.335   5.047   2.527  0.00  0.00    +0.039 A 
ATOM      4  C   UNL     1      -2.220   5.791   3.327  0.00  0.00    +0.257 A 
ATOM      5  O   UNL     1      -3.133   5.233   3.912  0.00  0.00    -0.267 OA
ATOM      6  N   UNL     1      -2.056   7.123   3.445  0.00  0.00    -0.274 N 
ATOM      7  H   UNL     1      -2.687   7.653   4.011  0.00  0.00    +0.173 HD
ATOM      8  C   UNL     1      -1.048   7.743   2.806  0.00  0.00    +0.335 A 
ATOM      9  O   UNL     1      -0.911   8.945   2.927  0.00  0.00    -0.246 OA
ATOM     10  C   UNL     1      -1.532   3.558   2.410  0.00  0.00    -0.031 C 
ATOM     11  C   UNL     1       0.618   3.594   1.335  0.00  0.00    +0.028 C 
ATOM     12  N   UNL     1       0.564   5.034   1.070  0.00  0.00    -0.346 N 
ATOM     13  H   UNL     1       1.482   5.447   1.131  0.00  0.00    +0.145 HD
ATOM     14  N   UNL     1      -0.755   3.061   1.260  0.00  0.00    +0.394 N 
ATOM     15  H   UNL     1      -1.196   3.384   0.391  0.00  0.00    -0.079 HD
ENDROOT
BRANCH   1  21
ATOM     16  C   UNL     1       1.476   9.461  -1.918  0.00  0.00    +0.044 C 
ATOM     17  C   UNL     1       1.686   8.904  -0.533  0.00  0.00    -0.046 A 
ATOM     18  C   UNL     1       2.909   9.057   0.095  0.00  0.00    +0.004 A 
ATOM     19  C   UNL     1       3.105   8.548   1.365  0.00  0.00    +0.002 A 
ATOM     20  C   UNL     1       2.080   7.883   2.011  0.00  0.00    +0.026 A 
ATOM     21  C   UNL     1       0.852   7.728   1.383  0.00  0.00    +0.056 A 
ATOM     22  C   UNL     1       0.660   8.236   0.105  0.00  0.00    -0.024 A 
ATOM     23  C   UNL     1      -0.670   8.063  -0.583  0.00  0.00    +0.046 C 
ENDBRANCH   1  21
BRANCH  14  24
ATOM     24  C   UNL     1      -0.729   1.579   1.267  0.00  0.00    -0.072 C 
ATOM     25  C   UNL     1      -0.013   1.086   0.008  0.00  0.00    -0.013 C 
ATOM     26  C   UNL     1       0.011   1.072   2.506  0.00  0.00    -0.013 C 
ENDBRANCH  14  24
TORSDOF 2
