REMARK  Name = ZINC64502403
REMARK  5 active torsions:
REMARK  status: ('A' for Active; 'I' for Inactive)
REMARK    1  A    between atoms: C_8  and  N_15
REMARK    2  A    between atoms: C_19  and  C_22
REMARK    3  A    between atoms: N_24  and  C_25
REMARK    4  A    between atoms: C_25  and  C_26
REMARK    5  A    between atoms: C_26  and  C_27
REMARK                            x       y       z     vdW  Elec       q    Type
REMARK                         _______ _______ _______ _____ _____    ______ ____
ROOT
ATOM      1  N   UNL     1       4.677  -0.465  -2.059  0.00  0.00    -0.279 NA
ATOM      2  C   UNL     1       3.504   0.184  -2.658  0.00  0.00    +0.086 C 
ATOM      3  C   UNL     1       3.575   0.064  -4.182  0.00  0.00    +0.016 C 
ATOM      4  C   UNL     1       3.617  -1.417  -4.571  0.00  0.00    +0.015 C 
ATOM      5  C   UNL     1       4.821  -2.080  -3.895  0.00  0.00    +0.089 C 
ATOM      6  C   UNL     1       4.713  -1.897  -2.380  0.00  0.00    +0.099 C 
ENDROOT
BRANCH   1  14
ATOM      7  C   UNL     1      -0.017   1.376   0.010  0.00  0.00    +0.022 A 
ATOM      8  C   UNL     1       1.188   2.071   0.002  0.00  0.00    +0.031 A 
ATOM      9  C   UNL     1       2.360   1.341  -0.011  0.00  0.00    +0.086 A 
ATOM     10  C   UNL     1       2.310  -0.059  -0.008  0.00  0.00    +0.144 A 
ATOM     11  N   UNL     1       1.139  -0.675  -0.007  0.00  0.00    -0.238 NA
ATOM     12  C   UNL     1       0.002  -0.004   0.002  0.00  0.00    +0.113 A 
ATOM     13  N   UNL     1       3.493  -0.795   0.010  0.00  0.00    -0.307 N 
ATOM     14  C   UNL     1       4.714  -0.249  -0.606  0.00  0.00    +0.191 C 
ATOM     15  C   UNL     1       4.759   1.230  -0.309  0.00  0.00    +0.059 A 
ATOM     16  N   UNL     1       3.620   1.955  -0.034  0.00  0.00    -0.314 N 
ATOM     17  C   UNL     1       3.971   3.245   0.184  0.00  0.00    +0.092 A 
ATOM     18  C   UNL     1       5.314   3.344   0.056  0.00  0.00    +0.020 A 
ATOM     19  C   UNL     1       5.807   2.058  -0.256  0.00  0.00    +0.026 A 
ATOM     20  H   UNL     1       3.513  -1.669   0.429  0.00  0.00    +0.149 HD
ENDBRANCH   1  14
BRANCH   5  21
ATOM     21  C   UNL     1       4.836  -3.550  -4.226  0.00  0.00    +0.217 C 
ATOM     22  O   UNL     1       4.772  -4.372  -3.337  0.00  0.00    -0.275 OA
ATOM     23  N   UNL     1       4.922  -3.951  -5.510  0.00  0.00    -0.315 N 
ATOM     24  H   UNL     1       4.974  -3.293  -6.221  0.00  0.00    +0.149 HD
BRANCH  23  25
ATOM     25  C   UNL     1       4.938  -5.380  -5.831  0.00  0.00    +0.108 C 
BRANCH  25  26
ATOM     26  C   UNL     1       5.040  -5.561  -7.347  0.00  0.00    +0.052 C 
BRANCH  26  27
ATOM     27  C   UNL     1       5.056  -7.031  -7.678  0.00  0.00    -0.040 C 
ATOM     28  C   UNL     1       3.998  -7.797  -8.027  0.00  0.00    +0.000 A 
ATOM     29  C   UNL     1       2.570  -7.503  -8.195  0.00  0.00    +0.030 A 
ATOM     30  C   UNL     1       1.732  -8.502  -8.560  0.00  0.00    +0.042 A 
ATOM     31  C   UNL     1       2.194  -9.808  -8.779  0.00  0.00    +0.022 A 
ATOM     32  C   UNL     1       3.491 -10.155  -8.644  0.00  0.00    +0.027 A 
ATOM     33  C   UNL     1       4.459  -9.184  -8.265  0.00  0.00    +0.043 A 
ATOM     34  N   UNL     1       5.753  -9.271  -8.071  0.00  0.00    -0.380 N 
ATOM     35  C   UNL     1       6.260  -7.947  -7.693  0.00  0.00    +0.144 C 
ATOM     36 CL   UNL     1       0.043  -8.157  -8.760  0.00  0.00    -0.084 Cl
ATOM     37  H   UNL     1       6.287 -10.075  -8.164  0.00  0.00    +0.160 HD
ENDBRANCH  26  27
ENDBRANCH  25  26
ENDBRANCH  23  25
ENDBRANCH   5  21
TORSDOF 5
