REMARK  Name = ZINC29465204
REMARK  6 active torsions:
REMARK  status: ('A' for Active; 'I' for Inactive)
REMARK    1  A    between atoms: C_1  and  C_2
REMARK    2  A    between atoms: C_7  and  C_24
REMARK    3  A    between atoms: C_10  and  C_12
REMARK    4  A    between atoms: C_12  and  O_13
REMARK    5  A    between atoms: O_13  and  N_14
REMARK    6  A    between atoms: C_15  and  C_16
REMARK                            x       y       z     vdW  Elec       q    Type
REMARK                         _______ _______ _______ _____ _____    ______ ____
ROOT
ATOM      1  O   UNL     1       3.091   0.945   3.605  0.00  0.00    -0.383 OA
ENDROOT
BRANCH   1   2
ATOM      2  N   UNL     1       3.926   0.559   4.682  0.00  0.00    -0.069 NA
ATOM      3  C   UNL     1       4.537   1.465   5.388  0.00  0.00    +0.163 C 
ATOM      4  N   UNL     1       5.457   1.088   6.351  0.00  0.00    -0.340 N 
ATOM      5  H   UNL     1       5.647   0.149   6.499  0.00  0.00    +0.144 HD
ATOM      6  H   UNL     1       5.913   1.764   6.877  0.00  0.00    +0.144 HD
BRANCH   3   7
ATOM      7  C   UNL     1       4.247   2.899   5.162  0.00  0.00    +0.018 A 
ATOM      8  C   UNL     1       3.010   3.291   4.648  0.00  0.00    +0.013 A 
ATOM      9  C   UNL     1       2.746   4.629   4.440  0.00  0.00    +0.021 A 
ATOM     10  C   UNL     1       3.705   5.582   4.739  0.00  0.00    +0.041 A 
ATOM     11  C   UNL     1       4.934   5.198   5.249  0.00  0.00    +0.021 A 
ATOM     12  C   UNL     1       5.207   3.864   5.467  0.00  0.00    +0.013 A 
ATOM     13 CL   UNL     1       3.365   7.263   4.474  0.00  0.00    -0.084 Cl
ENDBRANCH   3   7
ENDBRANCH   1   2
BRANCH   1  14
ATOM     14  C   UNL     1       2.485  -0.152   2.918  0.00  0.00    +0.358 C 
BRANCH  14  22
ATOM     15  C   UNL     1       0.189   1.528  -0.159  0.00  0.00    +0.028 C 
ATOM     16  C   UNL     1       0.192  -0.002  -0.153  0.00  0.00    +0.073 C 
ATOM     17  C   UNL     1      -1.247  -0.518  -0.059  0.00  0.00    +0.022 C 
ATOM     18  C   UNL     1      -1.230  -2.042   0.087  0.00  0.00    +0.004 C 
ATOM     19  C   UNL     1      -0.495  -2.425   1.373  0.00  0.00    +0.022 C 
ATOM     20  C   UNL     1       0.953  -1.930   1.295  0.00  0.00    +0.073 C 
ATOM     21  N   UNL     1       0.949  -0.489   1.009  0.00  0.00    -0.293 N 
ATOM     22  C   UNL     1       1.623   0.371   1.798  0.00  0.00    +0.256 C 
ATOM     23  O   UNL     1       1.536   1.565   1.607  0.00  0.00    -0.272 OA
ATOM     24  C   UNL     1       1.689  -2.673   0.178  0.00  0.00    +0.028 C 
ENDBRANCH  14  22
ENDBRANCH   1  14
TORSDOF 4
