REMARK  Name = ZINC38705810
REMARK  14 active torsions:
REMARK  status: ('A' for Active; 'I' for Inactive)
REMARK    1  A    between atoms: C_1  and  C_2
REMARK    2  A    between atoms: C_2  and  C_3
REMARK    3  A    between atoms: C_3  and  O_4
REMARK    4  A    between atoms: O_4  and  C_5
REMARK    5  A    between atoms: C_8  and  C_14
REMARK    6  A    between atoms: C_10  and  O_11
REMARK    7  A    between atoms: O_11  and  C_12
REMARK    8  A    between atoms: C_12  and  C_13
REMARK    9  A    between atoms: C_17  and  C_31
REMARK   10  A    between atoms: N_24  and  C_25
REMARK   11  A    between atoms: C_25  and  C_26
REMARK   12  A    between atoms: C_32  and  C_39
REMARK   13  A    between atoms: C_34  and  C_38
REMARK   14  A    between atoms: C_36  and  O_37
REMARK                            x       y       z     vdW  Elec       q    Type
REMARK                         _______ _______ _______ _____ _____    ______ ____
ROOT
ATOM      1  C   UNL     1      -6.188  -4.271   0.135  0.00  0.00    +0.142 C 
ATOM      2  C   UNL     1      -6.810  -4.545   1.477  0.00  0.00    +0.035 A 
ATOM      3  C   UNL     1      -6.697  -5.169   2.724  0.00  0.00    +0.102 A 
ATOM      4  N   UNL     1      -7.792  -4.891   3.405  0.00  0.00    -0.173 NA
ATOM      5  N   UNL     1      -8.584  -4.154   2.712  0.00  0.00    -0.272 N 
ATOM      6  H   UNL     1      -9.447  -3.828   3.012  0.00  0.00    +0.189 HD
ATOM      7  C   UNL     1      -8.031  -3.898   1.490  0.00  0.00    +0.126 A 
ATOM      8  C   UNL     1      -8.211  -3.219   0.202  0.00  0.00    +0.266 C 
ATOM      9  O   UNL     1      -9.186  -2.559  -0.105  0.00  0.00    -0.268 OA
ATOM     10  N   UNL     1      -7.146  -3.430  -0.594  0.00  0.00    -0.278 N 
ENDROOT
BRANCH   3  11
ATOM     11  C   UNL     1      -5.555  -5.992   3.194  0.00  0.00    +0.047 A 
ATOM     12  C   UNL     1      -5.001  -5.766   4.452  0.00  0.00    -0.037 A 
ATOM     13  C   UNL     1      -3.939  -6.535   4.884  0.00  0.00    +0.007 A 
ATOM     14  C   UNL     1      -3.423  -7.530   4.073  0.00  0.00    -0.047 A 
ATOM     15  C   UNL     1      -3.965  -7.762   2.824  0.00  0.00    +0.049 A 
ATOM     16  C   UNL     1      -5.035  -7.002   2.379  0.00  0.00    +0.127 A 
ATOM     17  C   UNL     1      -2.263  -8.364   4.554  0.00  0.00    +0.044 C 
ATOM     18  C   UNL     1      -5.559  -4.684   5.339  0.00  0.00    +0.044 C 
BRANCH  16  19
ATOM     19  O   UNL     1      -5.574  -7.234   1.154  0.00  0.00    -0.506 OA
ATOM     20  H   UNL     1      -5.125  -6.771   0.433  0.00  0.00    +0.292 HD
ENDBRANCH  16  19
ENDBRANCH   3  11
BRANCH   1  24
ATOM     21  C   UNL     1      -2.485  -2.189   0.629  0.00  0.00    +0.162 A 
ATOM     22  C   UNL     1      -3.685  -1.544   0.884  0.00  0.00    +0.050 A 
ATOM     23  C   UNL     1      -4.880  -2.220   0.723  0.00  0.00    +0.009 A 
ATOM     24  C   UNL     1      -4.882  -3.539   0.309  0.00  0.00    -0.019 A 
ATOM     25  C   UNL     1      -3.689  -4.188   0.053  0.00  0.00    +0.055 A 
ATOM     26  C   UNL     1      -2.487  -3.515   0.206  0.00  0.00    +0.162 A 
BRANCH  21  27
ATOM     27  O   UNL     1      -1.308  -1.526   0.787  0.00  0.00    -0.488 OA
BRANCH  27  28
ATOM     28  C   UNL     1      -1.383  -0.167   1.224  0.00  0.00    +0.229 C 
BRANCH  28  30
ATOM     29  C   UNL     1      -0.050   1.863   1.810  0.00  0.00    +0.007 C 
ATOM     30  C   UNL     1       0.030   0.409   1.342  0.00  0.00    +0.038 C 
ENDBRANCH  28  30
ENDBRANCH  27  28
ENDBRANCH  21  27
BRANCH  26  31
ATOM     31  O   UNL     1      -1.312  -4.150  -0.050  0.00  0.00    -0.489 OA
BRANCH  31  32
ATOM     32  C   UNL     1      -1.391  -5.510  -0.480  0.00  0.00    +0.226 C 
ATOM     33  C   UNL     1       0.020  -6.052  -0.718  0.00  0.00    +0.048 C 
ENDBRANCH  31  32
ENDBRANCH  26  31
ENDBRANCH   1  24
BRANCH  10  34
ATOM     34  C   UNL     1      -6.971  -2.910  -1.953  0.00  0.00    +0.183 C 
BRANCH  34  35
ATOM     35  C   UNL     1      -7.532  -3.896  -2.944  0.00  0.00    +0.122 A 
ATOM     36  C   UNL     1      -8.797  -3.917  -3.403  0.00  0.00    +0.046 A 
ATOM     37  C   UNL     1      -8.886  -5.000  -4.308  0.00  0.00    +0.041 A 
ATOM     38  C   UNL     1      -7.672  -5.576  -4.347  0.00  0.00    +0.195 A 
ATOM     39  O   UNL     1      -6.854  -4.900  -3.524  0.00  0.00    -0.466 OA
ENDBRANCH  34  35
ENDBRANCH  10  34
TORSDOF 10
