REMARK  Name = ZINC57426542
REMARK  6 active torsions:
REMARK  status: ('A' for Active; 'I' for Inactive)
REMARK    1  A    between atoms: C_1  and  C_2
REMARK    2  A    between atoms: C_7  and  N_8
REMARK    3  A    between atoms: C_9  and  C_11
REMARK    4  A    between atoms: C_11  and  N_12
REMARK    5  A    between atoms: N_20  and  C_23
REMARK    6  A    between atoms: C_23  and  C_24
REMARK                            x       y       z     vdW  Elec       q    Type
REMARK                         _______ _______ _______ _____ _____    ______ ____
ROOT
ATOM      1  N   UNL     1      -0.888  -0.767   5.912  0.00  0.00    -0.284 N 
ATOM      2  C   UNL     1      -2.256  -0.941   6.169  0.00  0.00    +0.066 A 
ATOM      3  C   UNL     1      -3.363  -0.375   5.544  0.00  0.00    +0.034 A 
ATOM      4  C   UNL     1      -4.606  -0.695   5.966  0.00  0.00    +0.048 A 
ATOM      5  S   UNL     1      -4.354  -1.776   7.228  0.00  0.00    -0.090 S 
ATOM      6  C   UNL     1      -2.583  -1.816   7.209  0.00  0.00    +0.100 A 
ATOM      7  C   UNL     1      -1.594  -2.474   7.946  0.00  0.00    +0.271 A 
ATOM      8  O   UNL     1      -1.897  -3.233   8.848  0.00  0.00    -0.266 OA
ATOM      9  N   UNL     1      -0.295  -2.255   7.640  0.00  0.00    -0.256 N 
ATOM     10  C   UNL     1       0.032  -1.421   6.638  0.00  0.00    +0.333 A 
ATOM     11  O   UNL     1       1.209  -1.248   6.382  0.00  0.00    -0.246 OA
ENDROOT
BRANCH   1  12
ATOM     12  C   UNL     1      -0.460   0.132   4.838  0.00  0.00    +0.222 C 
BRANCH  12  14
ATOM     13  N   UNL     1       0.026  -0.014   2.417  0.00  0.00    -0.283 N 
ATOM     14  C   UNL     1      -0.354  -0.640   3.549  0.00  0.00    +0.237 C 
ATOM     15  O   UNL     1      -0.612  -1.825   3.529  0.00  0.00    -0.274 OA
ATOM     16  H   UNL     1       0.301   0.916   2.446  0.00  0.00    +0.155 HD
BRANCH  13  23
ATOM     17  C   UNL     1       2.406  -1.358   1.630  0.00  0.00    +0.046 C 
ATOM     18  C   UNL     1       1.163  -1.375   0.778  0.00  0.00    -0.028 A 
ATOM     19  C   UNL     1       1.156  -2.061  -0.421  0.00  0.00    +0.005 A 
ATOM     20  C   UNL     1       0.016  -2.077  -1.204  0.00  0.00    +0.002 A 
ATOM     21  C   UNL     1      -1.120  -1.407  -0.790  0.00  0.00    +0.022 A 
ATOM     22  C   UNL     1      -1.119  -0.718   0.408  0.00  0.00    +0.062 A 
ATOM     23  C   UNL     1       0.023  -0.705   1.200  0.00  0.00    +0.055 A 
ATOM     24 CL   UNL     1      -2.546   0.124   0.928  0.00  0.00    -0.082 Cl
ENDBRANCH  13  23
ENDBRANCH  12  14
ENDBRANCH   1  12
BRANCH   9  25
ATOM     25  C   UNL     1       0.759  -2.934   8.399  0.00  0.00    +0.165 C 
BRANCH  25  26
ATOM     26  C   UNL     1       1.086  -4.248   7.739  0.00  0.00    -0.027 A 
ATOM     27  C   UNL     1       0.400  -5.393   8.102  0.00  0.00    +0.008 A 
ATOM     28  C   UNL     1       0.699  -6.599   7.497  0.00  0.00    +0.038 A 
ATOM     29  C   UNL     1       1.685  -6.661   6.528  0.00  0.00    +0.123 A 
ATOM     30  C   UNL     1       2.371  -5.515   6.165  0.00  0.00    +0.038 A 
ATOM     31  C   UNL     1       2.067  -4.309   6.767  0.00  0.00    +0.008 A 
ATOM     32  F   UNL     1       1.978  -7.840   5.936  0.00  0.00    -0.205 F 
ENDBRANCH  25  26
ENDBRANCH   9  25
TORSDOF 5
