REMARK  Name = ZINC58949091
REMARK  9 active torsions:
REMARK  status: ('A' for Active; 'I' for Inactive)
REMARK    1  A    between atoms: C_1  and  C_2
REMARK    2  A    between atoms: C_3  and  C_27
REMARK    3  A    between atoms: C_4  and  C_13
REMARK    4  A    between atoms: C_6  and  C_10
REMARK    5  A    between atoms: C_7  and  N_9
REMARK    6  A    between atoms: C_17  and  O_19
REMARK    7  A    between atoms: O_19  and  C_20
REMARK    8  A    between atoms: C_20  and  C_21
REMARK    9  A    between atoms: C_27  and  C_29
REMARK                            x       y       z     vdW  Elec       q    Type
REMARK                         _______ _______ _______ _____ _____    ______ ____
ROOT
ATOM      1  C   UNL     1      -0.022   1.503  -0.011  0.00  0.00    +0.086 C 
ATOM      2  C   UNL     1       0.000  -0.004  -0.008  0.00  0.00    +0.112 C 
ATOM      3  C   UNL     1      -1.164  -0.674   0.029  0.00  0.00    +0.044 C 
ATOM      4  C   UNL     1      -1.197  -2.178   0.034  0.00  0.00    +0.096 C 
ATOM      5  C   UNL     1       0.162  -2.719   0.388  0.00  0.00    +0.083 C 
ATOM      6  C   UNL     1       1.262  -1.927   0.331  0.00  0.00    +0.193 C 
ATOM      7  O   UNL     1       1.182  -0.638  -0.048  0.00  0.00    -0.446 OA
ENDROOT
BRANCH   4   8
ATOM      8  C   UNL     1      -1.590  -2.674  -1.334  0.00  0.00    -0.032 A 
ATOM      9  C   UNL     1      -0.809  -2.363  -2.432  0.00  0.00    +0.005 A 
ATOM     10  C   UNL     1      -1.167  -2.817  -3.688  0.00  0.00    +0.004 A 
ATOM     11  C   UNL     1      -2.307  -3.582  -3.849  0.00  0.00    +0.045 A 
ATOM     12  C   UNL     1      -3.091  -3.895  -2.748  0.00  0.00    +0.121 A 
ATOM     13  C   UNL     1      -2.726  -3.444  -1.488  0.00  0.00    +0.050 A 
BRANCH  12  14
ATOM     14  O   UNL     1      -4.212  -4.648  -2.904  0.00  0.00    -0.487 OA
BRANCH  14  15
ATOM     15  C   UNL     1      -4.523  -5.083  -4.229  0.00  0.00    +0.264 C 
BRANCH  15  16
ATOM     16  C   UNL     1      -5.790  -5.898  -4.206  0.00  0.00    -0.010 A 
ATOM     17  C   UNL     1      -5.728  -7.266  -4.014  0.00  0.00    +0.007 A 
ATOM     18  C   UNL     1      -6.890  -8.014  -3.993  0.00  0.00    +0.000 A 
ATOM     19  C   UNL     1      -8.114  -7.395  -4.162  0.00  0.00    +0.000 A 
ATOM     20  C   UNL     1      -8.176  -6.027  -4.353  0.00  0.00    +0.000 A 
ATOM     21  C   UNL     1      -7.014  -5.278  -4.370  0.00  0.00    +0.007 A 
ENDBRANCH  15  16
ENDBRANCH  14  15
ENDBRANCH  12  14
ENDBRANCH   4   8
BRANCH   5  22
ATOM     22  C   UNL     1       0.293  -4.062   0.784  0.00  0.00    +0.243 C 
ATOM     23  O   UNL     1      -0.002  -4.394   1.919  0.00  0.00    -0.271 OA
ATOM     24  N   UNL     1       0.744  -4.982  -0.091  0.00  0.00    -0.325 N 
ATOM     25  H   UNL     1       0.978  -4.718  -0.994  0.00  0.00    +0.145 HD
ATOM     26  H   UNL     1       0.834  -5.908   0.182  0.00  0.00    +0.145 HD
ENDBRANCH   5  22
BRANCH   6  27
ATOM     27  N   UNL     1       2.483  -2.454   0.661  0.00  0.00    -0.329 N 
ATOM     28  H   UNL     1       2.566  -3.400   0.858  0.00  0.00    +0.145 HD
ATOM     29  H   UNL     1       3.265  -1.880   0.697  0.00  0.00    +0.145 HD
ENDBRANCH   6  27
BRANCH   3  30
ATOM     30  C   UNL     1      -2.374   0.044   0.065  0.00  0.00    +0.160 C 
ATOM     31  O   UNL     1      -2.360   1.258   0.062  0.00  0.00    -0.293 OA
ATOM     32  C   UNL     1      -3.687  -0.694   0.107  0.00  0.00    +0.091 C 
ENDBRANCH   3  30
TORSDOF 7
