REMARK  Name = ZINC58894498
REMARK  13 active torsions:
REMARK  status: ('A' for Active; 'I' for Inactive)
REMARK    1  A    between atoms: C_1  and  C_2
REMARK    2  A    between atoms: C_2  and  O_3
REMARK    3  A    between atoms: O_3  and  C_4
REMARK    4  A    between atoms: C_7  and  C_10
REMARK    5  A    between atoms: C_10  and  C_12
REMARK    6  A    between atoms: C_10  and  O_34
REMARK    7  A    between atoms: C_12  and  C_13
REMARK    8  A    between atoms: C_13  and  C_14
REMARK    9  A    between atoms: N_16  and  N_17
REMARK   10  A    between atoms: C_18  and  C_19
REMARK   11  A    between atoms: C_21  and  C_33
REMARK   12  A    between atoms: N_22  and  C_25
REMARK   13  A    between atoms: C_23  and  C_24
REMARK                            x       y       z     vdW  Elec       q    Type
REMARK                         _______ _______ _______ _____ _____    ______ ____
ROOT
ATOM      1  C   UNL     1       3.855  -8.509  -0.837  0.00  0.00    +0.232 C 
ATOM      2  O   UNL     1       4.668  -7.700  -0.439  0.00  0.00    -0.274 OA
ATOM      3  N   UNL     1       4.141  -9.826  -0.799  0.00  0.00    -0.207 N 
ATOM      4  H   UNL     1       3.492 -10.472  -1.117  0.00  0.00    +0.177 HD
ENDROOT
BRANCH   3   5
ATOM      5  N   UNL     1       5.377 -10.261  -0.301  0.00  0.00    -0.188 NA
ATOM      6  C   UNL     1       5.652 -11.528  -0.265  0.00  0.00    +0.140 C 
BRANCH   6   7
ATOM      7  C   UNL     1       6.952 -11.986   0.258  0.00  0.00    +0.016 A 
ATOM      8  C   UNL     1       7.420 -13.371   0.362  0.00  0.00    +0.032 A 
ATOM      9  C   UNL     1       8.655 -13.321   0.893  0.00  0.00    +0.022 A 
ATOM     10  N   UNL     1       8.983 -12.016   1.125  0.00  0.00    -0.315 N 
ATOM     11  C   UNL     1       7.963 -11.203   0.738  0.00  0.00    +0.030 A 
ATOM     12  C   UNL     1       7.949  -9.699   0.828  0.00  0.00    +0.064 C 
ATOM     13  C   UNL     1       9.533 -14.510   1.186  0.00  0.00    +0.064 C 
BRANCH  10  14
ATOM     14  C   UNL     1      10.197 -11.577   1.674  0.00  0.00    +0.082 A 
ATOM     15  C   UNL     1      11.268 -11.277   0.844  0.00  0.00    +0.030 A 
ATOM     16  C   UNL     1      12.462 -10.845   1.388  0.00  0.00    +0.017 A 
ATOM     17  C   UNL     1      12.592 -10.711   2.759  0.00  0.00    +0.021 A 
ATOM     18  C   UNL     1      11.527 -11.008   3.590  0.00  0.00    +0.055 A 
ATOM     19  C   UNL     1      10.327 -11.436   3.051  0.00  0.00    +0.148 A 
ATOM     20  F   UNL     1       9.285 -11.721   3.862  0.00  0.00    -0.203 F 
ATOM     21 BR   UNL     1      14.229 -10.119   3.498  0.00  0.00    -0.050 Br
ENDBRANCH  10  14
ENDBRANCH   6   7
ENDBRANCH   3   5
BRANCH   1  22
ATOM     22  C   UNL     1       2.527  -8.041  -1.372  0.00  0.00    +0.100 C 
BRANCH  22  23
ATOM     23  C   UNL     1       2.458  -6.515  -1.304  0.00  0.00    +0.045 C 
BRANCH  23  24
ATOM     24  C   UNL     1       1.109  -6.040  -1.847  0.00  0.00    +0.145 C 
BRANCH  24  28
ATOM     25  C   UNL     1       0.777  -1.810  -1.336  0.00  0.00    +0.121 A 
ATOM     26  C   UNL     1       0.243  -2.669  -0.386  0.00  0.00    +0.046 A 
ATOM     27  C   UNL     1       0.351  -4.036  -0.554  0.00  0.00    +0.010 A 
ATOM     28  C   UNL     1       0.992  -4.548  -1.667  0.00  0.00    -0.019 A 
ATOM     29  C   UNL     1       1.525  -3.694  -2.615  0.00  0.00    +0.010 A 
ATOM     30  C   UNL     1       1.414  -2.327  -2.455  0.00  0.00    +0.046 A 
BRANCH  25  31
ATOM     31  O   UNL     1       0.671  -0.465  -1.174  0.00  0.00    -0.492 OA
BRANCH  31  33
ATOM     32  C   UNL     1      -0.019   1.526   0.010  0.00  0.00    +0.048 C 
ATOM     33  C   UNL     1       0.002  -0.004   0.002  0.00  0.00    +0.225 C 
ENDBRANCH  31  33
ENDBRANCH  25  31
ENDBRANCH  24  28
BRANCH  24  34
ATOM     34  O   UNL     1       1.016  -6.361  -3.237  0.00  0.00    -0.387 OA
ATOM     35  H   UNL     1       1.702  -5.952  -3.781  0.00  0.00    +0.210 HD
ENDBRANCH  24  34
ENDBRANCH  23  24
ENDBRANCH  22  23
ENDBRANCH   1  22
TORSDOF 10
