REMARK  Name = ZINC09462771
REMARK  9 active torsions:
REMARK  status: ('A' for Active; 'I' for Inactive)
REMARK    1  A    between atoms: C_1  and  C_2
REMARK    2  A    between atoms: C_5  and  S_26
REMARK    3  A    between atoms: C_7  and  N_8
REMARK    4  A    between atoms: C_9  and  C_11
REMARK    5  A    between atoms: C_11  and  N_56
REMARK    6  A    between atoms: C_19  and  C_21
REMARK    7  A    between atoms: S_26  and  N_29
REMARK    8  A    between atoms: N_29  and  C_30
REMARK    9  A    between atoms: N_29  and  C_31
REMARK                            x       y       z     vdW  Elec       q    Type
REMARK                         _______ _______ _______ _____ _____    ______ ____
ROOT
ATOM      1  N   UNL     1      -3.491   0.539   3.695  0.00  0.00    -0.287 N 
ATOM      2  C   UNL     1      -3.767  -0.635   3.094  0.00  0.00    +0.201 C 
ATOM      3  O   UNL     1      -3.144  -0.974   2.109  0.00  0.00    -0.278 OA
ATOM      4  H   UNL     1      -3.943   0.779   4.519  0.00  0.00    +0.155 HD
ENDROOT
BRANCH   1  11
ATOM      5  C   UNL     1      -3.938   3.338   3.943  0.00  0.00    +0.045 C 
ATOM      6  C   UNL     1      -2.732   2.784   3.230  0.00  0.00    -0.029 A 
ATOM      7  C   UNL     1      -1.804   3.641   2.672  0.00  0.00    +0.007 A 
ATOM      8  C   UNL     1      -0.695   3.134   2.022  0.00  0.00    +0.029 A 
ATOM      9  C   UNL     1      -0.516   1.766   1.918  0.00  0.00    +0.107 A 
ATOM     10  C   UNL     1      -1.440   0.903   2.473  0.00  0.00    +0.052 A 
ATOM     11  C   UNL     1      -2.553   1.410   3.131  0.00  0.00    +0.038 A 
BRANCH   9  12
ATOM     12  S   UNL     1       0.896   1.124   1.082  0.00  0.00    +0.060 S 
ATOM     13  O   UNL     1       1.117  -0.180   1.601  0.00  0.00    -0.153 OA
ATOM     14  O   UNL     1       1.890   2.139   1.126  0.00  0.00    -0.153 OA
BRANCH  12  15
ATOM     15  N   UNL     1       0.481   0.937  -0.510  0.00  0.00    -0.183 NA
ATOM     16  C   UNL     1       0.691   2.036  -1.456  0.00  0.00    +0.131 C 
ATOM     17  C   UNL     1      -0.097  -0.327  -0.972  0.00  0.00    +0.131 C 
ENDBRANCH  12  15
ENDBRANCH   9  12
ENDBRANCH   1  11
BRANCH   2  18
ATOM     18  C   UNL     1      -4.849  -1.528   3.644  0.00  0.00    +0.020 C 
BRANCH  18  27
ATOM     19  C   UNL     1      -3.738  -3.556   2.924  0.00  0.00    -0.072 C 
ATOM     20  C   UNL     1      -3.713  -4.562   1.761  0.00  0.00    +0.024 C 
ATOM     21  C   UNL     1      -5.067  -5.188   1.673  0.00  0.00    -0.010 A 
ATOM     22  C   UNL     1      -6.206  -4.753   2.281  0.00  0.00    -0.046 A 
ATOM     23  C   UNL     1      -7.357  -5.503   2.055  0.00  0.00    +0.010 A 
ATOM     24  C   UNL     1      -7.306  -6.601   1.264  0.00  0.00    +0.045 A 
ATOM     25  S   UNL     1      -5.584  -6.631   0.787  0.00  0.00    -0.101 S 
ATOM     26  C   UNL     1      -6.163  -3.501   3.151  0.00  0.00    +0.002 C 
ATOM     27  N   UNL     1      -4.956  -2.723   2.784  0.00  0.00    +0.393 N 
ATOM     28  H   UNL     1      -5.041  -2.423   1.806  0.00  0.00    -0.080 HD
BRANCH  26  29
ATOM     29  C   UNL     1      -7.383  -2.657   2.884  0.00  0.00    -0.019 A 
ATOM     30  C   UNL     1      -8.522  -2.548   3.611  0.00  0.00    +0.010 A 
ATOM     31  C   UNL     1      -9.521  -1.701   3.169  0.00  0.00    +0.008 A 
ATOM     32  C   UNL     1      -9.333  -1.006   2.021  0.00  0.00    +0.045 A 
ATOM     33  S   UNL     1      -7.701  -1.537   1.530  0.00  0.00    -0.103 S 
ENDBRANCH  26  29
ENDBRANCH  18  27
ENDBRANCH   2  18
TORSDOF 6
