REMARK  Name = ZINC09970429
REMARK  13 active torsions:
REMARK  status: ('A' for Active; 'I' for Inactive)
REMARK    1  A    between atoms: C_1  and  C_2
REMARK    2  A    between atoms: C_2  and  C_25
REMARK    3  A    between atoms: C_3  and  C_23
REMARK    4  A    between atoms: C_3  and  O_24
REMARK    5  A    between atoms: C_4  and  C_21
REMARK    6  A    between atoms: C_4  and  O_22
REMARK    7  A    between atoms: C_5  and  C_19
REMARK    8  A    between atoms: C_5  and  O_20
REMARK    9  A    between atoms: C_6  and  C_8
REMARK   10  A    between atoms: C_6  and  O_9
REMARK   11  A    between atoms: O_9  and  C_10
REMARK   12  A    between atoms: C_15  and  N_16
REMARK   13  A    between atoms: C_25  and  O_26
REMARK                            x       y       z     vdW  Elec       q    Type
REMARK                         _______ _______ _______ _____ _____    ______ ____
ROOT
ATOM      1  C   UNL     1      -0.238   7.448   1.171  0.00  0.00    +0.047 C 
ATOM      2  C   UNL     1      -1.174   6.498   1.929  0.00  0.00    +0.125 C 
ATOM      3  C   UNL     1      -2.446   7.239   2.319  0.00  0.00    +0.125 C 
ATOM      4  C   UNL     1      -3.492   7.267   1.218  0.00  0.00    +0.129 C 
ATOM      5  C   UNL     1      -3.675   5.952   0.481  0.00  0.00    +0.159 C 
ATOM      6  C   UNL     1      -2.365   5.244   0.164  0.00  0.00    +0.242 C 
ATOM      7  O   UNL     1      -1.416   5.323   1.196  0.00  0.00    -0.326 OA
ATOM      8  C   UNL     1      -1.800   5.772  -1.161  0.00  0.00    +0.092 C 
ATOM      9  C   UNL     1      -4.594   5.008   1.265  0.00  0.00    +0.051 C 
ATOM     10  C   UNL     1      -4.845   7.662   1.847  0.00  0.00    +0.047 C 
ATOM     11  C   UNL     1      -3.021   6.633   3.605  0.00  0.00    +0.047 C 
ENDROOT
BRANCH   5  12
ATOM     12  O   UNL     1      -4.332   6.237  -0.775  0.00  0.00    -0.379 OA
ATOM     13  H   UNL     1      -4.534   5.451  -1.300  0.00  0.00    +0.211 HD
ENDBRANCH   5  12
BRANCH   4  14
ATOM     14  O   UNL     1      -3.152   8.296   0.271  0.00  0.00    -0.383 OA
ATOM     15  H   UNL     1      -3.822   8.438  -0.411  0.00  0.00    +0.210 HD
ENDBRANCH   4  14
BRANCH   3  16
ATOM     16  O   UNL     1      -2.082   8.605   2.620  0.00  0.00    -0.383 OA
ATOM     17  H   UNL     1      -1.415   8.690   3.315  0.00  0.00    +0.210 HD
ENDBRANCH   3  16
BRANCH   6  18
ATOM     18  O   UNL     1      -2.674   3.845  -0.045  0.00  0.00    -0.456 OA
BRANCH  18  19
ATOM     19  C   UNL     1      -1.628   3.012  -0.292  0.00  0.00    +0.154 A 
ATOM     20  C   UNL     1      -0.328   3.492  -0.226  0.00  0.00    +0.048 A 
ATOM     21  C   UNL     1       0.734   2.643  -0.476  0.00  0.00    +0.004 A 
ATOM     22  C   UNL     1       0.501   1.318  -0.794  0.00  0.00    +0.002 A 
ATOM     23  C   UNL     1      -0.794   0.838  -0.861  0.00  0.00    +0.036 A 
ATOM     24  C   UNL     1      -1.859   1.684  -0.616  0.00  0.00    +0.168 A 
BRANCH  24  25
ATOM     25  N   UNL     1      -3.245   1.171  -0.695  0.00  0.00    +0.060 N 
ATOM     26  O   UNL     1      -3.447   0.003  -0.975  0.00  0.00    -0.126 OA
ATOM     27  O   UNL     1      -4.184   1.917  -0.479  0.00  0.00    -0.126 OA
ENDBRANCH  24  25
ENDBRANCH  18  19
ENDBRANCH   6  18
BRANCH   2  28
ATOM     28  C   UNL     1      -0.449   6.102   3.237  0.00  0.00    +0.193 C 
BRANCH  28  29
ATOM     29  O   UNL     1       0.811   5.505   2.922  0.00  0.00    -0.392 OA
ATOM     30  H   UNL     1       1.321   5.231   3.696  0.00  0.00    +0.210 HD
ENDBRANCH  28  29
ENDBRANCH   2  28
TORSDOF 8
