REMARK  Name = ZINC08915316
REMARK  5 active torsions:
REMARK  status: ('A' for Active; 'I' for Inactive)
REMARK    1  A    between atoms: C_6  and  C_7
REMARK    2  A    between atoms: C_7  and  C_9
REMARK    3  A    between atoms: C_11  and  C_23
REMARK    4  A    between atoms: C_14  and  O_22
REMARK    5  A    between atoms: C_16  and  C_17
REMARK                            x       y       z     vdW  Elec       q    Type
REMARK                         _______ _______ _______ _____ _____    ______ ____
ROOT
ATOM      1  C   UNL     1      -1.100  -2.344  -0.023  0.00  0.00    +0.149 C 
ATOM      2  C   UNL     1      -2.391  -2.998   0.493  0.00  0.00    +0.120 C 
ATOM      3  N   UNL     1      -2.254  -4.451   0.302  0.00  0.00    -0.293 N 
ATOM      4  C   UNL     1      -1.709  -4.913  -0.871  0.00  0.00    +0.256 C 
ATOM      5  N   UNL     1      -1.100  -4.138  -1.703  0.00  0.00    -0.306 N 
ATOM      6  C   UNL     1      -0.933  -2.703  -1.501  0.00  0.00    +0.284 C 
ATOM      7  O   UNL     1      -1.913  -2.003  -2.270  0.00  0.00    -0.194 OA
ATOM      8  H   UNL     1      -2.542  -5.069   0.991  0.00  0.00    +0.151 HD
ATOM      9  H   UNL     1      -0.731  -4.532  -2.509  0.00  0.00    +0.167 HD
ENDROOT
BRANCH   2  10
ATOM     10  C   UNL     1      -3.573  -2.486  -0.289  0.00  0.00    -0.025 A 
ATOM     11  C   UNL     1      -3.857  -3.013  -1.536  0.00  0.00    +0.007 A 
ATOM     12  C   UNL     1      -4.941  -2.544  -2.254  0.00  0.00    +0.022 A 
ATOM     13  C   UNL     1      -5.742  -1.547  -1.726  0.00  0.00    +0.059 A 
ATOM     14  C   UNL     1      -5.457  -1.020  -0.478  0.00  0.00    +0.060 A 
ATOM     15  C   UNL     1      -4.375  -1.495   0.242  0.00  0.00    +0.027 A 
ATOM     16 CL   UNL     1      -6.461   0.231   0.186  0.00  0.00    -0.082 Cl
ATOM     17 CL   UNL     1      -7.102  -0.958  -2.628  0.00  0.00    -0.082 Cl
ENDBRANCH   2  10
BRANCH   6  18
ATOM     18  C   UNL     1       0.464  -2.286  -1.967  0.00  0.00    +0.441 C 
ATOM     19  F   UNL     1       1.428  -2.981  -1.228  0.00  0.00    -0.166 F 
ATOM     20  F   UNL     1       0.612  -2.586  -3.325  0.00  0.00    -0.166 F 
ATOM     21  F   UNL     1       0.629  -0.911  -1.772  0.00  0.00    -0.166 F 
ENDBRANCH   6  18
BRANCH   1  22
ATOM     22  C   UNL     1      -1.194  -0.848   0.129  0.00  0.00    +0.173 C 
ATOM     23  O   UNL     1      -1.631  -0.173  -0.779  0.00  0.00    -0.292 OA
BRANCH  22  29
ATOM     24  C   UNL     1      -0.735   1.189   1.482  0.00  0.00    +0.013 A 
ATOM     25  C   UNL     1      -0.324   1.783   2.655  0.00  0.00    +0.020 A 
ATOM     26  C   UNL     1       0.068   1.002   3.730  0.00  0.00    +0.041 A 
ATOM     27  C   UNL     1       0.050  -0.380   3.635  0.00  0.00    +0.020 A 
ATOM     28  C   UNL     1      -0.358  -0.988   2.468  0.00  0.00    +0.013 A 
ATOM     29  C   UNL     1      -0.756  -0.206   1.378  0.00  0.00    +0.018 A 
ATOM     30 CL   UNL     1       0.585   1.759   5.205  0.00  0.00    -0.084 Cl
ENDBRANCH  22  29
ENDBRANCH   1  22
BRANCH   4  31
ATOM     31  O   UNL     1      -1.814  -6.228  -1.164  0.00  0.00    -0.483 OA
ATOM     32  H   UNL     1      -1.407  -6.477  -2.005  0.00  0.00    +0.295 HD
ENDBRANCH   4  31
TORSDOF 5
