REMARK  Name = ZINC43604586
REMARK  10 active torsions:
REMARK  status: ('A' for Active; 'I' for Inactive)
REMARK    1  A    between atoms: C_1  and  C_2
REMARK    2  A    between atoms: C_19  and  C_21
REMARK    3  A    between atoms: C_21  and  N_22
REMARK    4  A    between atoms: N_22  and  C_23
REMARK    5  A    between atoms: N_22  and  C_24
REMARK    6  A    between atoms: C_24  and  C_25
REMARK    7  A    between atoms: C_25  and  C_27
REMARK    8  A    between atoms: C_25  and  O_39
REMARK    9  A    between atoms: C_27  and  O_28
REMARK   10  A    between atoms: O_28  and  C_29
REMARK                            x       y       z     vdW  Elec       q    Type
REMARK                         _______ _______ _______ _____ _____    ______ ____
ROOT
ATOM      1  N   UNL     1      -1.334  -6.380   0.988  0.00  0.00    +0.380 N 
ATOM      2  C   UNL     1      -0.040  -6.843   1.505  0.00  0.00    -0.096 C 
ATOM      3  H   UNL     1      -1.336  -6.442  -0.019  0.00  0.00    -0.082 HD
ENDROOT
BRANCH   1   4
ATOM      4  C   UNL     1      -1.552  -4.984   1.392  0.00  0.00    -0.064 C 
BRANCH   4  20
ATOM      5  C   UNL     1      -0.019   1.526   0.010  0.00  0.00    +0.012 C 
ATOM      6  C   UNL     1       0.002  -0.004   0.002  0.00  0.00    -0.022 C 
ATOM      7  C   UNL     1       0.725  -0.492  -1.251  0.00  0.00    +0.007 C 
ATOM      8  C   UNL     1       2.117   0.141  -1.318  0.00  0.00    +0.005 C 
ATOM      9  C   UNL     1       2.947  -0.312  -0.113  0.00  0.00    +0.030 C 
ATOM     10  C   UNL     1       2.176  -0.011   1.153  0.00  0.00    -0.073 C 
ATOM     11  C   UNL     1       2.726   0.656   2.138  0.00  0.00    +0.008 C 
ATOM     12  C   UNL     1       0.745  -0.508   1.246  0.00  0.00    +0.021 C 
ATOM     13  C   UNL     1       0.779  -2.035   1.208  0.00  0.00    +0.016 C 
ATOM     14  C   UNL     1      -0.632  -2.622   1.232  0.00  0.00    +0.042 C 
ATOM     15  C   UNL     1      -1.491  -2.015   0.104  0.00  0.00    +0.181 C 
ATOM     16  C   UNL     1      -1.428  -0.527   0.023  0.00  0.00    +0.052 C 
ATOM     17  O   UNL     1      -0.990  -2.646  -1.080  0.00  0.00    -0.461 OA
ATOM     18  C   UNL     1      -0.785  -3.950  -0.786  0.00  0.00    +0.309 C 
ATOM     19  O   UNL     1      -0.817  -4.861  -1.578  0.00  0.00    -0.251 OA
ATOM     20  C   UNL     1      -0.505  -4.090   0.723  0.00  0.00    +0.088 C 
ENDBRANCH   4  20
ENDBRANCH   1   4
BRANCH   1  21
ATOM     21  C   UNL     1      -2.409  -7.220   1.533  0.00  0.00    -0.044 C 
BRANCH  21  22
ATOM     22  C   UNL     1      -2.253  -8.650   1.011  0.00  0.00    +0.135 C 
BRANCH  22  23
ATOM     23  O   UNL     1      -2.328  -8.646  -0.416  0.00  0.00    -0.390 OA
ATOM     24  H   UNL     1      -3.163  -8.304  -0.765  0.00  0.00    +0.210 HD
ENDBRANCH  22  23
BRANCH  22  25
ATOM     25  C   UNL     1      -3.372  -9.525   1.579  0.00  0.00    +0.258 C 
BRANCH  25  26
ATOM     26  O   UNL     1      -3.160 -10.883   1.185  0.00  0.00    -0.489 OA
BRANCH  26  27
ATOM     27  C   UNL     1      -4.071 -11.796   1.610  0.00  0.00    +0.128 A 
ATOM     28  C   UNL     1      -5.135 -11.404   2.373  0.00  0.00    +0.046 A 
ATOM     29  C   UNL     1      -6.077 -12.328   2.815  0.00  0.00    +0.004 A 
ATOM     30  C   UNL     1      -5.967 -13.649   2.502  0.00  0.00    +0.009 A 
ATOM     31  C   UNL     1      -4.888 -14.092   1.719  0.00  0.00    -0.014 A 
ATOM     32  C   UNL     1      -3.929 -13.155   1.262  0.00  0.00    +0.024 A 
ATOM     33  C   UNL     1      -2.852 -13.597   0.476  0.00  0.00    +0.012 A 
ATOM     34  C   UNL     1      -2.747 -14.917   0.159  0.00  0.00    +0.001 A 
ATOM     35  C   UNL     1      -3.693 -15.839   0.604  0.00  0.00    +0.001 A 
ATOM     36  C   UNL     1      -4.743 -15.448   1.377  0.00  0.00    +0.008 A 
ENDBRANCH  26  27
ENDBRANCH  25  26
ENDBRANCH  22  25
ENDBRANCH  21  22
ENDBRANCH   1  21
TORSDOF 8
