REMARK  Name = ZINC21718982
REMARK  7 active torsions:
REMARK  status: ('A' for Active; 'I' for Inactive)
REMARK    1  A    between atoms: C_1  and  C_2
REMARK    2  A    between atoms: C_2  and  C_3
REMARK    3  A    between atoms: C_2  and  C_4
REMARK    4  A    between atoms: C_6  and  C_9
REMARK    5  A    between atoms: C_15  and  C_17
REMARK    6  A    between atoms: C_17  and  N_18
REMARK    7  A    between atoms: C_21  and  C_23
REMARK                            x       y       z     vdW  Elec       q    Type
REMARK                         _______ _______ _______ _____ _____    ______ ____
ROOT
ATOM      1  C   UNL     1       3.369   1.571   7.027  0.00  0.00    +0.128 C 
ATOM      2  C   UNL     1       4.637   1.970   7.811  0.00  0.00    +0.030 C 
ATOM      3  C   UNL     1       5.744   1.113   7.142  0.00  0.00    +0.021 C 
ATOM      4  C   UNL     1       5.280   1.099   5.667  0.00  0.00    +0.108 C 
ATOM      5  N   UNL     1       3.809   1.034   5.731  0.00  0.00    -0.291 N 
ATOM      6  C   UNL     1       3.001   0.556   4.764  0.00  0.00    +0.238 C 
ATOM      7  O   UNL     1       1.799   0.545   4.928  0.00  0.00    -0.274 OA
ENDROOT
BRANCH   1  10
ATOM      8  C   UNL     1       1.012   4.363   7.047  0.00  0.00    +0.140 A 
ATOM      9  C   UNL     1       1.506   3.278   7.690  0.00  0.00    +0.073 A 
ATOM     10  C   UNL     1       2.495   2.780   6.811  0.00  0.00    +0.104 A 
ATOM     11  N   UNL     1       2.504   3.574   5.780  0.00  0.00    -0.081 NA
ATOM     12  O   UNL     1       1.684   4.456   5.890  0.00  0.00    -0.359 OA
BRANCH   8  14
ATOM     13  C   UNL     1       0.473   6.706   7.653  0.00  0.00    +0.015 C 
ATOM     14  C   UNL     1      -0.076   5.283   7.535  0.00  0.00    +0.052 C 
ATOM     15  C   UNL     1      -1.241   5.267   6.542  0.00  0.00    +0.015 C 
ENDBRANCH   8  14
ENDBRANCH   1  10
BRANCH   6  16
ATOM     16  C   UNL     1       3.590   0.033   3.479  0.00  0.00    +0.239 C 
BRANCH  16  17
ATOM     17  N   UNL     1       2.513  -0.426   2.599  0.00  0.00    -0.259 N 
ATOM     18  C   UNL     1       1.864   0.319   1.689  0.00  0.00    +0.043 A 
ATOM     19  C   UNL     1       0.940  -0.473   1.086  0.00  0.00    +0.005 A 
ATOM     20  C   UNL     1       1.032  -1.745   1.647  0.00  0.00    +0.169 A 
ATOM     21  N   UNL     1       1.976  -1.721   2.556  0.00  0.00    -0.166 NA
ATOM     22  C   UNL     1       0.002  -0.004   0.002  0.00  0.00    +0.039 C 
ATOM     23  C   UNL     1      -0.019   1.529   0.011  0.00  0.00    +0.005 C 
ATOM     24  C   UNL     1       1.417   2.060  -0.000  0.00  0.00    +0.006 C 
ATOM     25  C   UNL     1       2.080   1.773   1.352  0.00  0.00    +0.055 C 
BRANCH  20  26
ATOM     26  C   UNL     1       0.193  -2.939   1.274  0.00  0.00    +0.436 C 
ATOM     27  F   UNL     1       0.822  -3.648   0.245  0.00  0.00    -0.164 F 
ATOM     28  F   UNL     1       0.043  -3.771   2.389  0.00  0.00    -0.164 F 
ATOM     29  F   UNL     1      -1.066  -2.508   0.842  0.00  0.00    -0.164 F 
ENDBRANCH  20  26
ENDBRANCH  16  17
ENDBRANCH   6  16
TORSDOF 5
