REMARK  Name = ZINC67280231
REMARK  4 active torsions:
REMARK  status: ('A' for Active; 'I' for Inactive)
REMARK    1  A    between atoms: C_4  and  N_13
REMARK    2  A    between atoms: C_5  and  C_7
REMARK    3  A    between atoms: C_7  and  N_8
REMARK    4  A    between atoms: C_20  and  C_23
REMARK                            x       y       z     vdW  Elec       q    Type
REMARK                         _______ _______ _______ _____ _____    ______ ____
ROOT
ATOM      1  N   UNL     1       3.621  -0.651  -0.042  0.00  0.00    -0.269 N 
ATOM      2  C   UNL     1       4.776   0.037  -0.146  0.00  0.00    +0.307 C 
ATOM      3  O   UNL     1       4.762   1.253  -0.135  0.00  0.00    -0.252 OA
ATOM      4  N   UNL     1       5.945  -0.623  -0.263  0.00  0.00    -0.280 N 
ATOM      5  C   UNL     1       5.978  -2.089  -0.389  0.00  0.00    +0.137 C 
ATOM      6  C   UNL     1       6.971  -2.640   0.641  0.00  0.00    +0.179 C 
ATOM      7  O   UNL     1       8.222  -1.962   0.500  0.00  0.00    -0.369 OA
ATOM      8  C   UNL     1       8.158  -0.557   0.756  0.00  0.00    +0.166 C 
ATOM      9  C   UNL     1       7.226   0.101  -0.274  0.00  0.00    +0.145 C 
ATOM     10  H   UNL     1       3.635  -1.621  -0.018  0.00  0.00    +0.156 HD
ENDROOT
BRANCH   8  11
ATOM     11  C   UNL     1       9.537   0.039   0.639  0.00  0.00    -0.015 A 
ATOM     12  C   UNL     1      10.388  -0.381  -0.367  0.00  0.00    +0.009 A 
ATOM     13  C   UNL     1      11.653   0.164  -0.476  0.00  0.00    +0.041 A 
ATOM     14  C   UNL     1      12.070   1.132   0.422  0.00  0.00    +0.158 A 
ATOM     15  C   UNL     1      11.216   1.553   1.430  0.00  0.00    +0.159 A 
ATOM     16  C   UNL     1       9.948   1.009   1.534  0.00  0.00    +0.047 A 
ATOM     17  F   UNL     1      11.621   2.497   2.308  0.00  0.00    -0.202 F 
ATOM     18  F   UNL     1      13.306   1.665   0.316  0.00  0.00    -0.202 F 
ENDBRANCH   8  11
BRANCH   1  22
ATOM     19  C   UNL     1      -0.005   1.388   0.178  0.00  0.00    +0.000 A 
ATOM     20  C   UNL     1       1.171   2.034   0.512  0.00  0.00    +0.002 A 
ATOM     21  C   UNL     1       2.374   1.361   0.441  0.00  0.00    +0.024 A 
ATOM     22  C   UNL     1       2.403   0.034   0.033  0.00  0.00    +0.040 A 
ATOM     23  C   UNL     1       1.220  -0.612  -0.302  0.00  0.00    -0.005 A 
ATOM     24  C   UNL     1       0.020   0.067  -0.228  0.00  0.00    +0.007 A 
BRANCH  23  25
ATOM     25  C   UNL     1       1.247  -2.052  -0.746  0.00  0.00    +0.182 C 
BRANCH  25  26
ATOM     26  N   UNL     1       1.227  -2.926   0.430  0.00  0.00    -0.248 N 
ATOM     27  C   UNL     1       0.352  -3.915   0.684  0.00  0.00    +0.219 A 
ATOM     28  N   UNL     1       0.673  -4.455   1.831  0.00  0.00    -0.223 NA
ATOM     29  C   UNL     1       1.742  -3.842   2.337  0.00  0.00    +0.245 A 
ATOM     30  N   UNL     1       2.121  -2.901   1.513  0.00  0.00    -0.158 NA
ENDBRANCH  25  26
ENDBRANCH  23  25
ENDBRANCH   1  22
TORSDOF 4
