REMARK  Name = ZINC58329857
REMARK  5 active torsions:
REMARK  status: ('A' for Active; 'I' for Inactive)
REMARK    1  A    between atoms: C_4  and  N_21
REMARK    2  A    between atoms: C_5  and  C_7
REMARK    3  A    between atoms: C_7  and  N_8
REMARK    4  A    between atoms: N_8  and  C_9
REMARK    5  A    between atoms: C_9  and  C_14
REMARK                            x       y       z     vdW  Elec       q    Type
REMARK                         _______ _______ _______ _____ _____    ______ ____
ROOT
ATOM      1  N   UNL     1       1.490  -2.680   1.338  0.00  0.00    -0.303 NA
ATOM      2  H   UNL     1       0.738  -2.385   1.943  0.00  0.00    +0.123 HD
ENDROOT
BRANCH   1   3
ATOM      3  C   UNL     1       1.556  -4.145   1.255  0.00  0.00    +0.045 C 
ATOM      4  C   UNL     1       2.770  -4.572   0.404  0.00  0.00    +0.027 C 
ATOM      5  C   UNL     1       3.882  -4.853   1.445  0.00  0.00    +0.002 C 
ATOM      6  C   UNL     1       3.103  -5.515   2.608  0.00  0.00    +0.002 C 
ATOM      7  C   UNL     1       1.768  -4.744   2.656  0.00  0.00    +0.027 C 
BRANCH   3   8
ATOM      8  C   UNL     1       0.285  -4.684   0.650  0.00  0.00    -0.027 A 
ATOM      9  C   UNL     1       0.080  -6.049   0.575  0.00  0.00    +0.007 A 
ATOM     10  C   UNL     1      -1.085  -6.544   0.020  0.00  0.00    +0.020 A 
ATOM     11  C   UNL     1      -2.047  -5.673  -0.460  0.00  0.00    +0.041 A 
ATOM     12  C   UNL     1      -1.841  -4.307  -0.385  0.00  0.00    +0.020 A 
ATOM     13  C   UNL     1      -0.678  -3.813   0.175  0.00  0.00    +0.007 A 
ATOM     14 CL   UNL     1      -3.510  -6.294  -1.157  0.00  0.00    -0.084 Cl
ENDBRANCH   3   8
ENDBRANCH   1   3
BRANCH   1  15
ATOM     15  C   UNL     1       2.774  -2.120   1.784  0.00  0.00    +0.119 C 
BRANCH  15  20
ATOM     16  C   UNL     1       3.222   1.440   0.612  0.00  0.00    +0.000 A 
ATOM     17  C   UNL     1       2.601   2.145   1.626  0.00  0.00    +0.002 A 
ATOM     18  C   UNL     1       2.037   1.469   2.692  0.00  0.00    +0.033 A 
ATOM     19  C   UNL     1       2.092   0.089   2.742  0.00  0.00    +0.131 A 
ATOM     20  C   UNL     1       2.712  -0.616   1.728  0.00  0.00    -0.003 A 
ATOM     21  C   UNL     1       3.278   0.060   0.663  0.00  0.00    +0.007 A 
BRANCH  19  22
ATOM     22  N   UNL     1       1.488  -0.635   3.884  0.00  0.00    +0.057 N 
ATOM     23  O   UNL     1       0.947  -0.018   4.772  0.00  0.00    -0.126 OA
ATOM     24  O   UNL     1       1.537  -1.842   3.928  0.00  0.00    -0.126 OA
ENDBRANCH  19  22
ENDBRANCH  15  20
ENDBRANCH   1  15
TORSDOF 5
