REMARK  Name = ZINC60942688
REMARK  6 active torsions:
REMARK  status: ('A' for Active; 'I' for Inactive)
REMARK    1  A    between atoms: C_1  and  C_2
REMARK    2  A    between atoms: C_2  and  C_3
REMARK    3  A    between atoms: C_2  and  N_10
REMARK    4  A    between atoms: C_14  and  C_16
REMARK    5  A    between atoms: C_16  and  N_17
REMARK    6  A    between atoms: C_26  and  C_27
REMARK                            x       y       z     vdW  Elec       q    Type
REMARK                         _______ _______ _______ _____ _____    ______ ____
ROOT
ATOM      1  N   UNL     1       0.324  -0.484   2.198  0.00  0.00    -0.296 N 
ATOM      2  C   UNL     1       1.646  -0.615   1.973  0.00  0.00    +0.306 C 
ATOM      3  O   UNL     1       2.095  -0.423   0.860  0.00  0.00    -0.252 OA
ATOM      4  N   UNL     1       2.471  -0.957   2.983  0.00  0.00    -0.239 N 
ATOM      5  C   UNL     1       3.793  -1.088   2.758  0.00  0.00    +0.234 C 
ATOM      6  O   UNL     1       4.241  -0.896   1.648  0.00  0.00    -0.274 OA
ATOM      7  H   UNL     1      -0.035  -0.637   3.086  0.00  0.00    +0.151 HD
ATOM      8  H   UNL     1       2.112  -1.110   3.871  0.00  0.00    +0.159 HD
ENDROOT
BRANCH   1  10
ATOM      9  C   UNL     1      -0.596   1.411   0.956  0.00  0.00    +0.028 C 
ATOM     10  C   UNL     1      -0.572  -0.112   1.100  0.00  0.00    +0.075 C 
BRANCH  10  11
ATOM     11  C   UNL     1      -1.985  -0.617   1.401  0.00  0.00    +0.012 C 
ATOM     12  C   UNL     1      -2.009  -2.163   1.433  0.00  0.00    +0.009 C 
ATOM     13  C   UNL     1      -2.994  -2.565   0.294  0.00  0.00    -0.010 C 
ATOM     14  C   UNL     1      -4.397  -2.138   0.822  0.00  0.00    +0.004 C 
ATOM     15  C   UNL     1      -4.373  -0.593   0.790  0.00  0.00    +0.004 C 
ATOM     16  C   UNL     1      -2.958  -0.232   0.245  0.00  0.00    -0.006 C 
ATOM     17  C   UNL     1      -2.716  -1.423  -0.747  0.00  0.00    +0.007 C 
ENDBRANCH  10  11
ENDBRANCH   1  10
BRANCH   5  18
ATOM     18  C   UNL     1       4.715  -1.471   3.887  0.00  0.00    +0.181 C 
BRANCH  18  19
ATOM     19  N   UNL     1       6.095  -1.547   3.388  0.00  0.00    -0.278 NA
ATOM     20  C   UNL     1       6.638  -0.207   3.139  0.00  0.00    +0.121 C 
ATOM     21  C   UNL     1       8.082  -0.293   2.722  0.00  0.00    -0.030 A 
ATOM     22  C   UNL     1       8.655   0.803   2.094  0.00  0.00    +0.005 A 
ATOM     23  C   UNL     1       9.977   0.769   1.699  0.00  0.00    +0.000 A 
ATOM     24  C   UNL     1      10.736  -0.363   1.929  0.00  0.00    +0.000 A 
ATOM     25  C   UNL     1      10.167  -1.456   2.552  0.00  0.00    +0.004 A 
ATOM     26  C   UNL     1       8.838  -1.424   2.948  0.00  0.00    -0.041 A 
ATOM     27  C   UNL     1       8.257  -2.644   3.614  0.00  0.00    +0.063 C 
ATOM     28  C   UNL     1       6.957  -2.278   4.330  0.00  0.00    +0.148 C 
BRANCH  28  29
ATOM     29  C   UNL     1       6.258  -3.534   4.784  0.00  0.00    +0.228 C 
ATOM     30  O   UNL     1       5.559  -4.153   4.010  0.00  0.00    -0.274 OA
ATOM     31  N   UNL     1       6.411  -3.970   6.050  0.00  0.00    -0.328 N 
ATOM     32  H   UNL     1       6.971  -3.475   6.669  0.00  0.00    +0.145 HD
ATOM     33  H   UNL     1       5.962  -4.778   6.343  0.00  0.00    +0.145 HD
ENDBRANCH  28  29
ENDBRANCH  18  19
ENDBRANCH   5  18
TORSDOF 5
