REMARK  Name = ZINC14242736
REMARK  12 active torsions:
REMARK  status: ('A' for Active; 'I' for Inactive)
REMARK    1  A    between atoms: C_1  and  C_2
REMARK    2  A    between atoms: C_2  and  N_3
REMARK    3  A    between atoms: N_3  and  C_4
REMARK    4  A    between atoms: N_3  and  S_6
REMARK    5  A    between atoms: C_4  and  C_5
REMARK    6  A    between atoms: S_6  and  N_9
REMARK    7  A    between atoms: N_12  and  C_15
REMARK    8  A    between atoms: C_15  and  N_16
REMARK    9  A    between atoms: C_20  and  C_23
REMARK   10  A    between atoms: C_23  and  C_24
REMARK   11  A    between atoms: C_23  and  C_25
REMARK   12  A    between atoms: C_23  and  C_26
REMARK                            x       y       z     vdW  Elec       q    Type
REMARK                         _______ _______ _______ _____ _____    ______ ____
ROOT
ATOM      1  N   UNL     1       0.216  -1.627   3.797  0.00  0.00    -0.170 NA
ATOM      2  C   UNL     1      -0.611  -1.785   2.591  0.00  0.00    +0.092 C 
ATOM      3  C   UNL     1       0.160  -1.217   1.395  0.00  0.00    -0.059 C 
ATOM      4  N   UNL     1       0.570   0.163   1.691  0.00  0.00    +0.394 N 
ATOM      5  C   UNL     1       1.494   0.211   2.831  0.00  0.00    -0.059 C 
ATOM      6  C   UNL     1       0.778  -0.298   4.087  0.00  0.00    +0.092 C 
ATOM      7  H   UNL     1      -0.333   0.728   1.967  0.00  0.00    -0.079 HD
ENDROOT
BRANCH   1   8
ATOM      8  S   UNL     1       0.506  -2.910   4.803  0.00  0.00    +0.099 S 
ATOM      9  O   UNL     1       0.916  -2.364   6.050  0.00  0.00    -0.141 OA
ATOM     10  O   UNL     1      -0.610  -3.781   4.683  0.00  0.00    -0.141 OA
BRANCH   8  11
ATOM     11  N   UNL     1       1.812  -3.725   4.192  0.00  0.00    -0.167 NA
BRANCH  11  13
ATOM     12  C   UNL     1       3.715  -4.034   5.698  0.00  0.00    +0.022 C 
ATOM     13  C   UNL     1       3.170  -3.264   4.492  0.00  0.00    +0.107 C 
ENDBRANCH  11  13
BRANCH  11  14
ATOM     14  C   UNL     1       1.609  -4.908   3.352  0.00  0.00    +0.107 C 
ATOM     15  C   UNL     1       1.682  -4.504   1.878  0.00  0.00    +0.022 C 
ENDBRANCH  11  14
ENDBRANCH   8  11
ENDBRANCH   1   8
BRANCH   4  16
ATOM     16  C   UNL     1       1.160   0.801   0.507  0.00  0.00    +0.072 C 
BRANCH  16  17
ATOM     17  N   UNL     1       1.336   2.233   0.762  0.00  0.00    -0.258 N 
ATOM     18  C   UNL     1       0.372   3.178   0.776  0.00  0.00    +0.174 A 
ATOM     19  S   UNL     1      -1.296   2.911   0.495  0.00  0.00    -0.012 S 
ATOM     20  N   UNL     1       0.944   4.362   1.050  0.00  0.00    -0.321 N 
ATOM     21  C   UNL     1       2.233   4.211   1.202  0.00  0.00    +0.135 A 
ATOM     22  N   UNL     1       2.543   2.899   1.034  0.00  0.00    -0.157 NA
ATOM     23  H   UNL     1       0.326   5.269   1.115  0.00  0.00    +0.169 HD
BRANCH  21  24
ATOM     24  C   UNL     1       3.215   5.311   1.514  0.00  0.00    +0.022 C 
ATOM     25  C   UNL     1       4.013   5.654   0.254  0.00  0.00    +0.019 C 
ATOM     26  C   UNL     1       2.457   6.551   1.990  0.00  0.00    +0.019 C 
ATOM     27  C   UNL     1       4.172   4.845   2.612  0.00  0.00    +0.019 C 
ENDBRANCH  21  24
ENDBRANCH  16  17
ENDBRANCH   4  16
TORSDOF 7
