REMARK  Name = ZINC47264230
REMARK  7 active torsions:
REMARK  status: ('A' for Active; 'I' for Inactive)
REMARK    1  A    between atoms: C_1  and  C_2
REMARK    2  A    between atoms: C_2  and  C_3
REMARK    3  A    between atoms: C_8  and  N_9
REMARK    4  A    between atoms: C_10  and  C_12
REMARK    5  A    between atoms: C_12  and  N_13
REMARK    6  A    between atoms: C_16  and  C_19
REMARK    7  A    between atoms: C_24  and  C_27
REMARK                            x       y       z     vdW  Elec       q    Type
REMARK                         _______ _______ _______ _____ _____    ______ ____
ROOT
ATOM      1  N   UNL     1      -2.356  -0.596  -5.975  0.00  0.00    +0.385 N 
ATOM      2  C   UNL     1      -3.509   0.312  -5.946  0.00  0.00    -0.077 C 
ATOM      3  C   UNL     1      -4.494  -0.073  -7.051  0.00  0.00    -0.006 C 
ATOM      4  C   UNL     1      -3.795   0.032  -8.410  0.00  0.00    +0.072 C 
ATOM      5  C   UNL     1      -2.551  -0.863  -8.403  0.00  0.00    -0.006 C 
ATOM      6  C   UNL     1      -1.638  -0.449  -7.247  0.00  0.00    -0.077 C 
ATOM      7  H   UNL     1      -2.677  -1.548  -5.880  0.00  0.00    -0.081 HD
ENDROOT
BRANCH   4   8
ATOM      8  C   UNL     1      -4.735  -0.421  -9.497  0.00  0.00    +0.222 C 
ATOM      9  O   UNL     1      -5.855  -0.791  -9.215  0.00  0.00    -0.275 OA
ATOM     10  N   UNL     1      -4.332  -0.414 -10.783  0.00  0.00    -0.264 N 
ATOM     11  C   UNL     1      -5.199  -0.831 -11.786  0.00  0.00    +0.165 A 
ATOM     12  N   UNL     1      -4.980  -0.897 -13.081  0.00  0.00    -0.230 NA
ATOM     13  C   UNL     1      -5.915  -1.319 -13.911  0.00  0.00    +0.047 A 
ATOM     14  C   UNL     1      -7.104  -1.679 -13.367  0.00  0.00    +0.071 A 
ATOM     15  S   UNL     1      -6.782  -1.382 -11.637  0.00  0.00    -0.060 S 
ATOM     16  C   UNL     1      -5.673  -1.397 -15.396  0.00  0.00    +0.066 C 
ATOM     17  H   UNL     1      -3.436  -0.118 -11.008  0.00  0.00    +0.157 HD
ENDBRANCH   4   8
BRANCH   1  18
ATOM     18  C   UNL     1      -1.451  -0.272  -4.864  0.00  0.00    +0.019 C 
BRANCH  18  20
ATOM     19  N   UNL     1      -1.505  -0.315  -2.391  0.00  0.00    -0.287 N 
ATOM     20  C   UNL     1      -2.147  -0.541  -3.555  0.00  0.00    +0.201 C 
ATOM     21  O   UNL     1      -3.285  -0.961  -3.548  0.00  0.00    -0.278 OA
ATOM     22  H   UNL     1      -0.620   0.082  -2.395  0.00  0.00    +0.155 HD
BRANCH  19  28
ATOM     23  C   UNL     1      -1.349  -1.119  -0.119  0.00  0.00    -0.026 A 
ATOM     24  C   UNL     1      -1.954  -1.445   1.079  0.00  0.00    +0.005 A 
ATOM     25  C   UNL     1      -3.322  -1.313   1.222  0.00  0.00    +0.000 A 
ATOM     26  C   UNL     1      -4.090  -0.854   0.168  0.00  0.00    +0.002 A 
ATOM     27  C   UNL     1      -3.491  -0.525  -1.033  0.00  0.00    +0.023 A 
ATOM     28  C   UNL     1      -2.116  -0.652  -1.178  0.00  0.00    +0.036 A 
BRANCH  23  30
ATOM     29  C   UNL     1       0.819   0.078   0.019  0.00  0.00    +0.009 C 
ATOM     30  C   UNL     1       0.143  -1.263  -0.275  0.00  0.00    +0.033 C 
ENDBRANCH  23  30
ENDBRANCH  19  28
ENDBRANCH  18  20
ENDBRANCH   1  18
TORSDOF 5
