REMARK  Name = ZINC24905695
REMARK  5 active torsions:
REMARK  status: ('A' for Active; 'I' for Inactive)
REMARK    1  A    between atoms: C_1  and  C_2
REMARK    2  A    between atoms: N_16  and  C_19
REMARK    3  A    between atoms: C_19  and  C_20
REMARK    4  A    between atoms: C_23  and  O_26
REMARK    5  A    between atoms: O_26  and  C_27
REMARK                            x       y       z     vdW  Elec       q    Type
REMARK                         _______ _______ _______ _____ _____    ______ ____
ROOT
ATOM      1  C   UNL     1       0.057   9.654  -4.228  0.00  0.00    +0.044 C 
ATOM      2  C   UNL     1       0.039   8.158  -4.048  0.00  0.00    -0.048 A 
ATOM      3  C   UNL     1       1.121   7.515  -3.476  0.00  0.00    +0.005 A 
ATOM      4  C   UNL     1       1.113   6.145  -3.317  0.00  0.00    +0.025 A 
ATOM      5  C   UNL     1       0.011   5.398  -3.731  0.00  0.00    +0.055 A 
ATOM      6  C   UNL     1      -1.077   6.054  -4.291  0.00  0.00    +0.126 A 
ATOM      7  C   UNL     1      -1.061   7.424  -4.455  0.00  0.00    +0.033 A 
ATOM      8  S   UNL     1      -2.500   5.126  -4.776  0.00  0.00    +0.062 S 
ATOM      9  O   UNL     1      -3.486   5.323  -3.772  0.00  0.00    -0.153 OA
ATOM     10  O   UNL     1      -2.733   5.410  -6.148  0.00  0.00    -0.153 OA
ATOM     11  N   UNL     1      -2.020   3.531  -4.681  0.00  0.00    -0.167 NA
ATOM     12  C   UNL     1      -1.157   3.184  -3.535  0.00  0.00    +0.099 C 
ATOM     13  N   UNL     1       0.041   4.015  -3.574  0.00  0.00    -0.323 N 
ATOM     14  C   UNL     1      -0.772   1.706  -3.627  0.00  0.00    +0.025 C 
ATOM     15  C   UNL     1       0.058   1.323  -2.400  0.00  0.00    -0.075 C 
ATOM     16  N   UNL     1      -0.723   1.572  -1.182  0.00  0.00    +0.383 N 
ATOM     17  C   UNL     1      -1.060   2.995  -1.049  0.00  0.00    -0.075 C 
ATOM     18  C   UNL     1      -1.924   3.430  -2.235  0.00  0.00    +0.025 C 
ATOM     19  H   UNL     1      -2.174   2.805  -5.493  0.00  0.00    +0.150 HD
ATOM     20  H   UNL     1       1.034   3.552  -3.475  0.00  0.00    +0.148 HD
ATOM     21  H   UNL     1      -1.666   1.012  -1.268  0.00  0.00    -0.081 HD
ENDROOT
BRANCH  16  22
ATOM     22  C   UNL     1      -0.013   1.086   0.008  0.00  0.00    -0.043 C 
BRANCH  22  23
ATOM     23  C   UNL     1      -0.718   1.572   1.248  0.00  0.00    -0.064 A 
ATOM     24  C   UNL     1      -0.359   2.779   1.818  0.00  0.00    +0.005 A 
ATOM     25  C   UNL     1      -1.008   3.230   2.951  0.00  0.00    +0.046 A 
ATOM     26  C   UNL     1      -2.013   2.464   3.524  0.00  0.00    +0.130 A 
ATOM     27  C   UNL     1      -2.368   1.250   2.954  0.00  0.00    +0.046 A 
ATOM     28  C   UNL     1      -1.720   0.807   1.817  0.00  0.00    +0.005 A 
BRANCH  26  29
ATOM     29  O   UNL     1      -2.649   2.902   4.642  0.00  0.00    -0.406 OA
BRANCH  29  30
ATOM     30  C   UNL     1      -2.232   4.161   5.174  0.00  0.00    +0.575 C 
ATOM     31  F   UNL     1      -2.426   5.161   4.215  0.00  0.00    -0.133 F 
ATOM     32  F   UNL     1      -2.985   4.458   6.315  0.00  0.00    -0.133 F 
ATOM     33  F   UNL     1      -0.876   4.097   5.514  0.00  0.00    -0.133 F 
ENDBRANCH  29  30
ENDBRANCH  26  29
ENDBRANCH  22  23
ENDBRANCH  16  22
TORSDOF 4
