REMARK  Name = ZINC60275231
REMARK  9 active torsions:
REMARK  status: ('A' for Active; 'I' for Inactive)
REMARK    1  A    between atoms: C_1  and  C_2
REMARK    2  A    between atoms: N_5  and  C_8
REMARK    3  A    between atoms: C_8  and  C_9
REMARK    4  A    between atoms: C_16  and  C_18
REMARK    5  A    between atoms: C_25  and  O_27
REMARK    6  A    between atoms: O_27  and  C_28
REMARK    7  A    between atoms: C_28  and  C_29
REMARK    8  A    between atoms: C_28  and  C_30
REMARK    9  A    between atoms: C_28  and  C_31
REMARK                            x       y       z     vdW  Elec       q    Type
REMARK                         _______ _______ _______ _____ _____    ______ ____
ROOT
ATOM      1  C   UNL     1       0.474  -5.111   2.222  0.00  0.00    -0.010 C 
ATOM      2  C   UNL     1       1.977  -5.345   2.057  0.00  0.00    +0.005 C 
ATOM      3  C   UNL     1       2.615  -5.560   3.431  0.00  0.00    +0.019 C 
ATOM      4  C   UNL     1       2.002  -6.801   4.086  0.00  0.00    +0.108 C 
ATOM      5  N   UNL     1       0.541  -6.647   4.117  0.00  0.00    -0.300 N 
ATOM      6  C   UNL     1      -0.165  -6.347   2.864  0.00  0.00    +0.109 C 
ATOM      7  C   UNL     1      -0.139  -6.778   5.273  0.00  0.00    +0.236 C 
ATOM      8  O   UNL     1      -1.345  -6.648   5.285  0.00  0.00    -0.274 OA
ENDROOT
BRANCH   7   9
ATOM      9  C   UNL     1       0.599  -7.085   6.551  0.00  0.00    +0.165 C 
ATOM     10  C   UNL     1       0.424  -5.926   7.536  0.00  0.00    +0.032 C 
ATOM     11  C   UNL     1       1.057  -6.302   8.878  0.00  0.00    +0.004 C 
ATOM     12  C   UNL     1       0.349  -7.533   9.450  0.00  0.00    +0.019 C 
ATOM     13  C   UNL     1       0.522  -8.711   8.486  0.00  0.00    +0.112 C 
ATOM     14  N   UNL     1       0.051  -8.308   7.154  0.00  0.00    -0.256 N 
ATOM     15  C   UNL     1      -0.868  -9.045   6.498  0.00  0.00    +0.404 C 
ATOM     16  O   UNL     1      -1.307  -8.660   5.432  0.00  0.00    -0.226 OA
BRANCH  15  17
ATOM     17  O   UNL     1      -1.300 -10.206   7.025  0.00  0.00    -0.445 OA
BRANCH  17  18
ATOM     18  C   UNL     1      -2.275 -10.935   6.276  0.00  0.00    +0.107 C 
ATOM     19  C   UNL     1      -1.701 -11.294   4.904  0.00  0.00    +0.055 C 
ATOM     20  C   UNL     1      -2.642 -12.216   7.027  0.00  0.00    +0.055 C 
ATOM     21  C   UNL     1      -3.527 -10.074   6.096  0.00  0.00    +0.055 C 
ENDBRANCH  17  18
ENDBRANCH  15  17
ENDBRANCH   7   9
BRANCH   1  22
ATOM     22  C   UNL     1      -0.158  -4.864   0.851  0.00  0.00    -0.074 C 
BRANCH  22  27
ATOM     23  C   UNL     1      -5.423  -2.672   0.876  0.00  0.00    +0.007 C 
ATOM     24  C   UNL     1      -3.928  -2.890   0.633  0.00  0.00    -0.018 C 
ATOM     25  C   UNL     1      -3.720  -4.201  -0.131  0.00  0.00    -0.016 C 
ATOM     26  C   UNL     1      -2.220  -4.452  -0.301  0.00  0.00    -0.079 C 
ATOM     27  N   UNL     1      -1.583  -4.545   1.018  0.00  0.00    +0.380 N 
ATOM     28  C   UNL     1      -1.717  -3.268   1.728  0.00  0.00    -0.079 C 
ATOM     29  C   UNL     1      -3.197  -2.971   1.976  0.00  0.00    -0.016 C 
ATOM     30  H   UNL     1      -2.027  -5.275   1.554  0.00  0.00    -0.082 HD
ENDBRANCH  22  27
ENDBRANCH   1  22
TORSDOF 5
