REMARK  Name = ZINC21222426
REMARK  8 active torsions:
REMARK  status: ('A' for Active; 'I' for Inactive)
REMARK    1  A    between atoms: C_1  and  O_2
REMARK    2  A    between atoms: O_2  and  C_3
REMARK    3  A    between atoms: C_7  and  C_9
REMARK    4  A    between atoms: C_14  and  C_20
REMARK    5  A    between atoms: C_22  and  O_29
REMARK    6  A    between atoms: C_25  and  O_26
REMARK    7  A    between atoms: O_26  and  C_27
REMARK    8  A    between atoms: O_29  and  C_30
REMARK                            x       y       z     vdW  Elec       q    Type
REMARK                         _______ _______ _______ _____ _____    ______ ____
ROOT
ATOM      1  C   UNL     1       2.457   3.933   0.000  0.00  0.00    +0.032 C 
ATOM      2  C   UNL     1       3.288   3.551   1.228  0.00  0.00    +0.059 C 
ATOM      3  C   UNL     1       4.607   4.282   1.194  0.00  0.00    +0.018 C 
ATOM      4  C   UNL     1       5.188   4.606   0.020  0.00  0.00    +0.020 C 
ATOM      5  C   UNL     1       6.514   5.329   0.010  0.00  0.00    +0.066 C 
ATOM      6  C   UNL     1       7.362   4.851   1.189  0.00  0.00    +0.109 C 
ATOM      7  C   UNL     1       6.526   4.878   2.442  0.00  0.00    +0.218 C 
ATOM      8  O   UNL     1       7.040   5.144   3.508  0.00  0.00    -0.275 OA
ATOM      9  N   UNL     1       5.210   4.609   2.381  0.00  0.00    -0.289 N 
ATOM     10  C   UNL     1       4.585   4.285  -1.208  0.00  0.00    +0.162 C 
ATOM     11  O   UNL     1       5.145   4.582  -2.245  0.00  0.00    -0.292 OA
ATOM     12  C   UNL     1       3.256   3.580  -1.259  0.00  0.00    +0.088 C 
ATOM     13  H   UNL     1       4.615   4.656   3.306  0.00  0.00    +0.155 HD
ENDROOT
BRANCH   5  14
ATOM     14  C   UNL     1       6.278   6.813   0.131  0.00  0.00    +0.006 A 
ATOM     15  C   UNL     1       5.628   7.321   1.239  0.00  0.00    +0.054 A 
ATOM     16  C   UNL     1       5.412   8.686   1.351  0.00  0.00    +0.134 A 
ATOM     17  C   UNL     1       5.847   9.542   0.348  0.00  0.00    +0.063 A 
ATOM     18  C   UNL     1       6.497   9.033  -0.760  0.00  0.00    +0.064 A 
ATOM     19  C   UNL     1       6.718   7.668  -0.869  0.00  0.00    +0.125 A 
ATOM     20 BR   UNL     1       5.552  11.403   0.500  0.00  0.00    -0.046 Br
BRANCH  19  21
ATOM     21  O   UNL     1       7.362   7.168  -1.957  0.00  0.00    -0.495 OA
ATOM     22  C   UNL     1       7.788   8.106  -2.947  0.00  0.00    +0.277 C 
ENDBRANCH  19  21
BRANCH  16  23
ATOM     23  O   UNL     1       4.772   9.186   2.441  0.00  0.00    -0.494 OA
ATOM     24  C   UNL     1       4.351   8.248   3.433  0.00  0.00    +0.277 C 
ENDBRANCH  16  23
ENDBRANCH   5  14
BRANCH   1  29
ATOM     25  C   UNL     1      -1.236   3.137   0.029  0.00  0.00    +0.120 A 
ATOM     26  C   UNL     1      -1.218   1.750   0.017  0.00  0.00    +0.045 A 
ATOM     27  C   UNL     1      -0.013   1.076   0.008  0.00  0.00    +0.004 A 
ATOM     28  C   UNL     1       1.176   1.783   0.000  0.00  0.00    +0.004 A 
ATOM     29  C   UNL     1       1.161   3.165   0.008  0.00  0.00    -0.040 A 
ATOM     30  C   UNL     1      -0.043   3.844   0.022  0.00  0.00    +0.049 A 
BRANCH  25  32
ATOM     31  C   UNL     1      -3.610   3.009   0.050  0.00  0.00    +0.277 C 
ATOM     32  O   UNL     1      -2.421   3.802   0.043  0.00  0.00    -0.495 OA
ENDBRANCH  25  32
ENDBRANCH   1  29
TORSDOF 5
