REMARK  Name = ZINC64002281
REMARK  7 active torsions:
REMARK  status: ('A' for Active; 'I' for Inactive)
REMARK    1  A    between atoms: C_1  and  C_2
REMARK    2  A    between atoms: C_4  and  C_8
REMARK    3  A    between atoms: C_5  and  C_7
REMARK    4  A    between atoms: N_10  and  C_11
REMARK    5  A    between atoms: C_11  and  C_12
REMARK    6  A    between atoms: N_21  and  C_24
REMARK    7  A    between atoms: C_24  and  C_25
REMARK                            x       y       z     vdW  Elec       q    Type
REMARK                         _______ _______ _______ _____ _____    ______ ____
ROOT
ATOM      1  C   UNL     1      -4.989  -4.247   0.001  0.00  0.00    +0.216 C 
ATOM      2  N   UNL     1      -5.319  -3.388   1.157  0.00  0.00    -0.170 NA
ATOM      3  N   UNL     1      -6.136  -2.505   0.831  0.00  0.00    -0.172 NA
ATOM      4  C   UNL     1      -6.505  -2.659  -0.570  0.00  0.00    +0.200 C 
ATOM      5  N   UNL     1      -5.334  -3.406  -1.156  0.00  0.00    -0.254 NA
ATOM      6  C   UNL     1      -5.799  -4.039  -2.348  0.00  0.00    +0.104 C 
ATOM      7  C   UNL     1      -6.342  -3.055  -3.378  0.00  0.00    +0.100 C 
ATOM      8  N   UNL     1      -7.716  -2.665  -3.119  0.00  0.00    -0.299 NA
ATOM      9  C   UNL     1      -7.798  -1.420  -2.280  0.00  0.00    +0.088 C 
ATOM     10  C   UNL     1      -6.580  -1.354  -1.360  0.00  0.00    +0.060 C 
ENDROOT
BRANCH   1  11
ATOM     11  C   UNL     1      -3.499  -4.593  -0.008  0.00  0.00    +0.149 C 
BRANCH  11  14
ATOM     12  C   UNL     1      -1.364  -3.418  -0.011  0.00  0.00    +0.247 C 
ATOM     13  O   UNL     1      -0.804  -4.497  -0.020  0.00  0.00    -0.270 OA
ATOM     14  N   UNL     1      -2.711  -3.358  -0.005  0.00  0.00    -0.308 N 
ATOM     15  H   UNL     1      -3.158  -2.498   0.002  0.00  0.00    +0.149 HD
BRANCH  12  19
ATOM     16  C   UNL     1      -0.018   1.503   0.010  0.00  0.00    +0.086 C 
ATOM     17  C   UNL     1       0.002  -0.004   0.002  0.00  0.00    +0.103 A 
ATOM     18  C   UNL     1      -1.081  -0.797   0.003  0.00  0.00    +0.057 A 
ATOM     19  C   UNL     1      -0.571  -2.176  -0.008  0.00  0.00    +0.077 A 
ATOM     20  C   UNL     1       0.788  -2.066  -0.014  0.00  0.00    +0.114 A 
ATOM     21  O   UNL     1       1.106  -0.767  -0.013  0.00  0.00    -0.464 OA
ATOM     22  C   UNL     1       1.766  -3.212  -0.026  0.00  0.00    +0.087 C 
ENDBRANCH  12  19
ENDBRANCH  11  14
ENDBRANCH   1  11
BRANCH   8  23
ATOM     23  C   UNL     1      -8.463  -2.503  -4.374  0.00  0.00    +0.113 C 
BRANCH  23  24
ATOM     24  C   UNL     1      -8.594  -3.861  -5.067  0.00  0.00    +0.117 C 
ATOM     25  C   UNL     1      -9.512  -3.748  -6.264  0.00  0.00    +0.008 C 
ATOM     26  C   UNL     1     -10.547  -4.585  -6.023  0.00  0.00    -0.004 A 
ATOM     27  C   UNL     1     -11.751  -4.924  -6.790  0.00  0.00    +0.010 A 
ATOM     28  C   UNL     1     -12.626  -5.819  -6.277  0.00  0.00    +0.001 A 
ATOM     29  C   UNL     1     -12.411  -6.430  -5.034  0.00  0.00    +0.002 A 
ATOM     30  C   UNL     1     -11.328  -6.170  -4.271  0.00  0.00    +0.026 A 
ATOM     31  C   UNL     1     -10.343  -5.244  -4.713  0.00  0.00    +0.043 A 
ATOM     32  N   UNL     1      -9.225  -4.831  -4.165  0.00  0.00    -0.377 N 
ATOM     33  H   UNL     1      -8.873  -5.117  -3.308  0.00  0.00    +0.160 HD
ENDBRANCH  23  24
ENDBRANCH   8  23
TORSDOF 5
