REMARK  Name = ZINC09763825
REMARK  6 active torsions:
REMARK  status: ('A' for Active; 'I' for Inactive)
REMARK    1  A    between atoms: C_1  and  O_2
REMARK    2  A    between atoms: O_2  and  C_3
REMARK    3  A    between atoms: C_5  and  C_12
REMARK    4  A    between atoms: C_8  and  O_9
REMARK    5  A    between atoms: O_9  and  C_10
REMARK    6  A    between atoms: C_25  and  N_28
REMARK                            x       y       z     vdW  Elec       q    Type
REMARK                         _______ _______ _______ _____ _____    ______ ____
ROOT
ATOM      1  C   UNL     1       0.208   6.050  -0.475  0.00  0.00    +0.105 C 
ATOM      2  C   UNL     1      -0.882   6.499  -1.426  0.00  0.00    +0.029 C 
ATOM      3  C   UNL     1      -1.671   5.421  -2.178  0.00  0.00    +0.033 C 
ATOM      4  C   UNL     1      -3.024   6.112  -2.368  0.00  0.00    -0.030 C 
ATOM      5  C   UNL     1      -3.209   7.015  -1.411  0.00  0.00    -0.023 C 
ATOM      6  C   UNL     1      -2.040   6.982  -0.499  0.00  0.00    +0.049 C 
ATOM      7  C   UNL     1      -1.546   8.184   0.207  0.00  0.00    -0.017 A 
ATOM      8  C   UNL     1      -2.390   9.213   0.567  0.00  0.00    +0.006 A 
ATOM      9  C   UNL     1      -1.907  10.308   1.259  0.00  0.00    +0.003 A 
ATOM     10  C   UNL     1      -0.566  10.369   1.591  0.00  0.00    +0.034 A 
ATOM     11  C   UNL     1       0.286   9.350   1.228  0.00  0.00    +0.147 A 
ATOM     12  C   UNL     1      -0.185   8.241   0.524  0.00  0.00    +0.062 A 
ATOM     13  N   UNL     1       0.739   7.258   0.176  0.00  0.00    -0.335 N 
ATOM     14  H   UNL     1       1.501   7.651  -0.357  0.00  0.00    +0.147 HD
ENDROOT
BRANCH   1  17
ATOM     15  C   UNL     1      -0.986   2.907   1.249  0.00  0.00    +0.163 A 
ATOM     16  C   UNL     1      -0.457   3.765   0.298  0.00  0.00    +0.055 A 
ATOM     17  C   UNL     1      -0.367   5.119   0.561  0.00  0.00    -0.022 A 
ATOM     18  C   UNL     1      -0.804   5.621   1.773  0.00  0.00    +0.024 A 
ATOM     19  C   UNL     1      -1.333   4.770   2.727  0.00  0.00    +0.063 A 
ATOM     20  C   UNL     1      -1.431   3.412   2.466  0.00  0.00    +0.175 A 
ATOM     21 BR   UNL     1      -1.929   5.461   4.383  0.00  0.00    -0.046 Br
BRANCH  15  23
ATOM     22  C   UNL     1      -0.604   1.128  -0.282  0.00  0.00    +0.277 C 
ATOM     23  O   UNL     1      -1.075   1.575   0.991  0.00  0.00    -0.491 OA
ENDBRANCH  15  23
BRANCH  20  24
ATOM     24  O   UNL     1      -1.956   2.575   3.401  0.00  0.00    -0.490 OA
ATOM     25  C   UNL     1      -1.046   2.002   4.343  0.00  0.00    +0.277 C 
ENDBRANCH  20  24
ENDBRANCH   1  17
BRANCH  11  26
ATOM     26  N   UNL     1       1.719   9.432   1.590  0.00  0.00    +0.058 N 
ATOM     27  O   UNL     1       2.138  10.396   2.204  0.00  0.00    -0.126 OA
ATOM     28  O   UNL     1       2.479   8.535   1.272  0.00  0.00    -0.126 OA
ENDBRANCH  11  26
TORSDOF 4
