REMARK  Name = ZINC14739845
REMARK  7 active torsions:
REMARK  status: ('A' for Active; 'I' for Inactive)
REMARK    1  A    between atoms: C_1  and  C_2
REMARK    2  A    between atoms: C_2  and  C_3
REMARK    3  A    between atoms: C_3  and  C_25
REMARK    4  A    between atoms: N_6  and  C_10
REMARK    5  A    between atoms: C_10  and  C_11
REMARK    6  A    between atoms: C_11  and  O_13
REMARK    7  A    between atoms: O_13  and  C_14
REMARK                            x       y       z     vdW  Elec       q    Type
REMARK                         _______ _______ _______ _____ _____    ______ ____
ROOT
ATOM      1  C   UNL     1       1.662   1.522  -0.045  0.00  0.00    +0.138 C 
ATOM      2  C   UNL     1       0.183   1.191  -0.036  0.00  0.00    +0.252 C 
ATOM      3  O   UNL     1      -0.743   1.974  -0.050  0.00  0.00    -0.272 OA
ATOM      4  N   UNL     1       0.111  -0.155  -0.016  0.00  0.00    -0.213 N 
ATOM      5  C   UNL     1       1.326  -0.714  -0.011  0.00  0.00    +0.310 C 
ATOM      6  O   UNL     1       1.518  -1.914   0.007  0.00  0.00    -0.252 OA
ATOM      7  N   UNL     1       2.313   0.200  -0.027  0.00  0.00    -0.281 N 
ATOM      8  H   UNL     1       3.267   0.024  -0.027  0.00  0.00    +0.152 HD
ENDROOT
BRANCH   1   9
ATOM      9  C   UNL     1       2.036   2.314   1.181  0.00  0.00    -0.015 A 
ATOM     10  C   UNL     1       1.995   3.695   1.151  0.00  0.00    +0.006 A 
ATOM     11  C   UNL     1       2.333   4.421   2.277  0.00  0.00    +0.000 A 
ATOM     12  C   UNL     1       2.721   3.767   3.431  0.00  0.00    +0.000 A 
ATOM     13  C   UNL     1       2.767   2.385   3.460  0.00  0.00    +0.000 A 
ATOM     14  C   UNL     1       2.424   1.659   2.335  0.00  0.00    +0.006 A 
ENDBRANCH   1   9
BRANCH   1  16
ATOM     15  C   UNL     1       1.695   1.438  -2.542  0.00  0.00    +0.007 C 
ATOM     16  C   UNL     1       2.034   2.288  -1.317  0.00  0.00    +0.037 C 
ENDBRANCH   1  16
BRANCH   4  17
ATOM     17  C   UNL     1      -1.143  -0.912  -0.002  0.00  0.00    +0.238 C 
BRANCH  17  18
ATOM     18  C   UNL     1      -1.576  -1.193  -1.417  0.00  0.00    +0.330 C 
ATOM     19  O   UNL     1      -0.906  -0.801  -2.343  0.00  0.00    -0.249 OA
BRANCH  18  20
ATOM     20  O   UNL     1      -2.707  -1.879  -1.650  0.00  0.00    -0.424 OA
BRANCH  20  21
ATOM     21  C   UNL     1      -3.095  -2.006  -2.946  0.00  0.00    +0.139 A 
ATOM     22  C   UNL     1      -3.981  -1.118  -3.489  0.00  0.00    +0.048 A 
ATOM     23  C   UNL     1      -4.388  -1.235  -4.815  0.00  0.00    +0.024 A 
ATOM     24  C   UNL     1      -3.918  -2.237  -5.609  0.00  0.00    +0.049 A 
ATOM     25  C   UNL     1      -3.006  -3.171  -5.087  0.00  0.00    +0.004 A 
ATOM     26  C   UNL     1      -2.584  -3.052  -3.740  0.00  0.00    +0.026 A 
ATOM     27  C   UNL     1      -1.677  -3.988  -3.217  0.00  0.00    +0.012 A 
ATOM     28  C   UNL     1      -1.208  -4.989  -4.012  0.00  0.00    +0.001 A 
ATOM     29  C   UNL     1      -1.619  -5.103  -5.338  0.00  0.00    +0.001 A 
ATOM     30  C   UNL     1      -2.500  -4.218  -5.878  0.00  0.00    +0.010 A 
ATOM     31 CL   UNL     1      -4.443  -2.360  -7.259  0.00  0.00    -0.083 Cl
ENDBRANCH  20  21
ENDBRANCH  18  20
ENDBRANCH  17  18
ENDBRANCH   4  17
TORSDOF 6
