REMARK  Name = ZINC18083850
REMARK  7 active torsions:
REMARK  status: ('A' for Active; 'I' for Inactive)
REMARK    1  A    between atoms: C_4  and  C_7
REMARK    2  A    between atoms: C_8  and  N_25
REMARK    3  A    between atoms: C_10  and  S_14
REMARK    4  A    between atoms: S_14  and  C_15
REMARK    5  A    between atoms: C_15  and  C_16
REMARK    6  A    between atoms: N_18  and  C_19
REMARK    7  A    between atoms: C_19  and  C_20
REMARK                            x       y       z     vdW  Elec       q    Type
REMARK                         _______ _______ _______ _____ _____    ______ ____
ROOT
ATOM      1  C   UNL     1       3.697  -0.686  -0.037  0.00  0.00    +0.086 A 
ATOM      2  C   UNL     1       4.084  -1.489   1.042  0.00  0.00    +0.132 A 
ATOM      3  N   UNL     1       5.256  -2.128   1.003  0.00  0.00    -0.208 NA
ATOM      4  C   UNL     1       6.060  -2.020  -0.035  0.00  0.00    +0.171 A 
ATOM      5  N   UNL     1       5.737  -1.253  -1.113  0.00  0.00    -0.301 N 
ATOM      6  C   UNL     1       4.565  -0.583  -1.144  0.00  0.00    +0.262 A 
ATOM      7  O   UNL     1       4.265   0.102  -2.108  0.00  0.00    -0.267 OA
ATOM      8  H   UNL     1       6.348  -1.190  -1.863  0.00  0.00    +0.171 HD
ENDROOT
BRANCH   1  12
ATOM      9  C   UNL     1      -0.017   1.379   0.010  0.00  0.00    +0.000 A 
ATOM     10  C   UNL     1       1.169   2.093   0.002  0.00  0.00    +0.001 A 
ATOM     11  C   UNL     1       2.377   1.428  -0.013  0.00  0.00    +0.009 A 
ATOM     12  C   UNL     1       2.403   0.034  -0.021  0.00  0.00    -0.009 A 
ATOM     13  C   UNL     1       1.204  -0.680  -0.013  0.00  0.00    +0.009 A 
ATOM     14  C   UNL     1       0.002  -0.004   0.002  0.00  0.00    +0.001 A 
ENDBRANCH   1  12
BRANCH   2  15
ATOM     15  N   UNL     1       3.260  -1.619   2.140  0.00  0.00    -0.342 N 
ATOM     16  H   UNL     1       2.409  -1.153   2.166  0.00  0.00    +0.144 HD
ATOM     17  H   UNL     1       3.531  -2.176   2.887  0.00  0.00    +0.144 HD
ENDBRANCH   2  15
BRANCH   4  18
ATOM     18  S   UNL     1       7.593  -2.888  -0.028  0.00  0.00    -0.078 S 
BRANCH  18  19
ATOM     19  C   UNL     1       7.599  -3.754   1.566  0.00  0.00    +0.173 C 
BRANCH  19  20
ATOM     20  C   UNL     1       8.874  -4.547   1.702  0.00  0.00    +0.224 C 
ATOM     21  O   UNL     1       9.697  -4.529   0.812  0.00  0.00    -0.275 OA
ATOM     22  N   UNL     1       9.099  -5.275   2.813  0.00  0.00    -0.308 N 
ATOM     23  H   UNL     1       8.441  -5.290   3.525  0.00  0.00    +0.149 HD
BRANCH  22  24
ATOM     24  C   UNL     1      10.338  -6.046   2.946  0.00  0.00    +0.178 C 
BRANCH  24  25
ATOM     25  C   UNL     1      10.343  -6.766   4.270  0.00  0.00    +0.122 A 
ATOM     26  C   UNL     1       9.866  -8.003   4.494  0.00  0.00    +0.046 A 
ATOM     27  C   UNL     1      10.073  -8.279   5.865  0.00  0.00    +0.041 A 
ATOM     28  C   UNL     1      10.663  -7.194   6.397  0.00  0.00    +0.195 A 
ATOM     29  O   UNL     1      10.830  -6.283   5.424  0.00  0.00    -0.466 OA
ENDBRANCH  24  25
ENDBRANCH  22  24
ENDBRANCH  19  20
ENDBRANCH  18  19
ENDBRANCH   4  18
TORSDOF 7
