REMARK  Name = ZINC14008583
REMARK  10 active torsions:
REMARK  status: ('A' for Active; 'I' for Inactive)
REMARK    1  A    between atoms: C_1  and  C_2
REMARK    2  A    between atoms: C_5  and  C_28
REMARK    3  A    between atoms: C_6  and  O_8
REMARK    4  A    between atoms: O_8  and  C_9
REMARK    5  A    between atoms: C_9  and  C_11
REMARK    6  A    between atoms: C_9  and  C_12
REMARK    7  A    between atoms: N_14  and  N_15
REMARK    8  A    between atoms: C_16  and  C_18
REMARK    9  A    between atoms: C_18  and  O_19
REMARK   10  A    between atoms: O_19  and  C_20
REMARK                            x       y       z     vdW  Elec       q    Type
REMARK                         _______ _______ _______ _____ _____    ______ ____
ROOT
ATOM      1  C   UNL     1       5.418  -4.068   0.172  0.00  0.00    +0.270 C 
ATOM      2  O   UNL     1       4.497  -4.839   0.344  0.00  0.00    -0.270 OA
ATOM      3  N   UNL     1       5.202  -2.739   0.219  0.00  0.00    -0.231 N 
ATOM      4  H   UNL     1       5.938  -2.122   0.081  0.00  0.00    +0.173 HD
ENDROOT
BRANCH   3   5
ATOM      5  N   UNL     1       3.913  -2.247   0.468  0.00  0.00    -0.231 N 
ATOM      6  C   UNL     1       3.697  -0.917   0.515  0.00  0.00    +0.267 C 
ATOM      7  O   UNL     1       4.617  -0.147   0.342  0.00  0.00    -0.271 OA
ATOM      8  H   UNL     1       3.177  -2.863   0.606  0.00  0.00    +0.173 HD
BRANCH   6   9
ATOM      9  C   UNL     1       2.311  -0.389   0.782  0.00  0.00    +0.326 C 
BRANCH   9  10
ATOM     10  O   UNL     1       2.339   1.040   0.783  0.00  0.00    -0.482 OA
BRANCH  10  11
ATOM     11  C   UNL     1       1.161   1.680   1.011  0.00  0.00    +0.135 A 
ATOM     12  C   UNL     1       0.004   0.947   1.229  0.00  0.00    +0.048 A 
ATOM     13  C   UNL     1      -1.193   1.599   1.455  0.00  0.00    +0.019 A 
ATOM     14  C   UNL     1      -1.236   2.982   1.474  0.00  0.00    +0.019 A 
ATOM     15  C   UNL     1      -0.083   3.715   1.257  0.00  0.00    +0.034 A 
ATOM     16  C   UNL     1       1.115   3.067   1.026  0.00  0.00    +0.061 A 
ATOM     17 BR   UNL     1       2.691   4.069   0.728  0.00  0.00    -0.046 Br
ATOM     18 BR   UNL     1      -2.875   3.871   1.790  0.00  0.00    -0.050 Br
ENDBRANCH  10  11
ENDBRANCH   9  10
ENDBRANCH   6   9
ENDBRANCH   3   5
BRANCH   1  19
ATOM     19  C   UNL     1       6.803  -4.597  -0.095  0.00  0.00    +0.257 C 
ATOM     20  C   UNL     1       7.728  -4.211   1.061  0.00  0.00    +0.062 C 
BRANCH  19  21
ATOM     21  O   UNL     1       6.756  -6.020  -0.212  0.00  0.00    -0.480 OA
BRANCH  21  27
ATOM     22  C   UNL     1      10.933  -5.638  -2.707  0.00  0.00    +0.044 C 
ATOM     23  C   UNL     1       9.790  -6.460  -2.170  0.00  0.00    -0.047 A 
ATOM     24  C   UNL     1       9.742  -7.820  -2.417  0.00  0.00    +0.004 A 
ATOM     25  C   UNL     1       8.695  -8.577  -1.926  0.00  0.00    +0.007 A 
ATOM     26  C   UNL     1       7.696  -7.978  -1.183  0.00  0.00    -0.009 A 
ATOM     27  C   UNL     1       7.739  -6.613  -0.938  0.00  0.00    +0.125 A 
ATOM     28  C   UNL     1       8.792  -5.855  -1.432  0.00  0.00    +0.049 A 
ATOM     29  C   UNL     1       6.558  -8.805  -0.643  0.00  0.00    +0.047 C 
ENDBRANCH  21  27
ENDBRANCH  19  21
ENDBRANCH   1  19
TORSDOF 7
