REMARK  Name = ZINC39502291
REMARK  7 active torsions:
REMARK  status: ('A' for Active; 'I' for Inactive)
REMARK    1  A    between atoms: C_1  and  C_2
REMARK    2  A    between atoms: C_6  and  N_8
REMARK    3  A    between atoms: C_9  and  C_22
REMARK    4  A    between atoms: C_12  and  S_13
REMARK    5  A    between atoms: S_13  and  C_14
REMARK    6  A    between atoms: C_14  and  C_15
REMARK    7  A    between atoms: C_15  and  C_17
REMARK                            x       y       z     vdW  Elec       q    Type
REMARK                         _______ _______ _______ _____ _____    ______ ____
ROOT
ATOM      1  N   UNL     1       0.050  -2.798   2.395  0.00  0.00    -0.270 N 
ATOM      2  C   UNL     1      -0.929  -3.637   2.881  0.00  0.00    +0.169 A 
ATOM      3  N   UNL     1      -0.508  -4.089   4.040  0.00  0.00    -0.128 NA
ATOM      4  N   UNL     1       0.649  -3.599   4.309  0.00  0.00    -0.122 NA
ATOM      5  C   UNL     1       1.043  -2.807   3.337  0.00  0.00    +0.197 A 
ENDROOT
BRANCH   1  11
ATOM      6  C   UNL     1      -0.018   1.503   0.010  0.00  0.00    +0.044 C 
ATOM      7  C   UNL     1       0.002  -0.004   0.002  0.00  0.00    -0.048 A 
ATOM      8  C   UNL     1       0.006  -0.688  -1.200  0.00  0.00    +0.003 A 
ATOM      9  C   UNL     1       0.024  -2.071  -1.212  0.00  0.00    +0.002 A 
ATOM     10  C   UNL     1       0.039  -2.773  -0.022  0.00  0.00    +0.026 A 
ATOM     11  C   UNL     1       0.035  -2.089   1.186  0.00  0.00    +0.051 A 
ATOM     12  C   UNL     1       0.023  -0.700   1.194  0.00  0.00    +0.029 A 
ENDBRANCH   1  11
BRANCH   2  13
ATOM     13  C   UNL     1      -2.211  -3.966   2.222  0.00  0.00    +0.020 A 
ATOM     14  C   UNL     1      -2.668  -3.192   1.154  0.00  0.00    +0.013 A 
ATOM     15  C   UNL     1      -3.865  -3.504   0.543  0.00  0.00    +0.021 A 
ATOM     16  C   UNL     1      -4.612  -4.582   0.988  0.00  0.00    +0.041 A 
ATOM     17  C   UNL     1      -4.163  -5.353   2.047  0.00  0.00    +0.021 A 
ATOM     18  C   UNL     1      -2.965  -5.055   2.662  0.00  0.00    +0.013 A 
ATOM     19 CL   UNL     1      -6.117  -4.968   0.214  0.00  0.00    -0.084 Cl
ENDBRANCH   2  13
BRANCH   5  20
ATOM     20  S   UNL     1       2.563  -1.921   3.262  0.00  0.00    -0.078 S 
BRANCH  20  21
ATOM     21  C   UNL     1       3.409  -2.368   4.803  0.00  0.00    +0.158 C 
BRANCH  21  22
ATOM     22  C   UNL     1       4.741  -1.667   4.867  0.00  0.00    +0.188 C 
ATOM     23  O   UNL     1       5.087  -0.938   3.961  0.00  0.00    -0.290 OA
BRANCH  22  24
ATOM     24  C   UNL     1       5.619  -1.866   6.022  0.00  0.00    +0.088 C 
ATOM     25  N   UNL     1       5.387  -2.619   7.061  0.00  0.00    -0.256 NA
ATOM     26  C   UNL     1       6.373  -2.604   7.960  0.00  0.00    +0.107 C 
ATOM     27  C   UNL     1       7.390  -1.815   7.595  0.00  0.00    -0.001 C 
ATOM     28  C   UNL     1       6.984  -1.244   6.248  0.00  0.00    +0.087 C 
ENDBRANCH  22  24
ENDBRANCH  21  22
ENDBRANCH  20  21
ENDBRANCH   5  20
TORSDOF 6
