REMARK  Name = ZINC63697651
REMARK  6 active torsions:
REMARK  status: ('A' for Active; 'I' for Inactive)
REMARK    1  A    between atoms: C_1  and  S_2
REMARK    2  A    between atoms: S_2  and  C_3
REMARK    3  A    between atoms: C_6  and  C_9
REMARK    4  A    between atoms: C_24  and  C_26
REMARK    5  A    between atoms: C_26  and  S_27
REMARK    6  A    between atoms: S_27  and  C_28
REMARK                            x       y       z     vdW  Elec       q    Type
REMARK                         _______ _______ _______ _____ _____    ______ ____
ROOT
ATOM      1  C   UNL     1      -5.834  -1.544   0.050  0.00  0.00    +0.133 C 
ATOM      2  C   UNL     1      -6.224  -2.056   1.440  0.00  0.00    +0.131 C 
ATOM      3  C   UNL     1      -5.547  -3.410   1.611  0.00  0.00    -0.035 C 
ATOM      4  C   UNL     1      -4.816  -3.328   2.716  0.00  0.00    -0.001 A 
ATOM      5  C   UNL     1      -4.000  -4.324   3.427  0.00  0.00    +0.010 A 
ATOM      6  C   UNL     1      -3.362  -3.889   4.546  0.00  0.00    +0.001 A 
ATOM      7  C   UNL     1      -3.455  -2.578   5.023  0.00  0.00    +0.002 A 
ATOM      8  C   UNL     1      -4.186  -1.598   4.436  0.00  0.00    +0.026 A 
ATOM      9  C   UNL     1      -4.906  -1.935   3.253  0.00  0.00    +0.043 A 
ATOM     10  N   UNL     1      -5.704  -1.195   2.504  0.00  0.00    -0.375 N 
ATOM     11  C   UNL     1      -5.694  -4.523   0.602  0.00  0.00    +0.052 C 
ATOM     12  C   UNL     1      -5.377  -3.915  -0.777  0.00  0.00    +0.113 C 
ATOM     13  N   UNL     1      -6.071  -2.629  -0.915  0.00  0.00    -0.291 N 
ATOM     14  C   UNL     1      -6.934  -2.441  -1.933  0.00  0.00    +0.226 C 
ATOM     15  O   UNL     1      -7.511  -1.381  -2.051  0.00  0.00    -0.275 OA
ATOM     16  H   UNL     1      -5.908  -0.254   2.623  0.00  0.00    +0.160 HD
ENDROOT
BRANCH   1  20
ATOM     17  C   UNL     1      -1.702  -0.454   0.016  0.00  0.00    +0.008 A 
ATOM     18  C   UNL     1      -2.074  -1.764   0.292  0.00  0.00    +0.015 A 
ATOM     19  C   UNL     1      -3.410  -2.112   0.302  0.00  0.00    +0.006 A 
ATOM     20  C   UNL     1      -4.377  -1.159   0.038  0.00  0.00    -0.025 A 
ATOM     21  C   UNL     1      -4.010   0.145  -0.238  0.00  0.00    +0.006 A 
ATOM     22  C   UNL     1      -2.676   0.502  -0.243  0.00  0.00    +0.015 A 
BRANCH  17  24
ATOM     23  C   UNL     1       0.867  -1.551   0.386  0.00  0.00    +0.090 C 
ATOM     24  S   UNL     1       0.002  -0.004   0.002  0.00  0.00    -0.129 S 
ENDBRANCH  17  24
ENDBRANCH   1  20
BRANCH  14  25
ATOM     25  C   UNL     1      -7.181  -3.548  -2.925  0.00  0.00    +0.170 C 
BRANCH  25  26
ATOM     26  S   UNL     1      -8.383  -2.992  -4.165  0.00  0.00    -0.116 S 
BRANCH  26  27
ATOM     27  C   UNL     1      -8.563  -4.378  -5.237  0.00  0.00    +0.008 A 
ATOM     28  C   UNL     1      -7.848  -5.545  -4.993  0.00  0.00    +0.015 A 
ATOM     29  C   UNL     1      -7.992  -6.630  -5.835  0.00  0.00    +0.001 A 
ATOM     30  C   UNL     1      -8.845  -6.556  -6.920  0.00  0.00    +0.000 A 
ATOM     31  C   UNL     1      -9.558  -5.397  -7.167  0.00  0.00    +0.001 A 
ATOM     32  C   UNL     1      -9.425  -4.310  -6.325  0.00  0.00    +0.015 A 
ENDBRANCH  26  27
ENDBRANCH  25  26
ENDBRANCH  14  25
TORSDOF 5
