REMARK  Name = ZINC30021147
REMARK  5 active torsions:
REMARK  status: ('A' for Active; 'I' for Inactive)
REMARK    1  A    between atoms: C_5  and  S_7
REMARK    2  A    between atoms: S_7  and  C_8
REMARK    3  A    between atoms: C_8  and  C_9
REMARK    4  A    between atoms: C_18  and  S_20
REMARK    5  A    between atoms: S_20  and  N_23
REMARK                            x       y       z     vdW  Elec       q    Type
REMARK                         _______ _______ _______ _____ _____    ______ ____
ROOT
ATOM      1  C   UNL     1      -0.628  -4.412  -0.017  0.00  0.00    +0.230 C 
ATOM      2  O   UNL     1       0.371  -5.100  -0.031  0.00  0.00    -0.274 OA
ATOM      3  N   UNL     1      -1.845  -4.992  -0.009  0.00  0.00    -0.270 N 
ATOM      4  C   UNL     1      -3.119  -4.269   0.002  0.00  0.00    +0.118 C 
ATOM      5  C   UNL     1      -4.202  -5.360   0.009  0.00  0.00    +0.056 C 
ATOM      6  C   UNL     1      -3.431  -6.661   0.002  0.00  0.00    -0.023 A 
ATOM      7  C   UNL     1      -2.076  -6.371  -0.014  0.00  0.00    +0.040 A 
ATOM      8  C   UNL     1      -1.158  -7.422  -0.029  0.00  0.00    +0.026 A 
ATOM      9  C   UNL     1      -1.597  -8.729  -0.031  0.00  0.00    +0.030 A 
ATOM     10  C   UNL     1      -2.951  -9.008  -0.020  0.00  0.00    +0.105 A 
ATOM     11  C   UNL     1      -3.867  -7.972   0.004  0.00  0.00    +0.034 A 
ENDROOT
BRANCH  10  12
ATOM     12  S   UNL     1      -3.509 -10.680  -0.024  0.00  0.00    +0.056 S 
ATOM     13  O   UNL     1      -4.824 -10.668  -0.562  0.00  0.00    -0.153 OA
ATOM     14  O   UNL     1      -2.461 -11.456  -0.590  0.00  0.00    -0.153 OA
BRANCH  12  15
ATOM     15  N   UNL     1      -3.648 -11.153   1.557  0.00  0.00    -0.204 NA
ATOM     16  H   UNL     1      -3.433 -10.532   2.270  0.00  0.00    +0.144 HD
ATOM     17  H   UNL     1      -3.945 -12.052   1.770  0.00  0.00    +0.144 HD
ENDBRANCH  12  15
ENDBRANCH  10  12
BRANCH   1  18
ATOM     18  C   UNL     1      -0.509  -2.910  -0.010  0.00  0.00    +0.170 C 
BRANCH  18  19
ATOM     19  S   UNL     1       1.244  -2.443  -0.024  0.00  0.00    -0.114 S 
BRANCH  19  24
ATOM     20  C   UNL     1      -0.017   1.377   0.010  0.00  0.00    +0.001 A 
ATOM     21  C   UNL     1       1.170   2.087   0.002  0.00  0.00    +0.001 A 
ATOM     22  C   UNL     1       2.380   1.417  -0.013  0.00  0.00    +0.021 A 
ATOM     23  C   UNL     1       2.407   0.035  -0.021  0.00  0.00    +0.054 A 
ATOM     24  C   UNL     1       1.215  -0.681  -0.014  0.00  0.00    +0.027 A 
ATOM     25  C   UNL     1       0.002  -0.004   0.002  0.00  0.00    +0.016 A 
ATOM     26 CL   UNL     1       3.926  -0.804  -0.041  0.00  0.00    -0.082 Cl
ENDBRANCH  19  24
ENDBRANCH  18  19
ENDBRANCH   1  18
TORSDOF 5
