REMARK  Name = ZINC59171069
REMARK  8 active torsions:
REMARK  status: ('A' for Active; 'I' for Inactive)
REMARK    1  A    between atoms: C_1  and  C_2
REMARK    2  A    between atoms: C_2  and  C_3
REMARK    3  A    between atoms: C_2  and  C_4
REMARK    4  A    between atoms: C_2  and  C_5
REMARK    5  A    between atoms: C_9  and  C_24
REMARK    6  A    between atoms: N_11  and  C_12
REMARK    7  A    between atoms: C_21  and  O_23
REMARK    8  A    between atoms: C_24  and  N_26
REMARK                            x       y       z     vdW  Elec       q    Type
REMARK                         _______ _______ _______ _____ _____    ______ ____
ROOT
ATOM      1  C   UNL     1       0.527  -1.238  -0.861  0.00  0.00    -0.038 A 
ATOM      2  C   UNL     1       0.700  -2.495  -1.395  0.00  0.00    +0.016 A 
ATOM      3  C   UNL     1       1.417  -2.650  -2.588  0.00  0.00    +0.022 A 
ATOM      4  C   UNL     1       1.623  -3.978  -3.172  0.00  0.00    +0.027 A 
ATOM      5  C   UNL     1       2.561  -4.090  -4.190  0.00  0.00    +0.064 A 
ATOM      6  C   UNL     1       3.267  -2.856  -4.592  0.00  0.00    +0.209 A 
ATOM      7  N   UNL     1       4.469  -2.905  -5.124  0.00  0.00    -0.325 N 
ATOM      8  O   UNL     1       2.638  -1.669  -4.395  0.00  0.00    -0.435 OA
ATOM      9  C   UNL     1       1.951  -1.521  -3.235  0.00  0.00    +0.179 A 
ATOM     10  C   UNL     1       1.766  -0.260  -2.678  0.00  0.00    +0.160 A 
ATOM     11  C   UNL     1       1.052  -0.125  -1.500  0.00  0.00    +0.053 A 
ATOM     12  H   UNL     1       4.943  -3.750  -5.173  0.00  0.00    +0.169 HD
ENDROOT
BRANCH   7  13
ATOM     13  C   UNL     1       5.050  -1.766  -5.609  0.00  0.00    +0.042 A 
ATOM     14  C   UNL     1       4.309  -0.880  -6.394  0.00  0.00    +0.028 A 
ATOM     15  C   UNL     1       4.900   0.268  -6.880  0.00  0.00    +0.040 A 
ATOM     16  C   UNL     1       6.226   0.543  -6.589  0.00  0.00    +0.124 A 
ATOM     17  C   UNL     1       6.967  -0.332  -5.811  0.00  0.00    +0.040 A 
ATOM     18  C   UNL     1       6.385  -1.480  -5.315  0.00  0.00    +0.028 A 
ATOM     19  F   UNL     1       6.800   1.669  -7.067  0.00  0.00    -0.205 F 
ENDBRANCH   7  13
BRANCH   1  21
ATOM     20  C   UNL     1      -0.298   0.412   0.795  0.00  0.00    +0.015 C 
ATOM     21  C   UNL     1      -0.244  -1.071   0.423  0.00  0.00    -0.013 C 
ATOM     22  C   UNL     1       0.450  -1.853   1.540  0.00  0.00    +0.015 C 
ATOM     23  C   UNL     1      -1.667  -1.601   0.236  0.00  0.00    +0.015 C 
ENDBRANCH   1  21
BRANCH  10  24
ATOM     24  O   UNL     1       2.281   0.838  -3.293  0.00  0.00    -0.503 OA
ATOM     25  H   UNL     1       1.682   1.250  -3.930  0.00  0.00    +0.292 HD
ENDBRANCH  10  24
BRANCH   5  26
ATOM     26  C   UNL     1       2.840  -5.380  -4.839  0.00  0.00    +0.082 C 
ATOM     27  S   UNL     1       3.887  -5.449  -6.192  0.00  0.00    -0.035 S 
BRANCH  26  28
ATOM     28  N   UNL     1       2.270  -6.507  -4.370  0.00  0.00    -0.352 N 
ATOM     29  H   UNL     1       1.677  -6.468  -3.603  0.00  0.00    +0.143 HD
ATOM     30  H   UNL     1       2.454  -7.358  -4.798  0.00  0.00    +0.143 HD
ENDBRANCH  26  28
ENDBRANCH   5  26
TORSDOF 5
