REMARK  Name = ZINC64024066
REMARK  8 active torsions:
REMARK  status: ('A' for Active; 'I' for Inactive)
REMARK    1  A    between atoms: C_5  and  C_7
REMARK    2  A    between atoms: C_7  and  N_8
REMARK    3  A    between atoms: C_11  and  C_14
REMARK    4  A    between atoms: C_14  and  N_15
REMARK    5  A    between atoms: N_15  and  C_16
REMARK    6  A    between atoms: C_16  and  C_17
REMARK    7  A    between atoms: C_23  and  C_25
REMARK    8  A    between atoms: C_26  and  C_27
REMARK                            x       y       z     vdW  Elec       q    Type
REMARK                         _______ _______ _______ _____ _____    ______ ____
ROOT
ATOM      1  C   UNL     1       1.245  -4.704   5.095  0.00  0.00    +0.111 C 
ENDROOT
BRANCH   1   5
ATOM      2  N   UNL     1       1.488  -2.680   1.337  0.00  0.00    +0.382 N 
ATOM      3  C   UNL     1       0.374  -2.304   2.215  0.00  0.00    -0.078 C 
ATOM      4  C   UNL     1       0.677  -2.745   3.648  0.00  0.00    -0.014 C 
ATOM      5  C   UNL     1       0.863  -4.265   3.680  0.00  0.00    +0.003 C 
ATOM      6  C   UNL     1       1.978  -4.654   2.705  0.00  0.00    -0.014 C 
ATOM      7  C   UNL     1       1.627  -4.141   1.306  0.00  0.00    -0.078 C 
ATOM      8  H   UNL     1       2.342  -2.270   1.685  0.00  0.00    -0.081 HD
BRANCH   2   9
ATOM      9  C   UNL     1       1.228  -2.186  -0.022  0.00  0.00    -0.040 C 
BRANCH   9  14
ATOM     10  C   UNL     1      -0.017   1.378   0.010  0.00  0.00    +0.000 A 
ATOM     11  C   UNL     1       1.171   2.087   0.002  0.00  0.00    +0.003 A 
ATOM     12  C   UNL     1       2.377   1.414  -0.013  0.00  0.00    +0.038 A 
ATOM     13  C   UNL     1       2.397   0.029  -0.021  0.00  0.00    +0.125 A 
ATOM     14  C   UNL     1       1.208  -0.679  -0.013  0.00  0.00    -0.029 A 
ATOM     15  C   UNL     1       0.002  -0.004   0.002  0.00  0.00    +0.004 A 
ATOM     16  F   UNL     1       3.577  -0.630  -0.036  0.00  0.00    -0.205 F 
ENDBRANCH   9  14
ENDBRANCH   2   9
ENDBRANCH   1   5
BRANCH   1  17
ATOM     17  N   UNL     1       1.305  -6.167   5.152  0.00  0.00    -0.295 N 
ATOM     18  C   UNL     1       0.204  -6.875   5.473  0.00  0.00    +0.239 C 
ATOM     19  O   UNL     1      -0.840  -6.300   5.714  0.00  0.00    -0.271 OA
BRANCH  18  20
ATOM     20  C   UNL     1       0.265  -8.343   5.530  0.00  0.00    +0.065 C 
ATOM     21  C   UNL     1      -0.822  -9.042   5.846  0.00  0.00    +0.010 C 
BRANCH  21  22
ATOM     22  C   UNL     1      -0.759 -10.547   5.905  0.00  0.00    +0.171 C 
ATOM     23  C   UNL     1      -1.180 -11.046   7.274  0.00  0.00    +0.116 C 
ATOM     24  N   UNL     1      -0.144 -11.663   7.748  0.00  0.00    -0.246 NA
ATOM     25  C   UNL     1       0.898 -11.642   6.889  0.00  0.00    +0.216 C 
ATOM     26  N   UNL     1       0.633 -11.015   5.786  0.00  0.00    -0.259 NA
ENDBRANCH  21  22
ENDBRANCH  18  20
BRANCH  17  27
ATOM     27  C   UNL     1       2.563  -6.860   4.862  0.00  0.00    +0.139 C 
BRANCH  27  28
ATOM     28  C   UNL     1       3.361  -7.031   6.156  0.00  0.00    +0.136 C 
ATOM     29  C   UNL     1       4.712  -7.732   5.865  0.00  0.00    +0.035 C 
ATOM     30  C   UNL     1       5.567  -7.232   7.062  0.00  0.00    +0.031 C 
ATOM     31  C   UNL     1       5.019  -5.806   7.283  0.00  0.00    +0.160 C 
ATOM     32  O   UNL     1       3.711  -5.748   6.700  0.00  0.00    -0.375 OA
ENDBRANCH  27  28
ENDBRANCH  17  27
ENDBRANCH   1  17
TORSDOF 8
