REMARK  Name = ZINC40780349
REMARK  3 active torsions:
REMARK  status: ('A' for Active; 'I' for Inactive)
REMARK    1  A    between atoms: C_12  and  N_26
REMARK    2  A    between atoms: C_13  and  N_17
REMARK    3  A    between atoms: N_17  and  C_18
REMARK                            x       y       z     vdW  Elec       q    Type
REMARK                         _______ _______ _______ _____ _____    ______ ____
ROOT
ATOM      1  C   UNL     1       2.461  -1.817   3.131  0.00  0.00    +0.000 A 
ATOM      2  C   UNL     1       3.746  -1.395   2.839  0.00  0.00    +0.002 A 
ATOM      3  C   UNL     1       4.073  -1.027   1.550  0.00  0.00    +0.024 A 
ATOM      4  C   UNL     1       3.113  -1.082   0.545  0.00  0.00    +0.038 A 
ATOM      5  C   UNL     1       1.827  -1.508   0.838  0.00  0.00    -0.026 A 
ATOM      6  C   UNL     1       1.506  -1.873   2.134  0.00  0.00    +0.005 A 
ATOM      7  C   UNL     1       0.764  -1.590  -0.227  0.00  0.00    +0.038 C 
ATOM      8  C   UNL     1       1.129  -0.704  -1.417  0.00  0.00    +0.024 C 
ATOM      9  C   UNL     1       2.559  -1.036  -1.863  0.00  0.00    +0.113 C 
ATOM     10  N   UNL     1       3.464  -0.700  -0.755  0.00  0.00    -0.283 N 
ATOM     11  C   UNL     1       4.650  -0.014  -0.994  0.00  0.00    +0.151 A 
ATOM     12  C   UNL     1       4.664   1.381  -1.048  0.00  0.00    +0.104 A 
ATOM     13  C   UNL     1       5.881   2.019  -1.291  0.00  0.00    +0.126 A 
ATOM     14  N   UNL     1       6.975   1.279  -1.460  0.00  0.00    -0.333 N 
ATOM     15  C   UNL     1       6.918  -0.036  -1.401  0.00  0.00    +0.200 A 
ATOM     16  N   UNL     1       5.791  -0.677  -1.170  0.00  0.00    -0.220 NA
ATOM     17  H   UNL     1       7.825   1.714  -1.629  0.00  0.00    +0.168 HD
ENDROOT
BRANCH  12  18
ATOM     18  N   UNL     1       3.486   2.122  -0.864  0.00  0.00    -0.353 N 
ATOM     19  H   UNL     1       2.662   1.670  -0.620  0.00  0.00    +0.143 HD
ATOM     20  H   UNL     1       3.495   3.084  -0.980  0.00  0.00    +0.143 HD
ENDBRANCH  12  18
BRANCH  13  21
ATOM     21  N   UNL     1       5.951   3.406  -1.355  0.00  0.00    -0.299 N 
ATOM     22  H   UNL     1       5.171   3.942  -1.139  0.00  0.00    +0.154 HD
BRANCH  21  23
ATOM     23  C   UNL     1       7.145   4.030  -1.730  0.00  0.00    +0.035 A 
ATOM     24  C   UNL     1       7.916   3.496  -2.755  0.00  0.00    +0.026 A 
ATOM     25  C   UNL     1       9.095   4.113  -3.126  0.00  0.00    +0.043 A 
ATOM     26  C   UNL     1       9.510   5.263  -2.478  0.00  0.00    +0.159 A 
ATOM     27  C   UNL     1       8.743   5.799  -1.454  0.00  0.00    +0.160 A 
ATOM     28  C   UNL     1       7.559   5.187  -1.084  0.00  0.00    +0.064 A 
ATOM     29  F   UNL     1       9.149   6.922  -0.822  0.00  0.00    -0.202 F 
ATOM     30  F   UNL     1      10.663   5.865  -2.842  0.00  0.00    -0.202 F 
ENDBRANCH  21  23
ENDBRANCH  13  21
TORSDOF 3
