REMARK  Name = ZINC06808787
REMARK  7 active torsions:
REMARK  status: ('A' for Active; 'I' for Inactive)
REMARK    1  A    between atoms: C_1  and  C_2
REMARK    2  A    between atoms: C_6  and  C_7
REMARK    3  A    between atoms: C_9  and  C_22
REMARK    4  A    between atoms: C_12  and  C_14
REMARK    5  A    between atoms: C_17  and  O_20
REMARK    6  A    between atoms: O_20  and  C_21
REMARK    7  A    between atoms: C_27  and  O_28
REMARK                            x       y       z     vdW  Elec       q    Type
REMARK                         _______ _______ _______ _____ _____    ______ ____
ROOT
ATOM      1  C   UNL     1      -2.029   0.923   1.322  0.00  0.00    +0.088 C 
ATOM      2  C   UNL     1      -0.013   1.086   0.008  0.00  0.00    -0.028 C 
ATOM      3  C   UNL     1      -0.766   1.599  -1.223  0.00  0.00    +0.044 C 
ATOM      4  C   UNL     1      -2.238   1.341  -1.053  0.00  0.00    +0.040 C 
ATOM      5  N   UNL     1      -2.772   1.051   0.075  0.00  0.00    -0.298 NA
ATOM      6  N   UNL     1      -0.712   1.570   1.214  0.00  0.00    +0.402 N 
ATOM      7  H   UNL     1      -0.153   1.345   2.045  0.00  0.00    -0.081 HD
ATOM      8  H   UNL     1      -0.837   2.587   1.150  0.00  0.00    -0.081 HD
ENDROOT
BRANCH   2   9
ATOM      9  C   UNL     1       1.399   1.613  -0.003  0.00  0.00    -0.018 A 
ATOM     10  C   UNL     1       1.732   2.713   0.765  0.00  0.00    +0.025 A 
ATOM     11  C   UNL     1       3.028   3.195   0.759  0.00  0.00    +0.041 A 
ATOM     12  C   UNL     1       3.992   2.583  -0.023  0.00  0.00    +0.023 A 
ATOM     13  C   UNL     1       3.662   1.487  -0.796  0.00  0.00    +0.047 A 
ATOM     14  C   UNL     1       2.364   0.999  -0.787  0.00  0.00    +0.119 A 
ATOM     15 CL   UNL     1       3.445   4.574   1.728  0.00  0.00    -0.084 Cl
BRANCH  14  16
ATOM     16  O   UNL     1       2.037  -0.080  -1.547  0.00  0.00    -0.507 OA
ATOM     17  H   UNL     1       1.737   0.144  -2.439  0.00  0.00    +0.292 HD
ENDBRANCH  14  16
ENDBRANCH   2   9
BRANCH   1  23
ATOM     18  C   UNL     1      -3.900  -1.380   0.530  0.00  0.00    +0.044 C 
ATOM     19  C   UNL     1      -2.632  -1.590   1.317  0.00  0.00    -0.040 A 
ATOM     20  C   UNL     1      -2.256  -2.859   1.716  0.00  0.00    +0.011 A 
ATOM     21  C   UNL     1      -1.113  -3.012   2.429  0.00  0.00    +0.046 A 
ATOM     22  S   UNL     1      -0.524  -1.330   2.548  0.00  0.00    -0.101 S 
ATOM     23  C   UNL     1      -1.841  -0.537   1.641  0.00  0.00    -0.000 A 
ENDBRANCH   1  23
BRANCH   4  24
ATOM     24  C   UNL     1      -3.108   1.427  -2.240  0.00  0.00    -0.004 A 
ATOM     25  C   UNL     1      -2.563   1.748  -3.486  0.00  0.00    +0.013 A 
ATOM     26  C   UNL     1      -3.378   1.822  -4.594  0.00  0.00    +0.046 A 
ATOM     27  C   UNL     1      -4.743   1.589  -4.472  0.00  0.00    +0.120 A 
ATOM     28  C   UNL     1      -5.290   1.276  -3.233  0.00  0.00    +0.046 A 
ATOM     29  C   UNL     1      -4.481   1.194  -2.121  0.00  0.00    +0.013 A 
BRANCH  27  30
ATOM     30  O   UNL     1      -5.543   1.667  -5.565  0.00  0.00    -0.495 OA
ATOM     31  C   UNL     1      -4.916   1.993  -6.807  0.00  0.00    +0.277 C 
ENDBRANCH  27  30
ENDBRANCH   4  24
TORSDOF 5
