REMARK  Name = ZINC64058407
REMARK  7 active torsions:
REMARK  status: ('A' for Active; 'I' for Inactive)
REMARK    1  A    between atoms: C_1  and  N_2
REMARK    2  A    between atoms: N_2  and  C_3
REMARK    3  A    between atoms: N_2  and  C_4
REMARK    4  A    between atoms: C_4  and  C_5
REMARK    5  A    between atoms: C_5  and  C_6
REMARK    6  A    between atoms: C_9  and  C_13
REMARK    7  A    between atoms: C_16  and  C_18
REMARK                            x       y       z     vdW  Elec       q    Type
REMARK                         _______ _______ _______ _____ _____    ______ ____
ROOT
ATOM      1  C   UNL     1       0.669  -0.610   3.687  0.00  0.00    +0.148 C 
ATOM      2  N   UNL     1      -0.098  -0.292   4.922  0.00  0.00    -0.269 NA
ATOM      3  C   UNL     1       0.377  -1.327   5.876  0.00  0.00    +0.248 C 
ATOM      4  O   UNL     1       0.533  -2.517   5.082  0.00  0.00    -0.274 OA
ATOM      5  N   UNL     1       0.735  -2.091   3.686  0.00  0.00    -0.182 NA
ATOM      6  H   UNL     1       0.121   0.635   5.254  0.00  0.00    +0.126 HD
ATOM      7  H   UNL     1       1.622  -2.413   3.332  0.00  0.00    +0.156 HD
ENDROOT
BRANCH   3   8
ATOM      8  C   UNL     1      -0.645  -1.548   6.961  0.00  0.00    +0.035 A 
ATOM      9  C   UNL     1      -0.452  -1.923   8.253  0.00  0.00    +0.016 A 
ATOM     10  C   UNL     1      -1.542  -2.067   9.080  0.00  0.00    +0.019 A 
ATOM     11  C   UNL     1      -2.793  -1.827   8.569  0.00  0.00    +0.055 A 
ATOM     12  S   UNL     1      -2.420  -1.378   6.882  0.00  0.00    -0.086 S 
BRANCH  11  13
ATOM     13  C   UNL     1      -4.100  -1.910   9.240  0.00  0.00    +0.145 A 
ATOM     14  N   UNL     1      -4.302  -2.239  10.499  0.00  0.00    -0.236 NA
ATOM     15  C   UNL     1      -5.615  -2.210  10.758  0.00  0.00    +0.130 A 
ATOM     16  C   UNL     1      -6.264  -1.853   9.633  0.00  0.00    +0.104 A 
ATOM     17  N   UNL     1      -5.313  -1.655   8.665  0.00  0.00    -0.344 N 
ATOM     18  H   UNL     1      -5.471  -1.386   7.746  0.00  0.00    +0.167 HD
ENDBRANCH  11  13
ENDBRANCH   3   8
BRANCH   1  19
ATOM     19  C   UNL     1      -0.071  -0.103   2.448  0.00  0.00    +0.018 C 
BRANCH  19  20
ATOM     20  C   UNL     1       0.713  -0.491   1.192  0.00  0.00    -0.077 C 
BRANCH  20  22
ATOM     21  C   UNL     1      -0.018   1.465   0.010  0.00  0.00    -0.097 C 
ATOM     22  N   UNL     1       0.002  -0.004   0.002  0.00  0.00    +0.376 N 
ATOM     23  C   UNL     1       0.690  -0.478  -1.207  0.00  0.00    -0.097 C 
ATOM     24  H   UNL     1      -0.945  -0.353   0.009  0.00  0.00    -0.083 HD
ENDBRANCH  20  22
ENDBRANCH  19  20
ENDBRANCH   1  19
TORSDOF 5
