REMARK  Name = ZINC01167908
REMARK  5 active torsions:
REMARK  status: ('A' for Active; 'I' for Inactive)
REMARK    1  A    between atoms: C_1  and  C_2
REMARK    2  A    between atoms: C_9  and  N_28
REMARK    3  A    between atoms: C_10  and  C_13
REMARK    4  A    between atoms: N_17  and  C_21
REMARK    5  A    between atoms: C_21  and  C_22
REMARK                            x       y       z     vdW  Elec       q    Type
REMARK                         _______ _______ _______ _____ _____    ______ ____
ROOT
ATOM      1  C   UNL     1       0.064   1.355   0.582  0.00  0.00    +0.047 C 
ATOM      2  C   UNL     1       0.027  -0.138   0.382  0.00  0.00    -0.007 A 
ATOM      3  C   UNL     1       1.185  -0.857   0.365  0.00  0.00    +0.008 A 
ATOM      4  C   UNL     1       1.134  -2.245   0.179  0.00  0.00    +0.019 A 
ATOM      5  C   UNL     1      -0.057  -2.865   0.017  0.00  0.00    +0.096 A 
ATOM      6  N   UNL     1      -1.220  -2.154   0.031  0.00  0.00    -0.267 N 
ATOM      7  C   UNL     1      -1.203  -0.800   0.216  0.00  0.00    +0.145 A 
ATOM      8  N   UNL     1      -2.331  -0.089   0.239  0.00  0.00    -0.213 NA
ATOM      9  C   UNL     1      -3.517  -0.660   0.088  0.00  0.00    +0.136 A 
ATOM     10  C   UNL     1      -3.597  -2.060  -0.102  0.00  0.00    +0.081 A 
ATOM     11  C   UNL     1      -2.393  -2.804  -0.134  0.00  0.00    +0.267 A 
ATOM     12  O   UNL     1      -2.415  -4.012  -0.295  0.00  0.00    -0.267 OA
ENDROOT
BRANCH  10  13
ATOM     13  C   UNL     1      -4.848  -2.699  -0.265  0.00  0.00    +0.037 C 
ATOM     14  C   UNL     1      -5.691  -2.303  -1.263  0.00  0.00    +0.077 C 
ATOM     15  C   UNL     1      -7.021  -2.727  -1.547  0.00  0.00    +0.259 C 
ATOM     16  O   UNL     1      -7.572  -3.565  -0.855  0.00  0.00    -0.269 OA
ATOM     17  N   UNL     1      -7.640  -2.184  -2.580  0.00  0.00    -0.251 N 
ATOM     18  C   UNL     1      -7.025  -1.261  -3.353  0.00  0.00    +0.121 C 
ATOM     19  S   UNL     1      -7.627  -0.441  -4.730  0.00  0.00    -0.027 S 
ATOM     20  S   UNL     1      -5.425  -1.115  -2.572  0.00  0.00    -0.061 S 
BRANCH  17  21
ATOM     21  C   UNL     1      -9.011  -2.594  -2.898  0.00  0.00    +0.150 C 
BRANCH  21  22
ATOM     22  C   UNL     1      -8.978  -3.768  -3.842  0.00  0.00    -0.030 A 
ATOM     23  C   UNL     1      -8.977  -3.556  -5.208  0.00  0.00    +0.005 A 
ATOM     24  C   UNL     1      -8.942  -4.633  -6.075  0.00  0.00    +0.000 A 
ATOM     25  C   UNL     1      -8.918  -5.921  -5.575  0.00  0.00    +0.000 A 
ATOM     26  C   UNL     1      -8.924  -6.133  -4.210  0.00  0.00    +0.000 A 
ATOM     27  C   UNL     1      -8.954  -5.057  -3.343  0.00  0.00    +0.005 A 
ENDBRANCH  21  22
ENDBRANCH  17  21
ENDBRANCH  10  13
BRANCH   9  28
ATOM     28  N   UNL     1      -4.663   0.102   0.117  0.00  0.00    -0.315 N 
ATOM     29  C   UNL     1      -5.563  -0.330   1.217  0.00  0.00    +0.106 C 
ATOM     30  C   UNL     1      -6.477   0.903   1.432  0.00  0.00    +0.020 C 
ATOM     31  C   UNL     1      -5.510   2.091   1.223  0.00  0.00    +0.020 C 
ATOM     32  C   UNL     1      -4.349   1.522   0.387  0.00  0.00    +0.106 C 
ENDBRANCH   9  28
TORSDOF 4
