REMARK  Name = ZINC39914970
REMARK  17 active torsions:
REMARK  status: ('A' for Active; 'I' for Inactive)
REMARK    1  A    between atoms: C_1  and  C_2
REMARK    2  A    between atoms: C_2  and  O_3
REMARK    3  A    between atoms: O_3  and  C_4
REMARK    4  A    between atoms: C_7  and  C_13
REMARK    5  A    between atoms: C_9  and  O_10
REMARK    6  A    between atoms: O_10  and  C_11
REMARK    7  A    between atoms: C_11  and  C_12
REMARK    8  A    between atoms: C_16  and  C_31
REMARK    9  A    between atoms: N_23  and  C_24
REMARK   10  A    between atoms: C_24  and  C_25
REMARK   11  A    between atoms: C_25  and  C_26
REMARK   12  A    between atoms: C_26  and  O_27
REMARK   13  A    between atoms: O_27  and  C_28
REMARK   14  A    between atoms: C_28  and  C_29
REMARK   15  A    between atoms: C_28  and  C_30
REMARK   16  A    between atoms: C_34  and  C_38
REMARK   17  A    between atoms: C_36  and  O_37
REMARK                            x       y       z     vdW  Elec       q    Type
REMARK                         _______ _______ _______ _____ _____    ______ ____
ROOT
ATOM      1  C   UNL     1       1.462  -5.636  -1.269  0.00  0.00    +0.141 C 
ATOM      2  C   UNL     1       0.429  -6.576  -1.826  0.00  0.00    +0.035 A 
ATOM      3  C   UNL     1      -0.390  -6.923  -2.905  0.00  0.00    +0.102 A 
ATOM      4  N   UNL     1      -1.074  -7.994  -2.553  0.00  0.00    -0.173 NA
ATOM      5  N   UNL     1      -0.768  -8.358  -1.359  0.00  0.00    -0.272 N 
ATOM      6  H   UNL     1      -1.147  -9.120  -0.894  0.00  0.00    +0.189 HD
ATOM      7  C   UNL     1       0.171  -7.511  -0.842  0.00  0.00    +0.126 A 
ATOM      8  C   UNL     1       1.004  -7.201   0.326  0.00  0.00    +0.265 C 
ATOM      9  O   UNL     1       1.011  -7.838   1.362  0.00  0.00    -0.268 OA
ATOM     10  N   UNL     1       1.760  -6.113   0.088  0.00  0.00    -0.285 N 
ENDROOT
BRANCH   3  11
ATOM     11  C   UNL     1      -0.475  -6.215  -4.207  0.00  0.00    +0.045 A 
ATOM     12  C   UNL     1       0.399  -5.170  -4.492  0.00  0.00    +0.034 A 
ATOM     13  C   UNL     1       0.317  -4.514  -5.705  0.00  0.00    +0.045 A 
ATOM     14  C   UNL     1      -0.633  -4.893  -6.639  0.00  0.00    -0.029 A 
ATOM     15  C   UNL     1      -1.505  -5.930  -6.365  0.00  0.00    +0.050 A 
ATOM     16  C   UNL     1      -1.428  -6.599  -5.154  0.00  0.00    +0.126 A 
ATOM     17  C   UNL     1      -0.716  -4.173  -7.960  0.00  0.00    +0.045 C 
ATOM     18 CL   UNL     1       1.406  -3.210  -6.060  0.00  0.00    -0.083 Cl
BRANCH  16  19
ATOM     19  O   UNL     1      -2.281  -7.623  -4.886  0.00  0.00    -0.506 OA
ATOM     20  H   UNL     1      -3.105  -7.347  -4.460  0.00  0.00    +0.292 HD
ENDBRANCH  16  19
ENDBRANCH   3  11
BRANCH   1  24
ATOM     21  C   UNL     1      -0.093  -1.655  -1.126  0.00  0.00    +0.162 A 
ATOM     22  C   UNL     1       0.938  -1.968  -1.998  0.00  0.00    +0.050 A 
ATOM     23  C   UNL     1       1.439  -3.256  -2.041  0.00  0.00    +0.009 A 
ATOM     24  C   UNL     1       0.913  -4.233  -1.217  0.00  0.00    -0.019 A 
ATOM     25  C   UNL     1      -0.116  -3.928  -0.346  0.00  0.00    +0.055 A 
ATOM     26  C   UNL     1      -0.618  -2.637  -0.293  0.00  0.00    +0.162 A 
BRANCH  21  27
ATOM     27  O   UNL     1      -0.587  -0.388  -1.082  0.00  0.00    -0.489 OA
BRANCH  27  29
ATOM     28  C   UNL     1      -0.679   1.926  -1.774  0.00  0.00    +0.048 C 
ATOM     29  C   UNL     1       0.001   0.569  -1.966  0.00  0.00    +0.226 C 
ENDBRANCH  27  29
ENDBRANCH  21  27
BRANCH  26  30
ATOM     30  O   UNL     1      -1.627  -2.333   0.568  0.00  0.00    -0.489 OA
BRANCH  30  31
ATOM     31  C   UNL     1      -2.058  -3.369   1.453  0.00  0.00    +0.226 C 
ATOM     32  C   UNL     1      -3.129  -2.819   2.398  0.00  0.00    +0.048 C 
ENDBRANCH  30  31
ENDBRANCH  26  30
ENDBRANCH   1  24
BRANCH  10  33
ATOM     33  C   UNL     1       2.714  -5.508   1.020  0.00  0.00    +0.111 C 
BRANCH  33  34
ATOM     34  C   UNL     1       1.999  -4.455   1.870  0.00  0.00    +0.047 C 
BRANCH  34  35
ATOM     35  C   UNL     1       2.995  -3.823   2.844  0.00  0.00    +0.161 C 
BRANCH  35  36
ATOM     36  O   UNL     1       2.328  -2.841   3.638  0.00  0.00    -0.377 OA
BRANCH  36  37
ATOM     37  C   UNL     1       3.174  -2.186   4.586  0.00  0.00    +0.112 C 
ATOM     38  C   UNL     1       2.667  -0.763   4.825  0.00  0.00    +0.037 C 
ATOM     39  C   UNL     1       3.156  -2.962   5.905  0.00  0.00    +0.037 C 
ENDBRANCH  36  37
ENDBRANCH  35  36
ENDBRANCH  34  35
ENDBRANCH  33  34
ENDBRANCH  10  33
TORSDOF 12
