REMARK  Name = ZINC20606987
REMARK  5 active torsions:
REMARK  status: ('A' for Active; 'I' for Inactive)
REMARK    1  A    between atoms: C_1  and  C_2
REMARK    2  A    between atoms: C_4  and  C_21
REMARK    3  A    between atoms: N_6  and  C_7
REMARK    4  A    between atoms: C_7  and  C_8
REMARK    5  A    between atoms: C_11  and  C_16
REMARK                            x       y       z     vdW  Elec       q    Type
REMARK                         _______ _______ _______ _____ _____    ______ ____
ROOT
ATOM      1  C   UNL     1       4.484   5.759   0.833  0.00  0.00    +0.124 A 
ATOM      2  N   UNL     1       3.445   5.002   0.644  0.00  0.00    -0.158 NA
ATOM      3  N   UNL     1       2.211   5.538   0.300  0.00  0.00    -0.185 N 
ATOM      4  C   UNL     1       0.914   5.126   0.021  0.00  0.00    +0.192 A 
ATOM      5  N   UNL     1       0.203   6.199  -0.247  0.00  0.00    -0.126 NA
ATOM      6  N   UNL     1       0.941   7.250  -0.150  0.00  0.00    -0.120 NA
ATOM      7  C   UNL     1       2.152   6.905   0.172  0.00  0.00    +0.218 A 
ATOM      8  S   UNL     1       3.821   7.390   0.536  0.00  0.00    -0.029 S 
ENDROOT
BRANCH   4   9
ATOM      9  C   UNL     1       0.426   3.737   0.018  0.00  0.00    +0.058 A 
ATOM     10  C   UNL     1      -0.866   3.275   0.028  0.00  0.00    +0.019 A 
ATOM     11  C   UNL     1      -1.080   1.915   0.017  0.00  0.00    +0.008 A 
ATOM     12  C   UNL     1      -0.013   1.076   0.008  0.00  0.00    +0.046 A 
ATOM     13  S   UNL     1       1.361   2.216   0.001  0.00  0.00    -0.093 S 
ENDBRANCH   4   9
BRANCH   1  14
ATOM     14  C   UNL     1       5.889   5.362   1.206  0.00  0.00    +0.208 C 
BRANCH  14  20
ATOM     15  C   UNL     1       6.160   2.635  -0.245  0.00  0.00    +0.066 C 
ATOM     16  C   UNL     1       6.795   3.940  -0.652  0.00  0.00    +0.051 A 
ATOM     17  C   UNL     1       7.592   4.138  -1.728  0.00  0.00    +0.067 A 
ATOM     18  C   UNL     1       7.972   5.485  -1.739  0.00  0.00    +0.142 A 
ATOM     19  N   UNL     1       7.419   6.074  -0.710  0.00  0.00    -0.169 NA
ATOM     20  N   UNL     1       6.668   5.121  -0.010  0.00  0.00    -0.261 N 
ATOM     21 BR   UNL     1       8.106   2.826  -2.989  0.00  0.00    -0.046 Br
BRANCH  18  22
ATOM     22  C   UNL     1       8.865   6.142  -2.760  0.00  0.00    +0.392 C 
ATOM     23  F   UNL     1       9.562   7.196  -2.159  0.00  0.00    -0.202 F 
ATOM     24  F   UNL     1       9.775   5.203  -3.256  0.00  0.00    -0.202 F 
ENDBRANCH  18  22
ENDBRANCH  14  20
ENDBRANCH   1  14
TORSDOF 4
