REMARK  Name = ZINC64139139
REMARK  6 active torsions:
REMARK  status: ('A' for Active; 'I' for Inactive)
REMARK    1  A    between atoms: C_7  and  C_10
REMARK    2  A    between atoms: C_10  and  C_12
REMARK    3  A    between atoms: C_10  and  C_28
REMARK    4  A    between atoms: C_12  and  N_13
REMARK    5  A    between atoms: C_14  and  C_16
REMARK    6  A    between atoms: C_19  and  C_23
REMARK                            x       y       z     vdW  Elec       q    Type
REMARK                         _______ _______ _______ _____ _____    ______ ____
ROOT
ATOM      1  C   UNL     1       0.647  -3.780   1.506  0.00  0.00    +0.117 C 
ENDROOT
BRANCH   1   2
ATOM      2  N   UNL     1      -0.178  -4.989   1.424  0.00  0.00    -0.311 N 
ATOM      3  C   UNL     1      -0.175  -5.876   2.439  0.00  0.00    +0.238 C 
ATOM      4  O   UNL     1       0.513  -5.673   3.423  0.00  0.00    -0.271 OA
ATOM      5  H   UNL     1      -0.726  -5.150   0.640  0.00  0.00    +0.149 HD
BRANCH   3   6
ATOM      6  C   UNL     1      -0.971  -7.042   2.360  0.00  0.00    +0.086 C 
ATOM      7  C   UNL     1      -0.880  -7.987   3.319  0.00  0.00    +0.020 C 
ATOM      8  N   UNL     1       0.041  -7.928   4.303  0.00  0.00    -0.331 N 
ATOM      9  C   UNL     1      -0.221  -8.658   5.558  0.00  0.00    +0.160 C 
ATOM     10  S   UNL     1      -1.805  -9.521   5.181  0.00  0.00    -0.128 S 
ATOM     11  C   UNL     1      -1.815  -9.189   3.369  0.00  0.00    +0.121 C 
ATOM     12  H   UNL     1       0.858  -7.418   4.188  0.00  0.00    +0.147 HD
BRANCH   9  13
ATOM     13  C   UNL     1      -0.387  -7.702   6.710  0.00  0.00    -0.010 A 
ATOM     14  C   UNL     1      -0.027  -8.078   7.991  0.00  0.00    +0.014 A 
ATOM     15  C   UNL     1      -0.189  -7.193   9.005  0.00  0.00    +0.045 A 
ATOM     16  S   UNL     1      -0.869  -5.778   8.156  0.00  0.00    -0.105 S 
ATOM     17  C   UNL     1      -0.886  -6.458   6.506  0.00  0.00    +0.051 A 
ENDBRANCH   9  13
ENDBRANCH   3   6
ENDBRANCH   1   2
BRANCH   1  18
ATOM     18  C   UNL     1       0.462  -2.950   0.234  0.00  0.00    +0.071 C 
BRANCH  18  25
ATOM     19  C   UNL     1      -0.888   1.434   0.129  0.00  0.00    +0.001 A 
ATOM     20  C   UNL     1       0.160   2.349   0.298  0.00  0.00    +0.002 A 
ATOM     21  C   UNL     1       1.442   1.965   0.476  0.00  0.00    +0.026 A 
ATOM     22  C   UNL     1       1.782   0.584   0.497  0.00  0.00    +0.043 A 
ATOM     23  N   UNL     1       2.930  -0.030   0.649  0.00  0.00    -0.380 N 
ATOM     24  C   UNL     1       2.699  -1.477   0.586  0.00  0.00    +0.145 C 
ATOM     25  C   UNL     1       1.212  -1.650   0.369  0.00  0.00    -0.032 C 
ATOM     26  C   UNL     1       0.693  -0.402   0.320  0.00  0.00    -0.000 A 
ATOM     27  C   UNL     1      -0.674   0.099   0.134  0.00  0.00    +0.010 A 
ATOM     28  H   UNL     1       3.789   0.401   0.781  0.00  0.00    +0.160 HD
ENDBRANCH  18  25
BRANCH  18  29
ATOM     29  C   UNL     1       0.994  -3.717  -0.949  0.00  0.00    -0.002 A 
ATOM     30  C   UNL     1       0.343  -4.125  -2.065  0.00  0.00    +0.012 A 
ATOM     31  C   UNL     1       1.042  -4.823  -3.032  0.00  0.00    +0.008 A 
ATOM     32  C   UNL     1       2.358  -5.080  -2.835  0.00  0.00    +0.045 A 
ATOM     33  S   UNL     1       2.649  -4.318  -1.246  0.00  0.00    -0.101 S 
ENDBRANCH  18  29
ENDBRANCH   1  18
TORSDOF 6
