REMARK  Name = ZINC10401653
REMARK  8 active torsions:
REMARK  status: ('A' for Active; 'I' for Inactive)
REMARK    1  A    between atoms: C_1  and  C_2
REMARK    2  A    between atoms: C_7  and  O_8
REMARK    3  A    between atoms: O_8  and  C_9
REMARK    4  A    between atoms: C_9  and  C_10
REMARK    5  A    between atoms: N_12  and  N_13
REMARK    6  A    between atoms: C_14  and  C_16
REMARK    7  A    between atoms: C_17  and  C_18
REMARK    8  A    between atoms: C_22  and  N_24
REMARK                            x       y       z     vdW  Elec       q    Type
REMARK                         _______ _______ _______ _____ _____    ______ ____
ROOT
ATOM      1  C   UNL     1      -3.638  10.156   0.089  0.00  0.00    +0.267 C 
ATOM      2  O   UNL     1      -4.680   9.536   0.095  0.00  0.00    -0.271 OA
ATOM      3  N   UNL     1      -2.462   9.498   0.075  0.00  0.00    -0.231 N 
ATOM      4  H   UNL     1      -1.628   9.995   0.070  0.00  0.00    +0.173 HD
ENDROOT
BRANCH   3   5
ATOM      5  N   UNL     1      -2.443   8.098   0.067  0.00  0.00    -0.231 N 
ATOM      6  C   UNL     1      -1.266   7.440   0.053  0.00  0.00    +0.253 C 
ATOM      7  O   UNL     1      -0.221   8.062   0.046  0.00  0.00    -0.269 OA
ATOM      8  H   UNL     1      -3.276   7.601   0.072  0.00  0.00    +0.173 HD
BRANCH   6   9
ATOM      9  C   UNL     1      -1.247   5.976   0.045  0.00  0.00    +0.069 C 
ATOM     10  C   UNL     1      -0.070   5.317   0.030  0.00  0.00    +0.013 C 
BRANCH  10  11
ATOM     11  C   UNL     1      -0.050   3.846   0.022  0.00  0.00    -0.023 A 
ATOM     12  C   UNL     1      -1.250   3.126   0.030  0.00  0.00    +0.008 A 
ATOM     13  C   UNL     1      -1.223   1.748   0.017  0.00  0.00    +0.003 A 
ATOM     14  C   UNL     1      -0.013   1.076   0.008  0.00  0.00    +0.033 A 
ATOM     15  C   UNL     1       1.178   1.780   0.000  0.00  0.00    +0.127 A 
ATOM     16  C   UNL     1       1.168   3.159   0.007  0.00  0.00    +0.040 A 
BRANCH  15  17
ATOM     17  N   UNL     1       2.467   1.052  -0.015  0.00  0.00    +0.056 N 
ATOM     18  O   UNL     1       2.478  -0.166  -0.021  0.00  0.00    -0.126 OA
ATOM     19  O   UNL     1       3.516   1.671  -0.022  0.00  0.00    -0.126 OA
ENDBRANCH  15  17
ENDBRANCH  10  11
ENDBRANCH   6   9
ENDBRANCH   3   5
BRANCH   1  20
ATOM     20  C   UNL     1      -3.658  11.663   0.097  0.00  0.00    +0.326 C 
BRANCH  20  21
ATOM     21  O   UNL     1      -5.012  12.121   0.112  0.00  0.00    -0.481 OA
BRANCH  21  28
ATOM     22  C   UNL     1      -5.222  13.423  -2.385  0.00  0.00    +0.047 C 
ATOM     23  C   UNL     1      -5.319  14.160  -1.074  0.00  0.00    -0.007 A 
ATOM     24  C   UNL     1      -5.520  15.527  -1.063  0.00  0.00    +0.022 A 
ATOM     25  C   UNL     1      -5.609  16.204   0.140  0.00  0.00    +0.019 A 
ATOM     26  C   UNL     1      -5.499  15.515   1.334  0.00  0.00    +0.034 A 
ATOM     27  C   UNL     1      -5.303  14.147   1.327  0.00  0.00    +0.061 A 
ATOM     28  C   UNL     1      -5.208  13.466   0.121  0.00  0.00    +0.138 A 
ATOM     29 BR   UNL     1      -5.159  13.204   2.960  0.00  0.00    -0.046 Br
ATOM     30 BR   UNL     1      -5.883  18.075   0.151  0.00  0.00    -0.050 Br
ENDBRANCH  21  28
ENDBRANCH  20  21
ENDBRANCH   1  20
TORSDOF 7
