REMARK  Name = ZINC35461409
REMARK  9 active torsions:
REMARK  status: ('A' for Active; 'I' for Inactive)
REMARK    1  A    between atoms: C_1  and  C_2
REMARK    2  A    between atoms: C_5  and  S_8
REMARK    3  A    between atoms: S_8  and  C_9
REMARK    4  A    between atoms: C_18  and  C_21
REMARK    5  A    between atoms: N_23  and  C_24
REMARK    6  A    between atoms: C_24  and  C_25
REMARK    7  A    between atoms: C_25  and  C_26
REMARK    8  A    between atoms: C_26  and  N_27
REMARK    9  A    between atoms: C_32  and  C_34
REMARK                            x       y       z     vdW  Elec       q    Type
REMARK                         _______ _______ _______ _____ _____    ______ ____
ROOT
ATOM      1  C   UNL     1       1.325  -5.966   2.728  0.00  0.00    +0.141 A 
ATOM      2  C   UNL     1       0.123  -6.524   2.268  0.00  0.00    +0.154 A 
ATOM      3  N   UNL     1      -1.030  -6.080   2.742  0.00  0.00    -0.236 NA
ATOM      4  C   UNL     1      -1.046  -5.114   3.648  0.00  0.00    +0.132 A 
ATOM      5  C   UNL     1       0.135  -4.565   4.101  0.00  0.00    +0.132 A 
ATOM      6  N   UNL     1       1.296  -5.004   3.638  0.00  0.00    -0.243 NA
ATOM      7  N   UNL     1       0.143  -7.538   1.316  0.00  0.00    -0.313 N 
ATOM      8  C   UNL     1       0.117  -7.220  -0.118  0.00  0.00    +0.107 C 
ATOM      9  C   UNL     1      -1.035  -7.990  -0.772  0.00  0.00    +0.031 C 
ATOM     10  C   UNL     1      -0.888  -9.481  -0.462  0.00  0.00    +0.078 C 
ATOM     11  C   UNL     1      -0.961  -9.698   1.051  0.00  0.00    +0.031 C 
ATOM     12  C   UNL     1       0.198  -8.948   1.726  0.00  0.00    +0.107 C 
ENDROOT
BRANCH  10  13
ATOM     13  C   UNL     1      -2.001 -10.245  -1.133  0.00  0.00    +0.216 C 
ATOM     14  O   UNL     1      -2.829  -9.655  -1.794  0.00  0.00    -0.276 OA
ATOM     15  N   UNL     1      -2.075 -11.584  -0.998  0.00  0.00    -0.315 N 
ATOM     16  H   UNL     1      -1.413 -12.056  -0.470  0.00  0.00    +0.149 HD
BRANCH  15  17
ATOM     17  C   UNL     1      -3.157 -12.327  -1.650  0.00  0.00    +0.102 C 
BRANCH  17  18
ATOM     18  C   UNL     1      -3.010 -13.818  -1.340  0.00  0.00    +0.000 C 
BRANCH  18  19
ATOM     19  C   UNL     1      -4.139 -14.594  -2.021  0.00  0.00    -0.077 C 
BRANCH  19  20
ATOM     20  N   UNL     1      -3.999 -16.026  -1.723  0.00  0.00    +0.381 N 
ATOM     21  C   UNL     1      -4.179 -16.244  -0.283  0.00  0.00    -0.078 C 
ATOM     22  C   UNL     1      -3.954 -17.722   0.045  0.00  0.00    -0.019 C 
ATOM     23  C   UNL     1      -4.963 -18.571  -0.733  0.00  0.00    -0.003 C 
ATOM     24  C   UNL     1      -4.816 -18.279  -2.229  0.00  0.00    -0.016 C 
ATOM     25  C   UNL     1      -5.010 -16.781  -2.472  0.00  0.00    -0.072 C 
ATOM     26  C   UNL     1      -4.864 -16.485  -3.966  0.00  0.00    -0.013 C 
ATOM     27  H   UNL     1      -3.078 -16.336  -1.996  0.00  0.00    -0.081 HD
ENDBRANCH  19  20
ENDBRANCH  18  19
ENDBRANCH  17  18
ENDBRANCH  15  17
ENDBRANCH  10  13
BRANCH   1  28
ATOM     28  S   UNL     1       2.866  -6.548   2.105  0.00  0.00    -0.067 S 
BRANCH  28  33
ATOM     29  C   UNL     1       6.948  -2.926   4.684  0.00  0.00    +0.044 C 
ATOM     30  C   UNL     1       5.929  -3.830   4.040  0.00  0.00    -0.050 A 
ATOM     31  C   UNL     1       5.492  -4.961   4.705  0.00  0.00    +0.004 A 
ATOM     32  C   UNL     1       4.559  -5.792   4.118  0.00  0.00    +0.015 A 
ATOM     33  C   UNL     1       4.057  -5.490   2.858  0.00  0.00    +0.014 A 
ATOM     34  C   UNL     1       4.498  -4.353   2.192  0.00  0.00    +0.015 A 
ATOM     35  C   UNL     1       5.428  -3.524   2.787  0.00  0.00    +0.004 A 
ENDBRANCH  28  33
ENDBRANCH   1  28
TORSDOF 7
