REMARK  Name = ZINC30534039
REMARK  12 active torsions:
REMARK  status: ('A' for Active; 'I' for Inactive)
REMARK    1  A    between atoms: C_1  and  C_2
REMARK    2  A    between atoms: C_5  and  C_32
REMARK    3  A    between atoms: C_6  and  O_9
REMARK    4  A    between atoms: C_7  and  C_8
REMARK    5  A    between atoms: O_9  and  C_10
REMARK    6  A    between atoms: C_10  and  C_11
REMARK    7  A    between atoms: C_11  and  C_13
REMARK    8  A    between atoms: C_11  and  O_31
REMARK    9  A    between atoms: C_13  and  N_14
REMARK   10  A    between atoms: C_17  and  N_20
REMARK   11  A    between atoms: N_20  and  S_21
REMARK   12  A    between atoms: S_21  and  C_24
REMARK                            x       y       z     vdW  Elec       q    Type
REMARK                         _______ _______ _______ _____ _____    ______ ____
ROOT
ATOM      1  N   UNL     1      -5.284  -1.298  -2.954  0.00  0.00    +0.382 N 
ATOM      2  C   UNL     1      -4.508  -0.674  -4.032  0.00  0.00    -0.077 C 
ATOM      3  C   UNL     1      -5.353  -0.621  -5.307  0.00  0.00    +0.002 C 
ATOM      4  C   UNL     1      -5.759  -2.044  -5.703  0.00  0.00    +0.073 C 
ATOM      5  C   UNL     1      -6.524  -2.689  -4.544  0.00  0.00    +0.002 C 
ATOM      6  C   UNL     1      -5.645  -2.681  -3.291  0.00  0.00    -0.077 C 
ATOM      7  H   UNL     1      -6.217  -0.727  -2.838  0.00  0.00    -0.082 HD
ENDROOT
BRANCH   4   8
ATOM      8  N   UNL     1      -6.617  -1.996  -6.889  0.00  0.00    -0.187 NA
ATOM      9  H   UNL     1      -7.711  -1.991  -6.777  0.00  0.00    +0.148 HD
BRANCH   8  10
ATOM     10  S   UNL     1      -5.959  -2.197  -8.395  0.00  0.00    +0.059 S 
ATOM     11  O   UNL     1      -7.035  -2.126  -9.321  0.00  0.00    -0.153 OA
ATOM     12  O   UNL     1      -4.834  -1.331  -8.466  0.00  0.00    -0.153 OA
BRANCH  10  13
ATOM     13  C   UNL     1      -5.334  -3.842  -8.475  0.00  0.00    +0.105 A 
ATOM     14  C   UNL     1      -4.029  -4.105  -8.101  0.00  0.00    +0.031 A 
ATOM     15  C   UNL     1      -3.539  -5.396  -8.158  0.00  0.00    +0.040 A 
ATOM     16  C   UNL     1      -4.353  -6.425  -8.601  0.00  0.00    +0.124 A 
ATOM     17  C   UNL     1      -5.658  -6.160  -8.981  0.00  0.00    +0.040 A 
ATOM     18  C   UNL     1      -6.147  -4.870  -8.917  0.00  0.00    +0.031 A 
ATOM     19  F   UNL     1      -3.873  -7.687  -8.662  0.00  0.00    -0.205 F 
ENDBRANCH  10  13
ENDBRANCH   8  10
ENDBRANCH   4   8
BRANCH   1  20
ATOM     20  C   UNL     1      -4.556  -1.240  -1.679  0.00  0.00    -0.044 C 
BRANCH  20  21
ATOM     21  C   UNL     1      -4.114   0.199  -1.409  0.00  0.00    +0.135 C 
BRANCH  21  22
ATOM     22  O   UNL     1      -5.262   1.050  -1.367  0.00  0.00    -0.390 OA
ATOM     23  H   UNL     1      -5.917   1.133  -2.248  0.00  0.00    +0.210 HD
ENDBRANCH  21  22
BRANCH  21  24
ATOM     24  C   UNL     1      -3.382   0.265  -0.067  0.00  0.00    +0.258 C 
BRANCH  24  25
ATOM     25  O   UNL     1      -2.869   1.584   0.132  0.00  0.00    -0.489 OA
BRANCH  25  31
ATOM     26  C   UNL     1       1.369   1.641   2.552  0.00  0.00    +0.044 C 
ATOM     27  C   UNL     1      -0.122   1.853   2.502  0.00  0.00    -0.044 A 
ATOM     28  C   UNL     1      -0.797   2.285   3.629  0.00  0.00    +0.004 A 
ATOM     29  C   UNL     1      -2.165   2.479   3.587  0.00  0.00    +0.007 A 
ATOM     30  C   UNL     1      -2.862   2.242   2.418  0.00  0.00    -0.009 A 
ATOM     31  C   UNL     1      -2.187   1.813   1.284  0.00  0.00    +0.127 A 
ATOM     32  C   UNL     1      -0.814   1.613   1.331  0.00  0.00    -0.006 A 
ATOM     33  C   UNL     1      -0.079   1.142   0.103  0.00  0.00    +0.048 C 
ATOM     34  C   UNL     1      -4.353   2.454   2.372  0.00  0.00    +0.047 C 
ENDBRANCH  25  31
ENDBRANCH  24  25
ENDBRANCH  21  24
ENDBRANCH  20  21
ENDBRANCH   1  20
TORSDOF 9
