REMARK  Name = ZINC63204335
REMARK  12 active torsions:
REMARK  status: ('A' for Active; 'I' for Inactive)
REMARK    1  A    between atoms: C_1  and  C_2
REMARK    2  A    between atoms: C_5  and  C_13
REMARK    3  A    between atoms: C_6  and  C_12
REMARK    4  A    between atoms: N_7  and  C_8
REMARK    5  A    between atoms: C_8  and  C_9
REMARK    6  A    between atoms: C_9  and  O_10
REMARK    7  A    between atoms: O_10  and  C_11
REMARK    8  A    between atoms: C_13  and  C_15
REMARK    9  A    between atoms: C_15  and  S_16
REMARK   10  A    between atoms: S_16  and  C_17
REMARK   11  A    between atoms: C_20  and  C_25
REMARK   12  A    between atoms: N_21  and  C_22
REMARK                            x       y       z     vdW  Elec       q    Type
REMARK                         _______ _______ _______ _____ _____    ______ ____
ROOT
ATOM      1  C   UNL     1       4.639  -3.199  -4.611  0.00  0.00    +0.193 A 
ATOM      2  N   UNL     1       3.698  -2.731  -5.418  0.00  0.00    -0.122 NA
ATOM      3  N   UNL     1       3.943  -3.078  -6.631  0.00  0.00    -0.129 NA
ATOM      4  C   UNL     1       5.059  -3.792  -6.676  0.00  0.00    +0.163 A 
ATOM      5  N   UNL     1       5.533  -3.880  -5.379  0.00  0.00    -0.299 N 
ENDROOT
BRANCH   4   6
ATOM      6  C   UNL     1       5.649  -4.349  -7.822  0.00  0.00    +0.025 C 
ATOM      7  C   UNL     1       5.189  -4.260  -9.135  0.00  0.00    +0.006 A 
ATOM      8  C   UNL     1       4.065  -3.630  -9.711  0.00  0.00    +0.010 A 
ATOM      9  C   UNL     1       3.861  -3.708 -11.051  0.00  0.00    +0.001 A 
ATOM     10  C   UNL     1       4.741  -4.402 -11.885  0.00  0.00    +0.002 A 
ATOM     11  C   UNL     1       5.840  -5.031 -11.400  0.00  0.00    +0.026 A 
ATOM     12  C   UNL     1       6.120  -4.992 -10.010  0.00  0.00    +0.043 A 
ATOM     13  N   UNL     1       7.104  -5.511  -9.303  0.00  0.00    -0.380 N 
ATOM     14  C   UNL     1       6.921  -5.165  -7.890  0.00  0.00    +0.152 C 
ATOM     15  H   UNL     1       7.837  -6.036  -9.662  0.00  0.00    +0.160 HD
ENDBRANCH   4   6
BRANCH   5  16
ATOM     16  C   UNL     1       6.745  -4.568  -4.926  0.00  0.00    +0.091 C 
ATOM     17  C   UNL     1       6.866  -4.874  -3.432  0.00  0.00    +0.027 C 
ATOM     18  C   UNL     1       7.725  -3.774  -4.060  0.00  0.00    +0.027 C 
ENDBRANCH   5  16
BRANCH   1  19
ATOM     19  S   UNL     1       4.723  -2.974  -2.866  0.00  0.00    -0.078 S 
BRANCH  19  20
ATOM     20  C   UNL     1       3.248  -1.990  -2.479  0.00  0.00    +0.156 C 
BRANCH  20  21
ATOM     21  C   UNL     1       3.197  -1.722  -0.997  0.00  0.00    +0.171 C 
ATOM     22  O   UNL     1       4.071  -2.154  -0.271  0.00  0.00    -0.291 OA
BRANCH  21  26
ATOM     23  C   UNL     1       0.164   1.895  -0.325  0.00  0.00    +0.028 C 
ATOM     24  C   UNL     1       0.177   0.374  -0.157  0.00  0.00    +0.075 C 
ATOM     25  C   UNL     1       1.052  -0.280  -1.244  0.00  0.00    +0.062 C 
ATOM     26  C   UNL     1       2.142  -0.975  -0.456  0.00  0.00    +0.014 C 
ATOM     27  C   UNL     1       1.923  -0.754   0.857  0.00  0.00    +0.010 C 
ATOM     28  N   UNL     1       0.826   0.003   1.107  0.00  0.00    -0.328 N 
ATOM     29  C   UNL     1       2.814  -1.297   1.944  0.00  0.00    +0.061 C 
BRANCH  28  30
ATOM     30  C   UNL     1       0.357   0.394   2.439  0.00  0.00    +0.133 C 
BRANCH  30  31
ATOM     31  C   UNL     1      -0.615  -0.662   2.968  0.00  0.00    +0.178 C 
BRANCH  31  32
ATOM     32  O   UNL     1       0.080  -1.896   3.159  0.00  0.00    -0.381 OA
ATOM     33  C   UNL     1      -0.743  -2.955   3.654  0.00  0.00    +0.194 C 
ENDBRANCH  31  32
ENDBRANCH  30  31
ENDBRANCH  28  30
ENDBRANCH  21  26
ENDBRANCH  20  21
ENDBRANCH  19  20
ENDBRANCH   1  19
TORSDOF 9
