REMARK  Name = ZINC35851935
REMARK  5 active torsions:
REMARK  status: ('A' for Active; 'I' for Inactive)
REMARK    1  A    between atoms: C_1  and  C_2
REMARK    2  A    between atoms: C_2  and  C_3
REMARK    3  A    between atoms: N_25  and  C_28
REMARK    4  A    between atoms: C_32  and  C_35
REMARK    5  A    between atoms: C_33  and  C_34
REMARK                            x       y       z     vdW  Elec       q    Type
REMARK                         _______ _______ _______ _____ _____    ______ ____
ROOT
ATOM      1  C   UNL     1       0.667  -0.140  -1.403  0.00  0.00    -0.026 A 
ATOM      2  C   UNL     1      -0.047  -0.552  -2.510  0.00  0.00    +0.005 A 
ATOM      3  C   UNL     1       0.604  -1.127  -3.586  0.00  0.00    +0.001 A 
ATOM      4  C   UNL     1       1.978  -1.290  -3.552  0.00  0.00    +0.004 A 
ATOM      5  C   UNL     1       2.694  -0.881  -2.450  0.00  0.00    -0.027 A 
ATOM      6  C   UNL     1       2.050  -0.295  -1.364  0.00  0.00    +0.039 A 
ATOM      7  N   UNL     1       2.978   0.041  -0.376  0.00  0.00    -0.286 N 
ATOM      8  C   UNL     1       4.237  -0.281  -0.730  0.00  0.00    +0.212 C 
ATOM      9  O   UNL     1       5.241  -0.108  -0.072  0.00  0.00    -0.277 OA
ATOM     10  C   UNL     1       4.154  -0.911  -2.095  0.00  0.00    +0.053 C 
ATOM     11  C   UNL     1       4.994  -0.122  -3.106  0.00  0.00    +0.089 C 
ATOM     12  C   UNL     1       5.589  -1.201  -4.052  0.00  0.00    +0.074 C 
ATOM     13  C   UNL     1       5.037  -2.541  -3.534  0.00  0.00    -0.054 C 
ATOM     14  N   UNL     1       4.682  -2.285  -2.099  0.00  0.00    +0.395 N 
ATOM     15  C   UNL     1       5.971  -2.315  -1.369  0.00  0.00    -0.076 C 
ATOM     16  C   UNL     1       6.793  -3.430  -2.046  0.00  0.00    -0.020 C 
ATOM     17  C   UNL     1       6.176  -3.577  -3.492  0.00  0.00    -0.016 C 
ATOM     18  C   UNL     1       7.075  -1.117  -3.787  0.00  0.00    +0.228 C 
ATOM     19  O   UNL     1       7.922  -1.799  -4.322  0.00  0.00    -0.275 OA
ATOM     20  N   UNL     1       7.310  -0.172  -2.869  0.00  0.00    -0.210 N 
ATOM     21  C   UNL     1       6.205   0.464  -2.416  0.00  0.00    +0.229 C 
ATOM     22  O   UNL     1       6.181   1.354  -1.593  0.00  0.00    -0.275 OA
ATOM     23  H   UNL     1       2.744   0.459   0.468  0.00  0.00    +0.155 HD
ATOM     24  H   UNL     1       4.015  -2.955  -1.745  0.00  0.00    -0.079 HD
ENDROOT
BRANCH  20  25
ATOM     25  C   UNL     1       8.599   0.141  -2.415  0.00  0.00    +0.047 A 
ATOM     26  C   UNL     1       9.140  -0.541  -1.334  0.00  0.00    +0.024 A 
ATOM     27  C   UNL     1      10.411  -0.230  -0.889  0.00  0.00    +0.002 A 
ATOM     28  C   UNL     1      11.143   0.758  -1.520  0.00  0.00    +0.004 A 
ATOM     29  C   UNL     1      10.607   1.439  -2.598  0.00  0.00    -0.046 A 
ATOM     30  C   UNL     1       9.339   1.129  -3.050  0.00  0.00    -0.026 A 
ATOM     31  C   UNL     1       8.758   1.867  -4.228  0.00  0.00    +0.046 C 
ATOM     32  C   UNL     1      11.409   2.516  -3.283  0.00  0.00    +0.044 C 
ENDBRANCH  20  25
BRANCH   1  34
ATOM     33  C   UNL     1      -0.024   2.009  -0.377  0.00  0.00    +0.009 C 
ATOM     34  C   UNL     1      -0.053   0.486  -0.236  0.00  0.00    +0.033 C 
ENDBRANCH   1  34
TORSDOF 2
