REMARK  Name = ZINC39430139
REMARK  7 active torsions:
REMARK  status: ('A' for Active; 'I' for Inactive)
REMARK    1  A    between atoms: C_4  and  C_7
REMARK    2  A    between atoms: C_8  and  C_9
REMARK    3  A    between atoms: N_11  and  C_12
REMARK    4  A    between atoms: N_11  and  C_19
REMARK    5  A    between atoms: C_12  and  C_13
REMARK    6  A    between atoms: C_19  and  C_20
REMARK    7  A    between atoms: N_23  and  C_26
REMARK                            x       y       z     vdW  Elec       q    Type
REMARK                         _______ _______ _______ _____ _____    ______ ____
ROOT
ATOM      1  C   UNL     1       5.037  -2.674  -0.071  0.00  0.00    +0.240 C 
ATOM      2  O   UNL     1       6.097  -2.077  -0.089  0.00  0.00    -0.271 OA
ATOM      3  N   UNL     1       5.023  -4.022  -0.064  0.00  0.00    -0.295 N 
ENDROOT
BRANCH   1   5
ATOM      4  C   UNL     1       3.790  -0.581  -0.065  0.00  0.00    +0.013 C 
ATOM      5  C   UNL     1       3.776  -1.929  -0.058  0.00  0.00    +0.068 C 
BRANCH   4   9
ATOM      6  C   UNL     1       0.138   1.577  -0.027  0.00  0.00    +0.000 A 
ATOM      7  C   UNL     1       1.342   2.261  -0.046  0.00  0.00    +0.001 A 
ATOM      8  C   UNL     1       2.533   1.566  -0.059  0.00  0.00    +0.008 A 
ATOM      9  C   UNL     1       2.523   0.168  -0.051  0.00  0.00    -0.025 A 
ATOM     10  C   UNL     1       1.303  -0.515  -0.031  0.00  0.00    +0.008 A 
ATOM     11  C   UNL     1       0.120   0.194  -0.019  0.00  0.00    +0.001 A 
ENDBRANCH   4   9
ENDBRANCH   1   5
BRANCH   3  12
ATOM     12  C   UNL     1       3.747  -4.741  -0.042  0.00  0.00    +0.139 C 
BRANCH  12  13
ATOM     13  C   UNL     1       3.283  -5.000  -1.477  0.00  0.00    +0.136 C 
ATOM     14  C   UNL     1       1.882  -5.649  -1.465  0.00  0.00    +0.035 C 
ATOM     15  C   UNL     1       1.991  -6.689  -2.614  0.00  0.00    +0.031 C 
ATOM     16  C   UNL     1       3.477  -7.112  -2.487  0.00  0.00    +0.160 C 
ATOM     17  O   UNL     1       4.179  -5.912  -2.121  0.00  0.00    -0.375 OA
ENDBRANCH  12  13
ENDBRANCH   3  12
BRANCH   3  18
ATOM     18  C   UNL     1       6.284  -4.768  -0.077  0.00  0.00    +0.111 C 
BRANCH  18  19
ATOM     19  C   UNL     1       6.743  -5.019   1.360  0.00  0.00    +0.003 C 
ATOM     20  C   UNL     1       7.080  -3.685   2.031  0.00  0.00    -0.014 C 
ATOM     21  C   UNL     1       7.613  -3.949   3.441  0.00  0.00    -0.078 C 
ATOM     22  N   UNL     1       8.822  -4.778   3.363  0.00  0.00    +0.382 N 
ATOM     23  C   UNL     1       8.493  -6.087   2.786  0.00  0.00    -0.078 C 
ATOM     24  C   UNL     1       7.993  -5.904   1.351  0.00  0.00    -0.014 C 
ATOM     25  H   UNL     1       9.507  -4.318   2.782  0.00  0.00    -0.081 HD
BRANCH  22  26
ATOM     26  C   UNL     1       9.375  -4.964   4.711  0.00  0.00    -0.060 C 
ATOM     27  C   UNL     1      10.699  -5.754   4.657  0.00  0.00    +0.020 C 
ATOM     28  C   UNL     1      11.784  -4.703   4.560  0.00  0.00    -0.046 A 
ATOM     29  C   UNL     1      13.109  -4.814   4.173  0.00  0.00    +0.004 A 
ATOM     30  C   UNL     1      13.925  -3.700   4.162  0.00  0.00    +0.000 A 
ATOM     31  C   UNL     1      13.419  -2.470   4.539  0.00  0.00    +0.000 A 
ATOM     32  C   UNL     1      12.098  -2.357   4.926  0.00  0.00    +0.004 A 
ATOM     33  C   UNL     1      11.278  -3.473   4.937  0.00  0.00    -0.046 A 
ATOM     34  C   UNL     1       9.819  -3.614   5.314  0.00  0.00    +0.020 C 
ENDBRANCH  22  26
ENDBRANCH  18  19
ENDBRANCH   3  18
TORSDOF 7
