REMARK  Name = ZINC63804632
REMARK  8 active torsions:
REMARK  status: ('A' for Active; 'I' for Inactive)
REMARK    1  A    between atoms: C_1  and  C_2
REMARK    2  A    between atoms: C_7  and  C_13
REMARK    3  A    between atoms: C_8  and  C_12
REMARK    4  A    between atoms: C_13  and  C_14
REMARK    5  A    between atoms: C_14  and  N_15
REMARK    6  A    between atoms: N_15  and  S_16
REMARK    7  A    between atoms: S_16  and  C_19
REMARK    8  A    between atoms: C_21  and  N_26
REMARK                            x       y       z     vdW  Elec       q    Type
REMARK                         _______ _______ _______ _____ _____    ______ ____
ROOT
ATOM      1  N   UNL     1      -0.298  -6.693   2.288  0.00  0.00    -0.190 NA
ATOM      2  H   UNL     1      -1.039  -7.247   2.580  0.00  0.00    +0.148 HD
ENDROOT
BRANCH   1   3
ATOM      3  S   UNL     1       1.224  -7.335   2.176  0.00  0.00    +0.060 S 
ATOM      4  O   UNL     1       1.114  -8.704   2.541  0.00  0.00    -0.153 OA
ATOM      5  O   UNL     1       1.748  -6.921   0.922  0.00  0.00    -0.153 OA
BRANCH   3   6
ATOM      6  C   UNL     1       2.209  -6.561   3.415  0.00  0.00    +0.126 A 
ATOM      7  C   UNL     1       2.546  -7.254   4.562  0.00  0.00    +0.062 A 
ATOM      8  C   UNL     1       3.319  -6.647   5.535  0.00  0.00    +0.128 A 
ATOM      9  C   UNL     1       3.755  -5.346   5.359  0.00  0.00    +0.034 A 
ATOM     10  C   UNL     1       3.419  -4.653   4.212  0.00  0.00    +0.024 A 
ATOM     11  C   UNL     1       2.651  -5.263   3.236  0.00  0.00    +0.067 A 
ATOM     12 CL   UNL     1       2.234  -4.395   1.791  0.00  0.00    -0.082 Cl
BRANCH   8  13
ATOM     13  N   UNL     1       3.679  -7.389   6.763  0.00  0.00    +0.056 N 
ATOM     14  O   UNL     1       3.298  -8.526   6.917  0.00  0.00    -0.126 OA
ATOM     15  O   UNL     1       4.355  -6.858   7.614  0.00  0.00    -0.126 OA
ENDBRANCH   8  13
ENDBRANCH   3   6
ENDBRANCH   1   3
BRANCH   1  16
ATOM     16  C   UNL     1      -0.526  -5.286   1.948  0.00  0.00    +0.110 C 
BRANCH  16  17
ATOM     17  C   UNL     1      -0.480  -4.439   3.221  0.00  0.00    +0.050 C 
BRANCH  17  24
ATOM     18  C   UNL     1      -2.022   1.137   0.692  0.00  0.00    +0.046 C 
ATOM     19  C   UNL     1      -1.681  -0.329   0.606  0.00  0.00    -0.027 A 
ATOM     20  C   UNL     1      -1.641  -0.939  -0.597  0.00  0.00    +0.005 A 
ATOM     21  C   UNL     1      -1.332  -2.298  -0.747  0.00  0.00    +0.001 A 
ATOM     22  C   UNL     1      -1.053  -3.085   0.317  0.00  0.00    +0.010 A 
ATOM     23  C   UNL     1      -1.075  -2.498   1.662  0.00  0.00    -0.001 A 
ATOM     24  C   UNL     1      -0.846  -3.015   2.891  0.00  0.00    -0.037 C 
ATOM     25  C   UNL     1      -1.032  -1.874   3.866  0.00  0.00    +0.103 C 
ATOM     26  N   UNL     1      -1.380  -0.703   3.054  0.00  0.00    -0.378 N 
ATOM     27  C   UNL     1      -1.399  -1.060   1.793  0.00  0.00    +0.046 A 
ATOM     28  C   UNL     1       0.267  -1.619   4.633  0.00  0.00    +0.035 C 
ATOM     29  H   UNL     1      -1.562   0.187   3.393  0.00  0.00    +0.160 HD
ENDBRANCH  17  24
ENDBRANCH  16  17
ENDBRANCH   1  16
TORSDOF 6
