REMARK  Name = ZINC08940016
REMARK  5 active torsions:
REMARK  status: ('A' for Active; 'I' for Inactive)
REMARK    1  A    between atoms: C_3  and  C_6
REMARK    2  A    between atoms: C_6  and  N_7
REMARK    3  A    between atoms: C_11  and  S_13
REMARK    4  A    between atoms: S_13  and  C_14
REMARK    5  A    between atoms: C_14  and  C_15
REMARK                            x       y       z     vdW  Elec       q    Type
REMARK                         _______ _______ _______ _____ _____    ______ ____
ROOT
ATOM      1  C   UNL     1      -0.046   2.168   2.217  0.00  0.00    +0.227 C 
ATOM      2  O   UNL     1      -0.656   2.635   3.155  0.00  0.00    -0.275 OA
ATOM      3  N   UNL     1      -0.712   1.566   1.212  0.00  0.00    -0.278 N 
ATOM      4  C   UNL     1      -0.201   1.589  -0.169  0.00  0.00    +0.204 C 
ATOM      5  C   UNL     1      -1.320   2.017  -1.084  0.00  0.00    +0.237 C 
ATOM      6  O   UNL     1      -1.053   2.528  -2.150  0.00  0.00    -0.274 OA
ATOM      7  N   UNL     1      -2.605   1.842  -0.743  0.00  0.00    -0.253 N 
ATOM      8  C   UNL     1      -2.990   1.327   0.434  0.00  0.00    +0.243 C 
ATOM      9  O   UNL     1      -4.172   1.238   0.686  0.00  0.00    -0.273 OA
ATOM     10  C   UNL     1      -1.980   0.858   1.448  0.00  0.00    +0.114 C 
ATOM     11  C   UNL     1      -1.757  -0.647   1.300  0.00  0.00    +0.035 C 
ATOM     12  C   UNL     1      -0.719  -1.112   2.323  0.00  0.00    +0.003 C 
ATOM     13  C   UNL     1      -1.222  -0.804   3.735  0.00  0.00    +0.000 C 
ATOM     14  C   UNL     1      -1.442   0.703   3.882  0.00  0.00    +0.003 C 
ATOM     15  C   UNL     1      -2.480   1.169   2.859  0.00  0.00    +0.035 C 
ATOM     16  H   UNL     1      -3.290   2.101  -1.379  0.00  0.00    +0.158 HD
ENDROOT
BRANCH   1  17
ATOM     17  C   UNL     1       1.458   2.262   2.174  0.00  0.00    +0.172 C 
BRANCH  17  18
ATOM     18  S   UNL     1       2.052   3.121   3.658  0.00  0.00    -0.088 S 
BRANCH  18  23
ATOM     19  N   UNL     1       7.824   3.648   3.796  0.00  0.00    -0.315 N 
ATOM     20  C   UNL     1       6.477   3.407   3.550  0.00  0.00    +0.183 A 
ATOM     21  N   UNL     1       5.910   2.801   2.525  0.00  0.00    -0.125 NA
ATOM     22  N   UNL     1       4.542   2.669   2.479  0.00  0.00    -0.133 NA
ATOM     23  C   UNL     1       3.803   3.149   3.461  0.00  0.00    +0.160 A 
ATOM     24  S   UNL     1       5.051   3.843   4.534  0.00  0.00    -0.025 S 
ATOM     25  H   UNL     1       8.094   4.112   4.604  0.00  0.00    +0.148 HD
BRANCH  19  26
ATOM     26  C   UNL     1       8.835   3.200   2.836  0.00  0.00    +0.178 C 
BRANCH  26  29
ATOM     27  C   UNL     1      12.179   3.565   4.341  0.00  0.00    +0.041 A 
ATOM     28  C   UNL     1      10.995   2.825   4.119  0.00  0.00    +0.046 A 
ATOM     29  C   UNL     1      10.205   3.581   3.335  0.00  0.00    +0.122 A 
ATOM     30  O   UNL     1      10.847   4.730   3.067  0.00  0.00    -0.466 OA
ATOM     31  C   UNL     1      12.042   4.728   3.680  0.00  0.00    +0.195 A 
ENDBRANCH  26  29
ENDBRANCH  19  26
ENDBRANCH  18  23
ENDBRANCH  17  18
ENDBRANCH   1  17
TORSDOF 5
