REMARK  Name = ZINC52858881
REMARK  6 active torsions:
REMARK  status: ('A' for Active; 'I' for Inactive)
REMARK    1  A    between atoms: C_3  and  N_11
REMARK    2  A    between atoms: C_4  and  C_8
REMARK    3  A    between atoms: C_8  and  N_10
REMARK    4  A    between atoms: N_11  and  C_12
REMARK    5  A    between atoms: N_11  and  C_16
REMARK    6  A    between atoms: C_12  and  C_13
REMARK                            x       y       z     vdW  Elec       q    Type
REMARK                         _______ _______ _______ _____ _____    ______ ____
ROOT
ATOM      1  C   UNL     1       3.035  -1.101  -1.339  0.00  0.00    +0.022 A 
ATOM      2  C   UNL     1       3.717   0.072  -1.086  0.00  0.00    +0.025 A 
ATOM      3  C   UNL     1       3.086   1.113  -0.418  0.00  0.00    +0.040 A 
ATOM      4  C   UNL     1       1.752   0.966  -0.003  0.00  0.00    +0.025 A 
ATOM      5  C   UNL     1       1.075  -0.228  -0.266  0.00  0.00    +0.032 A 
ATOM      6  C   UNL     1       1.719  -1.251  -0.930  0.00  0.00    +0.042 A 
ATOM      7 CL   UNL     1       0.876  -2.733  -1.257  0.00  0.00    -0.084 Cl
ENDROOT
BRANCH   4   8
ATOM      8  C   UNL     1       1.072   2.063   0.706  0.00  0.00    +0.079 C 
ATOM      9  S   UNL     1       1.842   3.583   0.872  0.00  0.00    -0.035 S 
BRANCH   8  10
ATOM     10  N   UNL     1      -0.158   1.870   1.224  0.00  0.00    -0.352 N 
ATOM     11  H   UNL     1      -0.594   1.009   1.129  0.00  0.00    +0.143 HD
ATOM     12  H   UNL     1      -0.606   2.593   1.691  0.00  0.00    +0.143 HD
ENDBRANCH   8  10
ENDBRANCH   4   8
BRANCH   3  13
ATOM     13  N   UNL     1       3.770   2.296  -0.162  0.00  0.00    -0.318 N 
BRANCH  13  14
ATOM     14  C   UNL     1       4.194   3.152  -1.273  0.00  0.00    +0.074 C 
ATOM     15  C   UNL     1       5.734   3.177  -1.363  0.00  0.00    +0.022 C 
ATOM     16  C   UNL     1       6.067   4.635  -1.768  0.00  0.00    +0.002 C 
ATOM     17  C   UNL     1       5.027   5.458  -0.968  0.00  0.00    +0.002 C 
ATOM     18  C   UNL     1       3.745   4.602  -1.022  0.00  0.00    +0.022 C 
ENDBRANCH  13  14
BRANCH  13  19
ATOM     19  C   UNL     1       4.068   2.686   1.218  0.00  0.00    +0.200 C 
BRANCH  19  20
ATOM     20  C   UNL     1       5.316   1.978   1.682  0.00  0.00    +0.228 C 
ATOM     21  O   UNL     1       5.837   1.142   0.975  0.00  0.00    -0.274 OA
ATOM     22  N   UNL     1       5.852   2.276   2.882  0.00  0.00    -0.328 N 
ATOM     23  H   UNL     1       5.436   2.945   3.447  0.00  0.00    +0.145 HD
ATOM     24  H   UNL     1       6.655   1.820   3.180  0.00  0.00    +0.145 HD
ENDBRANCH  19  20
ENDBRANCH  13  19
ENDBRANCH   3  13
TORSDOF 6
