REMARK  Name = ZINC39944394
REMARK  9 active torsions:
REMARK  status: ('A' for Active; 'I' for Inactive)
REMARK    1  A    between atoms: C_1  and  C_2
REMARK    2  A    between atoms: C_10  and  C_14
REMARK    3  A    between atoms: C_14  and  S_15
REMARK    4  A    between atoms: S_15  and  C_16
REMARK    5  A    between atoms: C_19  and  C_23
REMARK    6  A    between atoms: N_21  and  N_22
REMARK    7  A    between atoms: C_23  and  C_24
REMARK    8  A    between atoms: C_24  and  C_26
REMARK    9  A    between atoms: C_24  and  C_27
REMARK                            x       y       z     vdW  Elec       q    Type
REMARK                         _______ _______ _______ _____ _____    ______ ____
ROOT
ATOM      1  C   UNL     1      -3.732  -7.841   6.265  0.00  0.00    +0.189 C 
ATOM      2  N   UNL     1      -2.878  -7.996   7.219  0.00  0.00    -0.161 NA
ATOM      3  N   UNL     1      -3.345  -8.895   8.186  0.00  0.00    -0.245 N 
ATOM      4  C   UNL     1      -4.675  -9.334   7.729  0.00  0.00    +0.193 C 
ATOM      5  N   UNL     1      -4.874  -8.603   6.466  0.00  0.00    -0.225 N 
ATOM      6  H   UNL     1      -2.886  -9.174   8.993  0.00  0.00    +0.170 HD
ENDROOT
BRANCH   5   7
ATOM      7  N   UNL     1      -5.968  -8.664   5.650  0.00  0.00    -0.250 NA
ATOM      8  H   UNL     1      -5.853  -8.068   4.845  0.00  0.00    +0.141 HD
ATOM      9  H   UNL     1      -6.159  -9.615   5.372  0.00  0.00    +0.141 HD
ENDBRANCH   5   7
BRANCH   1  10
ATOM     10  S   UNL     1      -3.482  -6.784   4.878  0.00  0.00    -0.080 S 
BRANCH  10  11
ATOM     11  C   UNL     1      -1.840  -6.069   5.162  0.00  0.00    +0.150 C 
BRANCH  11  20
ATOM     12  C   UNL     1      -0.019   1.526   0.010  0.00  0.00    +0.007 C 
ATOM     13  C   UNL     1       0.002  -0.004   0.002  0.00  0.00    -0.012 C 
ATOM     14  C   UNL     1      -1.433  -0.525  -0.005  0.00  0.00    +0.008 C 
ATOM     15  C   UNL     1      -1.445  -2.057  -0.096  0.00  0.00    +0.033 C 
ATOM     16  C   UNL     1      -0.553  -2.568   1.033  0.00  0.00    -0.042 C 
ATOM     17  C   UNL     1      -0.928  -3.448   1.962  0.00  0.00    +0.071 C 
ATOM     18  C   UNL     1      -0.010  -3.701   3.104  0.00  0.00    +0.111 C 
ATOM     19  N   UNL     1      -0.317  -4.516   4.085  0.00  0.00    -0.227 NA
ATOM     20  C   UNL     1      -1.498  -5.132   4.032  0.00  0.00    +0.134 C 
ATOM     21  N   UNL     1      -2.385  -4.990   3.081  0.00  0.00    -0.160 NA
ATOM     22  C   UNL     1      -2.232  -4.190   2.010  0.00  0.00    +0.271 C 
ATOM     23  O   UNL     1      -3.086  -4.076   1.147  0.00  0.00    -0.268 OA
ATOM     24  S   UNL     1       1.412  -2.712   2.765  0.00  0.00    -0.097 S 
ATOM     25  C   UNL     1       0.874  -2.028   1.151  0.00  0.00    +0.080 C 
ATOM     26  C   UNL     1       0.760  -0.504   1.236  0.00  0.00    +0.022 C 
ENDBRANCH  11  20
ENDBRANCH  10  11
ENDBRANCH   1  10
BRANCH   4  27
ATOM     27  C   UNL     1      -4.690 -10.845   7.491  0.00  0.00    +0.052 C 
BRANCH  27  28
ATOM     28  C   UNL     1      -4.508 -11.573   8.825  0.00  0.00    +0.019 C 
ATOM     29  C   UNL     1      -5.713 -11.293   9.726  0.00  0.00    +0.012 C 
BRANCH  28  30
ATOM     30  C   UNL     1      -4.400 -13.055   8.577  0.00  0.00    -0.044 A 
ATOM     31  C   UNL     1      -5.436 -13.731   7.961  0.00  0.00    +0.004 A 
ATOM     32  C   UNL     1      -5.336 -15.091   7.734  0.00  0.00    +0.000 A 
ATOM     33  C   UNL     1      -4.200 -15.775   8.123  0.00  0.00    +0.000 A 
ATOM     34  C   UNL     1      -3.163 -15.099   8.738  0.00  0.00    +0.000 A 
ATOM     35  C   UNL     1      -3.261 -13.739   8.961  0.00  0.00    +0.004 A 
ENDBRANCH  28  30
ENDBRANCH  27  28
ENDBRANCH   4  27
TORSDOF 7
