REMARK  Name = ZINC39353641
REMARK  13 active torsions:
REMARK  status: ('A' for Active; 'I' for Inactive)
REMARK    1  A    between atoms: C_1  and  C_2
REMARK    2  A    between atoms: C_5  and  C_13
REMARK    3  A    between atoms: C_11  and  C_12
REMARK    4  A    between atoms: N_15  and  C_16
REMARK    5  A    between atoms: N_15  and  C_21
REMARK    6  A    between atoms: C_16  and  C_17
REMARK    7  A    between atoms: C_17  and  N_18
REMARK    8  A    between atoms: N_18  and  C_19
REMARK    9  A    between atoms: N_18  and  C_20
REMARK   10  A    between atoms: C_21  and  C_22
REMARK   11  A    between atoms: C_31  and  N_32
REMARK   12  A    between atoms: N_32  and  C_33
REMARK   13  A    between atoms: N_32  and  C_34
REMARK                            x       y       z     vdW  Elec       q    Type
REMARK                         _______ _______ _______ _____ _____    ______ ____
ROOT
ATOM      1  C   UNL     1      -4.152  -2.375   1.529  0.00  0.00    +0.247 C 
ATOM      2  O   UNL     1      -3.124  -3.026   1.548  0.00  0.00    -0.270 OA
ATOM      3  N   UNL     1      -5.296  -2.909   1.999  0.00  0.00    -0.295 N 
ENDROOT
BRANCH   1   8
ATOM      4  C   UNL     1      -0.828   1.560  -0.521  0.00  0.00    +0.046 C 
ATOM      5  C   UNL     1      -2.283   1.833  -0.239  0.00  0.00    -0.024 C 
ATOM      6  C   UNL     1      -3.097   1.048   0.477  0.00  0.00    -0.014 C 
ATOM      7  C   UNL     1      -2.970  -0.257   0.992  0.00  0.00    +0.019 C 
ATOM      8  C   UNL     1      -4.145  -1.001   0.991  0.00  0.00    +0.037 C 
ATOM      9  C   UNL     1      -5.379  -0.413   0.452  0.00  0.00    +0.011 C 
ATOM     10  C   UNL     1      -5.520   0.897   0.244  0.00  0.00    +0.005 C 
ATOM     11  C   UNL     1      -4.400   1.822   0.616  0.00  0.00    +0.159 C 
ATOM     12  N   UNL     1      -4.252   2.982  -0.249  0.00  0.00    -0.276 NA
ATOM     13  C   UNL     1      -3.033   3.001  -0.698  0.00  0.00    +0.037 C 
ATOM     14  C   UNL     1      -2.467   4.083  -1.582  0.00  0.00    +0.065 C 
ENDBRANCH   1   8
BRANCH   3  15
ATOM     15  C   UNL     1      -5.277  -4.215   2.663  0.00  0.00    +0.090 C 
BRANCH  15  16
ATOM     16  C   UNL     1      -5.173  -4.016   4.176  0.00  0.00    -0.060 C 
BRANCH  16  17
ATOM     17  N   UNL     1      -5.044  -5.324   4.834  0.00  0.00    +0.377 N 
ATOM     18  C   UNL     1      -3.765  -5.939   4.455  0.00  0.00    -0.097 C 
ATOM     19  C   UNL     1      -5.089  -5.145   6.291  0.00  0.00    -0.097 C 
ATOM     20  H   UNL     1      -5.803  -5.922   4.545  0.00  0.00    -0.083 HD
ENDBRANCH  16  17
ENDBRANCH  15  16
ENDBRANCH   3  15
BRANCH   3  21
ATOM     21  C   UNL     1      -6.560  -2.183   1.847  0.00  0.00    +0.146 C 
BRANCH  21  22
ATOM     22  C   UNL     1      -7.296  -2.705   0.640  0.00  0.00    +0.010 A 
ATOM     23  C   UNL     1      -6.605  -3.268  -0.391  0.00  0.00    +0.018 A 
ATOM     24  C   UNL     1      -7.330  -3.743  -1.502  0.00  0.00    +0.005 A 
ATOM     25  C   UNL     1      -6.678  -4.333  -2.597  0.00  0.00    +0.059 A 
ATOM     26  C   UNL     1      -7.409  -4.783  -3.659  0.00  0.00    +0.167 A 
ATOM     27  C   UNL     1      -8.808  -4.662  -3.667  0.00  0.00    +0.168 A 
ATOM     28  C   UNL     1      -9.466  -4.093  -2.614  0.00  0.00    +0.078 A 
ATOM     29  C   UNL     1      -8.741  -3.620  -1.508  0.00  0.00    +0.077 A 
ATOM     30  N   UNL     1      -9.366  -3.058  -0.466  0.00  0.00    -0.232 NA
ATOM     31  C   UNL     1      -8.693  -2.617   0.578  0.00  0.00    +0.126 A 
ATOM     32  O   UNL     1      -9.279  -5.186  -4.837  0.00  0.00    -0.453 OA
ATOM     33  C   UNL     1      -8.142  -5.250  -5.717  0.00  0.00    +0.466 C 
ATOM     34  O   UNL     1      -7.020  -5.382  -4.824  0.00  0.00    -0.453 OA
BRANCH  31  35
ATOM     35  N   UNL     1      -9.384  -2.046   1.637  0.00  0.00    -0.321 N 
ATOM     36  C   UNL     1      -9.771  -0.634   1.583  0.00  0.00    +0.130 C 
ATOM     37  C   UNL     1      -9.726  -2.855   2.809  0.00  0.00    +0.130 C 
ENDBRANCH  31  35
ENDBRANCH  21  22
ENDBRANCH   3  21
TORSDOF 7
