REMARK  Name = ZINC60220476
REMARK  8 active torsions:
REMARK  status: ('A' for Active; 'I' for Inactive)
REMARK    1  A    between atoms: C_1  and  C_2
REMARK    2  A    between atoms: C_7  and  C_9
REMARK    3  A    between atoms: C_7  and  C_10
REMARK    4  A    between atoms: N_13  and  C_17
REMARK    5  A    between atoms: C_17  and  C_18
REMARK    6  A    between atoms: N_20  and  C_21
REMARK    7  A    between atoms: C_26  and  C_27
REMARK    8  A    between atoms: C_27  and  N_28
REMARK                            x       y       z     vdW  Elec       q    Type
REMARK                         _______ _______ _______ _____ _____    ______ ____
ROOT
ATOM      1  C   UNL     1      -1.263  -5.112  -2.944  0.00  0.00    +0.235 C 
ATOM      2  O   UNL     1      -0.958  -5.358  -1.796  0.00  0.00    -0.274 OA
ATOM      3  N   UNL     1      -1.211  -6.083  -3.878  0.00  0.00    -0.284 N 
ATOM      4  H   UNL     1      -1.521  -5.905  -4.780  0.00  0.00    +0.155 HD
ENDROOT
BRANCH   3   5
ATOM      5  C   UNL     1      -0.709  -7.346  -3.547  0.00  0.00    +0.035 A 
ATOM      6  C   UNL     1      -0.917  -7.866  -2.276  0.00  0.00    +0.023 A 
ATOM      7  C   UNL     1      -0.421  -9.114  -1.952  0.00  0.00    +0.002 A 
ATOM      8  C   UNL     1       0.283  -9.845  -2.892  0.00  0.00    +0.000 A 
ATOM      9  C   UNL     1       0.492  -9.330  -4.157  0.00  0.00    +0.003 A 
ATOM     10  C   UNL     1      -0.007  -8.085  -4.490  0.00  0.00    -0.043 A 
BRANCH  10  11
ATOM     11  C   UNL     1       0.214  -7.528  -5.872  0.00  0.00    -0.041 C 
BRANCH  11  12
ATOM     12  N   UNL     1       1.299  -6.538  -5.832  0.00  0.00    +0.383 N 
ATOM     13  C   UNL     1       1.381  -5.864  -7.130  0.00  0.00    -0.068 C 
ATOM     14  C   UNL     1       2.231  -4.594  -7.004  0.00  0.00    +0.050 C 
ATOM     15  S   UNL     1       3.915  -5.081  -6.512  0.00  0.00    -0.164 S 
ATOM     16  C   UNL     1       3.612  -6.183  -5.095  0.00  0.00    +0.050 C 
ATOM     17  C   UNL     1       2.555  -7.215  -5.506  0.00  0.00    -0.068 C 
ATOM     18  H   UNL     1       1.097  -5.854  -5.118  0.00  0.00    -0.081 HD
ENDBRANCH  11  12
ENDBRANCH  10  11
ENDBRANCH   3   5
BRANCH   1  19
ATOM     19  C   UNL     1      -1.701  -3.722  -3.326  0.00  0.00    +0.214 C 
BRANCH  19  31
ATOM     20  C   UNL     1       0.823   1.868  -0.531  0.00  0.00    +0.007 C 
ATOM     21  C   UNL     1       0.675   0.345  -0.449  0.00  0.00    -0.011 C 
ATOM     22  C   UNL     1      -0.811  -0.018  -0.456  0.00  0.00    +0.038 C 
ATOM     23  C   UNL     1      -0.969  -1.533  -0.424  0.00  0.00    +0.113 C 
ATOM     24  C   UNL     1      -0.226  -2.178   0.729  0.00  0.00    +0.041 C 
ATOM     25  C   UNL     1       1.186  -1.671   0.965  0.00  0.00    -0.032 C 
ATOM     26  C   UNL     1       1.291  -0.154   0.856  0.00  0.00    +0.009 C 
ATOM     27  C   UNL     1       1.603  -2.069   2.397  0.00  0.00    +0.011 C 
ATOM     28  C   UNL     1       2.170  -2.337  -0.001  0.00  0.00    +0.011 C 
ATOM     29  C   UNL     1      -0.597  -2.140  -1.754  0.00  0.00    +0.247 C 
ATOM     30  O   UNL     1       0.434  -2.007  -2.378  0.00  0.00    -0.273 OA
ATOM     31  N   UNL     1      -1.673  -2.859  -2.143  0.00  0.00    -0.215 N 
ATOM     32  C   UNL     1      -2.706  -2.683  -1.312  0.00  0.00    +0.310 C 
ATOM     33  O   UNL     1      -3.790  -3.214  -1.459  0.00  0.00    -0.252 OA
ATOM     34  N   UNL     1      -2.408  -1.856  -0.295  0.00  0.00    -0.285 N 
ATOM     35  H   UNL     1      -3.005  -1.528   0.392  0.00  0.00    +0.151 HD
ENDBRANCH  19  31
ENDBRANCH   1  19
TORSDOF 5
