REMARK  Name = ZINC39742782
REMARK  11 active torsions:
REMARK  status: ('A' for Active; 'I' for Inactive)
REMARK    1  A    between atoms: C_1  and  C_2
REMARK    2  A    between atoms: C_5  and  C_11
REMARK    3  A    between atoms: C_7  and  N_8
REMARK    4  A    between atoms: C_11  and  C_13
REMARK    5  A    between atoms: C_13  and  S_14
REMARK    6  A    between atoms: S_14  and  C_15
REMARK    7  A    between atoms: C_18  and  C_23
REMARK    8  A    between atoms: N_19  and  C_20
REMARK    9  A    between atoms: C_20  and  C_21
REMARK   10  A    between atoms: C_23  and  C_24
REMARK   11  A    between atoms: N_26  and  C_27
REMARK                            x       y       z     vdW  Elec       q    Type
REMARK                         _______ _______ _______ _____ _____    ______ ____
ROOT
ATOM      1  C   UNL     1      -0.074  -6.860  -3.196  0.00  0.00    +0.192 A 
ATOM      2  N   UNL     1      -0.351  -6.383  -4.387  0.00  0.00    -0.122 NA
ATOM      3  N   UNL     1      -0.188  -7.300  -5.273  0.00  0.00    -0.133 NA
ATOM      4  C   UNL     1       0.199  -8.407  -4.705  0.00  0.00    +0.143 A 
ATOM      5  N   UNL     1       0.291  -8.165  -3.362  0.00  0.00    -0.302 N 
ENDROOT
BRANCH   1   6
ATOM      6  S   UNL     1      -0.152  -5.980  -1.671  0.00  0.00    -0.078 S 
BRANCH   6   7
ATOM      7  C   UNL     1      -0.699  -4.318  -2.151  0.00  0.00    +0.157 C 
BRANCH   7   8
ATOM      8  C   UNL     1      -0.809  -3.451  -0.923  0.00  0.00    +0.173 C 
ATOM      9  O   UNL     1      -0.543  -3.909   0.168  0.00  0.00    -0.291 OA
BRANCH   8  14
ATOM     10  C   UNL     1      -2.485   2.026  -1.413  0.00  0.00    +0.046 C 
ATOM     11  C   UNL     1      -2.045   0.590  -1.284  0.00  0.00    -0.020 A 
ATOM     12  C   UNL     1      -1.946  -0.203  -2.414  0.00  0.00    +0.006 A 
ATOM     13  C   UNL     1      -1.544  -1.517  -2.305  0.00  0.00    +0.012 A 
ATOM     14  C   UNL     1      -1.237  -2.049  -1.049  0.00  0.00    +0.020 A 
ATOM     15  C   UNL     1      -1.340  -1.241   0.088  0.00  0.00    +0.044 A 
ATOM     16  C   UNL     1      -1.738   0.073  -0.038  0.00  0.00    +0.130 A 
BRANCH  16  17
ATOM     17  N   UNL     1      -1.841   0.932   1.163  0.00  0.00    +0.057 N 
ATOM     18  O   UNL     1      -1.518   2.095   1.104  0.00  0.00    -0.126 OA
ATOM     19  O   UNL     1      -2.249   0.469   2.203  0.00  0.00    -0.126 OA
ENDBRANCH  16  17
ENDBRANCH   8  14
ENDBRANCH   7   8
ENDBRANCH   6   7
ENDBRANCH   1   6
BRANCH   5  20
ATOM     20  C   UNL     1       0.695  -9.111  -2.318  0.00  0.00    +0.152 C 
BRANCH  20  21
ATOM     21  C   UNL     1      -0.521  -9.835  -1.799  0.00  0.00    -0.013 C 
ATOM     22  C   UNL     1      -0.555 -11.144  -1.804  0.00  0.00    +0.005 C 
ENDBRANCH  20  21
ENDBRANCH   5  20
BRANCH   4  23
ATOM     23  C   UNL     1       0.496  -9.711  -5.399  0.00  0.00    +0.172 C 
BRANCH  23  24
ATOM     24  C   UNL     1       1.951  -9.753  -5.788  0.00  0.00    +0.225 C 
ATOM     25  O   UNL     1       2.676  -8.816  -5.527  0.00  0.00    -0.275 OA
ATOM     26  N   UNL     1       2.447 -10.831  -6.426  0.00  0.00    -0.284 N 
ATOM     27  H   UNL     1       1.856 -11.553  -6.692  0.00  0.00    +0.155 HD
BRANCH  26  28
ATOM     28  C   UNL     1       3.817 -10.911  -6.706  0.00  0.00    +0.052 A 
ATOM     29  C   UNL     1       4.561  -9.750  -6.873  0.00  0.00    +0.025 A 
ATOM     30  C   UNL     1       5.912  -9.832  -7.149  0.00  0.00    +0.002 A 
ATOM     31  C   UNL     1       6.524 -11.067  -7.258  0.00  0.00    +0.002 A 
ATOM     32  C   UNL     1       5.787 -12.225  -7.091  0.00  0.00    +0.022 A 
ATOM     33  C   UNL     1       4.436 -12.150  -6.810  0.00  0.00    +0.062 A 
ATOM     34 CL   UNL     1       3.512 -13.604  -6.594  0.00  0.00    -0.082 Cl
ENDBRANCH  26  28
ENDBRANCH  23  24
ENDBRANCH   4  23
TORSDOF 10
