REMARK  Name = ZINC38610579
REMARK  12 active torsions:
REMARK  status: ('A' for Active; 'I' for Inactive)
REMARK    1  A    between atoms: C_1  and  C_2
REMARK    2  A    between atoms: C_2  and  O_3
REMARK    3  A    between atoms: O_3  and  C_4
REMARK    4  A    between atoms: C_4  and  C_5
REMARK    5  A    between atoms: C_5  and  C_6
REMARK    6  A    between atoms: C_6  and  N_7
REMARK    7  A    between atoms: C_8  and  C_25
REMARK    8  A    between atoms: C_11  and  C_18
REMARK    9  A    between atoms: C_23  and  O_24
REMARK   10  A    between atoms: C_27  and  O_33
REMARK   11  A    between atoms: C_28  and  O_32
REMARK   12  A    between atoms: O_33  and  C_34
REMARK                            x       y       z     vdW  Elec       q    Type
REMARK                         _______ _______ _______ _____ _____    ______ ____
ROOT
ATOM      1  N   UNL     1      -4.415  -4.263   0.021  0.00  0.00    -0.285 N 
ATOM      2  C   UNL     1      -5.233  -4.497   1.218  0.00  0.00    +0.141 C 
ATOM      3  C   UNL     1      -6.600  -4.879   0.720  0.00  0.00    +0.035 A 
ATOM      4  C   UNL     1      -7.911  -5.249   1.039  0.00  0.00    +0.102 A 
ATOM      5  N   UNL     1      -8.558  -5.427  -0.096  0.00  0.00    -0.173 NA
ATOM      6  N   UNL     1      -7.786  -5.207  -1.099  0.00  0.00    -0.272 N 
ATOM      7  H   UNL     1      -8.049  -5.277  -2.030  0.00  0.00    +0.189 HD
ATOM      8  C   UNL     1      -6.541  -4.858  -0.660  0.00  0.00    +0.126 A 
ATOM      9  C   UNL     1      -5.184  -4.470  -1.063  0.00  0.00    +0.265 C 
ATOM     10  O   UNL     1      -4.808  -4.355  -2.213  0.00  0.00    -0.268 OA
ENDROOT
BRANCH   2  11
ATOM     11  C   UNL     1      -4.646  -5.617   2.037  0.00  0.00    -0.018 A 
ATOM     12  C   UNL     1      -4.633  -5.529   3.417  0.00  0.00    +0.055 A 
ATOM     13  C   UNL     1      -4.093  -6.558   4.172  0.00  0.00    +0.163 A 
ATOM     14  C   UNL     1      -3.566  -7.679   3.539  0.00  0.00    +0.173 A 
ATOM     15  C   UNL     1      -3.583  -7.762   2.155  0.00  0.00    +0.063 A 
ATOM     16  C   UNL     1      -4.128  -6.733   1.408  0.00  0.00    +0.025 A 
ATOM     17 BR   UNL     1      -2.868  -9.284   1.290  0.00  0.00    -0.046 Br
BRANCH  14  18
ATOM     18  O   UNL     1      -3.035  -8.692   4.276  0.00  0.00    -0.503 OA
ATOM     19  H   UNL     1      -3.673  -9.375   4.522  0.00  0.00    +0.292 HD
ENDBRANCH  14  18
BRANCH  13  20
ATOM     20  O   UNL     1      -4.078  -6.472   5.529  0.00  0.00    -0.491 OA
ATOM     21  C   UNL     1      -4.636  -5.292   6.111  0.00  0.00    +0.277 C 
ENDBRANCH  13  20
ENDBRANCH   2  11
BRANCH   4  22
ATOM     22  C   UNL     1      -8.470  -5.411   2.405  0.00  0.00    +0.044 A 
ATOM     23  C   UNL     1      -7.668  -5.184   3.520  0.00  0.00    +0.014 A 
ATOM     24  C   UNL     1      -8.193  -5.336   4.788  0.00  0.00    +0.001 A 
ATOM     25  C   UNL     1      -9.514  -5.714   4.955  0.00  0.00    +0.004 A 
ATOM     26  C   UNL     1     -10.318  -5.942   3.854  0.00  0.00    +0.046 A 
ATOM     27  C   UNL     1      -9.806  -5.787   2.576  0.00  0.00    +0.126 A 
BRANCH  27  28
ATOM     28  O   UNL     1     -10.597  -6.006   1.493  0.00  0.00    -0.506 OA
ATOM     29  H   UNL     1     -10.586  -6.920   1.177  0.00  0.00    +0.292 HD
ENDBRANCH  27  28
ENDBRANCH   4  22
BRANCH   1  30
ATOM     30  C   UNL     1      -3.005  -3.866   0.010  0.00  0.00    +0.111 C 
BRANCH  30  31
ATOM     31  C   UNL     1      -2.905  -2.339   0.017  0.00  0.00    +0.047 C 
BRANCH  31  32
ATOM     32  C   UNL     1      -1.432  -1.925   0.005  0.00  0.00    +0.161 C 
BRANCH  32  33
ATOM     33  O   UNL     1      -1.339  -0.499   0.012  0.00  0.00    -0.380 OA
BRANCH  33  35
ATOM     34  C   UNL     1      -0.019   1.526   0.010  0.00  0.00    +0.034 C 
ATOM     35  C   UNL     1       0.002  -0.004   0.002  0.00  0.00    +0.156 C 
ENDBRANCH  33  35
ENDBRANCH  32  33
ENDBRANCH  31  32
ENDBRANCH  30  31
ENDBRANCH   1  30
TORSDOF 10
