REMARK  Name = ZINC58848512
REMARK  12 active torsions:
REMARK  status: ('A' for Active; 'I' for Inactive)
REMARK    1  A    between atoms: C_1  and  O_2
REMARK    2  A    between atoms: O_2  and  C_3
REMARK    3  A    between atoms: C_6  and  N_9
REMARK    4  A    between atoms: N_9  and  S_10
REMARK    5  A    between atoms: S_10  and  C_13
REMARK    6  A    between atoms: C_26  and  C_29
REMARK    7  A    between atoms: C_31  and  O_39
REMARK    8  A    between atoms: C_32  and  O_37
REMARK    9  A    between atoms: C_33  and  O_35
REMARK   10  A    between atoms: O_35  and  C_36
REMARK   11  A    between atoms: O_37  and  C_38
REMARK   12  A    between atoms: O_39  and  C_40
REMARK                            x       y       z     vdW  Elec       q    Type
REMARK                         _______ _______ _______ _____ _____    ______ ____
ROOT
ATOM      1  C   UNL     1       1.814  -5.085   3.615  0.00  0.00    +0.109 A 
ATOM      2  C   UNL     1       0.827  -5.111   2.646  0.00  0.00    +0.030 A 
ATOM      3  C   UNL     1       0.845  -6.093   1.677  0.00  0.00    +0.025 A 
ATOM      4  C   UNL     1       1.852  -7.052   1.672  0.00  0.00    +0.031 A 
ATOM      5  C   UNL     1       2.849  -7.020   2.635  0.00  0.00    -0.018 A 
ATOM      6  C   UNL     1       2.820  -6.030   3.607  0.00  0.00    +0.034 A 
ATOM      7  C   UNL     1       3.967  -8.007   2.639  0.00  0.00    +0.049 C 
ATOM      8  C   UNL     1       3.791  -9.059   3.703  0.00  0.00    -0.023 C 
ATOM      9  C   UNL     1       4.227 -10.217   3.272  0.00  0.00    -0.030 C 
ATOM     10  C   UNL     1       4.750 -10.104   1.857  0.00  0.00    +0.033 C 
ATOM     11  C   UNL     1       4.128  -8.787   1.336  0.00  0.00    +0.029 C 
ATOM     12  C   UNL     1       2.815  -9.121   0.659  0.00  0.00    +0.105 C 
ATOM     13  N   UNL     1       1.846  -8.046   0.701  0.00  0.00    -0.336 N 
ATOM     14  H   UNL     1       1.145  -8.031   0.031  0.00  0.00    +0.147 HD
ENDROOT
BRANCH  12  15
ATOM     15  C   UNL     1       2.237 -10.349   1.314  0.00  0.00    -0.020 A 
ATOM     16  C   UNL     1       1.559 -10.236   2.513  0.00  0.00    +0.055 A 
ATOM     17  C   UNL     1       1.026 -11.364   3.120  0.00  0.00    +0.165 A 
ATOM     18  C   UNL     1       1.174 -12.609   2.520  0.00  0.00    +0.204 A 
ATOM     19  C   UNL     1       1.856 -12.718   1.314  0.00  0.00    +0.165 A 
ATOM     20  C   UNL     1       2.382 -11.585   0.711  0.00  0.00    +0.055 A 
BRANCH  19  21
ATOM     21  O   UNL     1       2.004 -13.934   0.723  0.00  0.00    -0.491 OA
ATOM     22  C   UNL     1       2.717 -13.971  -0.516  0.00  0.00    +0.277 C 
ENDBRANCH  19  21
BRANCH  18  23
ATOM     23  O   UNL     1       0.653 -13.718   3.112  0.00  0.00    -0.488 OA
ATOM     24  C   UNL     1      -0.686 -14.072   2.761  0.00  0.00    +0.277 C 
ENDBRANCH  18  23
BRANCH  17  25
ATOM     25  O   UNL     1       0.360 -11.252   4.300  0.00  0.00    -0.491 OA
ATOM     26  C   UNL     1       0.246  -9.942   4.859  0.00  0.00    +0.277 C 
ENDBRANCH  17  25
ENDBRANCH  12  15
BRANCH   1  27
ATOM     27  S   UNL     1       1.790  -3.838   4.860  0.00  0.00    +0.072 S 
ATOM     28  O   UNL     1       2.618  -4.304   5.917  0.00  0.00    -0.150 OA
ATOM     29  O   UNL     1       0.427  -3.488   5.058  0.00  0.00    -0.150 OA
BRANCH  27  30
ATOM     30  N   UNL     1       2.536  -2.502   4.229  0.00  0.00    -0.216 N 
ATOM     31  H   UNL     1       2.043  -1.672   4.130  0.00  0.00    +0.174 HD
BRANCH  30  35
ATOM     32  C   UNL     1       6.533  -2.700   3.063  0.00  0.00    +0.120 A 
ATOM     33  C   UNL     1       5.596  -2.110   2.228  0.00  0.00    +0.047 A 
ATOM     34  C   UNL     1       4.272  -2.043   2.614  0.00  0.00    +0.028 A 
ATOM     35  C   UNL     1       3.878  -2.569   3.837  0.00  0.00    +0.048 A 
ATOM     36  C   UNL     1       4.817  -3.160   4.672  0.00  0.00    +0.028 A 
ATOM     37  C   UNL     1       6.140  -3.231   4.283  0.00  0.00    +0.047 A 
BRANCH  32  39
ATOM     38  C   UNL     1       8.172  -2.199   1.414  0.00  0.00    +0.277 C 
ATOM     39  O   UNL     1       7.837  -2.765   2.683  0.00  0.00    -0.495 OA
ENDBRANCH  32  39
ENDBRANCH  30  35
ENDBRANCH  27  30
ENDBRANCH   1  27
TORSDOF 8
