REMARK  Name = ZINC39369144
REMARK  10 active torsions:
REMARK  status: ('A' for Active; 'I' for Inactive)
REMARK    1  A    between atoms: C_1  and  C_2
REMARK    2  A    between atoms: C_6  and  C_7
REMARK    3  A    between atoms: C_7  and  C_9
REMARK    4  A    between atoms: C_7  and  C_18
REMARK    5  A    between atoms: C_12  and  O_17
REMARK    6  A    between atoms: C_13  and  O_15
REMARK    7  A    between atoms: O_15  and  C_16
REMARK    8  A    between atoms: C_19  and  C_31
REMARK    9  A    between atoms: N_21  and  C_25
REMARK   10  A    between atoms: C_22  and  O_24
REMARK                            x       y       z     vdW  Elec       q    Type
REMARK                         _______ _______ _______ _____ _____    ______ ____
ROOT
ATOM      1  C   UNL     1      -0.030  -0.325  -2.527  0.00  0.00    +0.088 C 
ENDROOT
BRANCH   1   7
ATOM      2  C   UNL     1       2.101  -1.126  -0.382  0.00  0.00    +0.065 C 
ATOM      3  C   UNL     1       0.605  -1.186  -0.212  0.00  0.00    +0.041 A 
ATOM      4  N   UNL     1      -0.054  -1.589   0.894  0.00  0.00    -0.278 N 
ATOM      5  N   UNL     1      -1.428  -1.494   0.639  0.00  0.00    -0.131 NA
ATOM      6  C   UNL     1      -1.588  -1.047  -0.583  0.00  0.00    +0.292 A 
ATOM      7  C   UNL     1      -0.317  -0.840  -1.140  0.00  0.00    +0.052 A 
ATOM      8  O   UNL     1      -2.777  -0.820  -1.201  0.00  0.00    -0.264 OA
ATOM      9  H   UNL     1       0.353  -1.893   1.721  0.00  0.00    +0.189 HD
ENDBRANCH   1   7
BRANCH   1  10
ATOM     10  C   UNL     1      -1.175  -0.679  -3.441  0.00  0.00    +0.008 C 
ATOM     11  C   UNL     1      -2.011   0.168  -4.003  0.00  0.00    +0.023 C 
ATOM     12  N   UNL     1      -2.949  -0.478  -4.785  0.00  0.00    -0.266 N 
ATOM     13  N   UNL     1      -2.737  -1.863  -4.756  0.00  0.00    -0.221 N 
ATOM     14  C   UNL     1      -1.568  -2.070  -3.885  0.00  0.00    +0.250 C 
ATOM     15  C   UNL     1      -1.954   1.662  -3.814  0.00  0.00    +0.062 C 
ATOM     16  H   UNL     1      -3.654  -0.036  -5.284  0.00  0.00    +0.170 HD
BRANCH  13  17
ATOM     17  C   UNL     1      -3.479  -2.844  -5.419  0.00  0.00    +0.051 A 
ATOM     18  C   UNL     1      -3.141  -4.185  -5.280  0.00  0.00    +0.025 A 
ATOM     19  C   UNL     1      -3.877  -5.152  -5.936  0.00  0.00    +0.002 A 
ATOM     20  C   UNL     1      -4.948  -4.787  -6.731  0.00  0.00    +0.000 A 
ATOM     21  C   UNL     1      -5.286  -3.454  -6.872  0.00  0.00    +0.002 A 
ATOM     22  C   UNL     1      -4.559  -2.482  -6.213  0.00  0.00    +0.025 A 
ENDBRANCH  13  17
BRANCH  14  23
ATOM     23  O   UNL     1      -1.925  -2.871  -2.757  0.00  0.00    -0.369 OA
ATOM     24  H   UNL     1      -2.186  -3.775  -2.983  0.00  0.00    +0.212 HD
ENDBRANCH  14  23
ENDBRANCH   1  10
BRANCH   1  25
ATOM     25  C   UNL     1       1.238  -0.955  -3.044  0.00  0.00    -0.032 A 
ATOM     26  C   UNL     1       1.394  -2.328  -2.999  0.00  0.00    +0.008 A 
ATOM     27  C   UNL     1       2.555  -2.911  -3.472  0.00  0.00    +0.049 A 
ATOM     28  C   UNL     1       3.566  -2.119  -3.992  0.00  0.00    +0.158 A 
ATOM     29  C   UNL     1       3.409  -0.737  -4.038  0.00  0.00    +0.162 A 
ATOM     30  C   UNL     1       2.240  -0.159  -3.567  0.00  0.00    +0.054 A 
BRANCH  29  31
ATOM     31  O   UNL     1       4.397   0.045  -4.548  0.00  0.00    -0.491 OA
ATOM     32  C   UNL     1       4.167   1.456  -4.563  0.00  0.00    +0.277 C 
ENDBRANCH  29  31
BRANCH  28  33
ATOM     33  O   UNL     1       4.709  -2.690  -4.457  0.00  0.00    -0.503 OA
ATOM     34  H   UNL     1       4.679  -2.923  -5.395  0.00  0.00    +0.292 HD
ENDBRANCH  28  33
ENDBRANCH   1  25
TORSDOF 7
