REMARK  Name = ZINC35910033
REMARK  9 active torsions:
REMARK  status: ('A' for Active; 'I' for Inactive)
REMARK    1  A    between atoms: C_1  and  C_2
REMARK    2  A    between atoms: C_2  and  C_3
REMARK    3  A    between atoms: N_7  and  C_27
REMARK    4  A    between atoms: C_11  and  N_16
REMARK    5  A    between atoms: N_16  and  S_17
REMARK    6  A    between atoms: S_17  and  C_20
REMARK    7  A    between atoms: C_27  and  C_29
REMARK    8  A    between atoms: C_27  and  C_31
REMARK    9  A    between atoms: C_29  and  C_30
REMARK                            x       y       z     vdW  Elec       q    Type
REMARK                         _______ _______ _______ _____ _____    ______ ____
ROOT
ATOM      1  C   UNL     1      -2.363  -1.925  -0.498  0.00  0.00    +0.259 C 
ATOM      2  C   UNL     1      -1.467  -2.263   0.654  0.00  0.00    +0.257 C 
ATOM      3  O   UNL     1      -2.046  -2.793   1.578  0.00  0.00    -0.272 OA
ATOM      4  N   UNL     1      -0.223  -2.107   0.856  0.00  0.00    -0.287 N 
ATOM      5  C   UNL     1       0.866  -1.771   0.001  0.00  0.00    +0.147 C 
ATOM      6  C   UNL     1       0.612  -1.599  -1.465  0.00  0.00    +0.013 A 
ATOM      7  C   UNL     1       1.758  -1.203  -2.174  0.00  0.00    +0.033 A 
ATOM      8  C   UNL     1       1.711  -0.941  -3.528  0.00  0.00    +0.049 A 
ATOM      9  C   UNL     1       0.497  -1.065  -4.192  0.00  0.00    +0.028 A 
ATOM     10  C   UNL     1      -0.610  -1.471  -3.496  0.00  0.00    +0.048 A 
ATOM     11  C   UNL     1      -0.554  -1.775  -2.114  0.00  0.00    +0.126 A 
ATOM     12  O   UNL     1      -1.757  -2.289  -1.722  0.00  0.00    -0.479 OA
ENDROOT
BRANCH   1  14
ATOM     13  C   UNL     1      -3.658  -0.087  -1.588  0.00  0.00    +0.008 C 
ATOM     14  C   UNL     1      -2.636  -0.419  -0.499  0.00  0.00    +0.051 C 
ENDBRANCH   1  14
BRANCH   8  15
ATOM     15  N   UNL     1       2.866  -0.557  -4.219  0.00  0.00    -0.216 N 
ATOM     16  H   UNL     1       3.697  -0.421  -3.738  0.00  0.00    +0.174 HD
BRANCH  15  17
ATOM     17  S   UNL     1       2.813  -0.335  -5.860  0.00  0.00    +0.072 S 
ATOM     18  O   UNL     1       1.640   0.420  -6.130  0.00  0.00    -0.150 OA
ATOM     19  O   UNL     1       4.107   0.101  -6.252  0.00  0.00    -0.150 OA
BRANCH  17  20
ATOM     20  C   UNL     1       2.572  -1.920  -6.592  0.00  0.00    +0.110 A 
ATOM     21  C   UNL     1       3.663  -2.704  -6.917  0.00  0.00    +0.029 A 
ATOM     22  C   UNL     1       3.475  -3.947  -7.492  0.00  0.00    +0.003 A 
ATOM     23  C   UNL     1       2.195  -4.406  -7.743  0.00  0.00    +0.020 A 
ATOM     24  C   UNL     1       1.103  -3.621  -7.418  0.00  0.00    +0.043 A 
ATOM     25  C   UNL     1       1.292  -2.380  -6.837  0.00  0.00    +0.048 A 
ATOM     26 CL   UNL     1      -0.504  -4.197  -7.733  0.00  0.00    -0.083 Cl
ENDBRANCH  17  20
ENDBRANCH  15  17
ENDBRANCH   8  15
BRANCH   4  27
ATOM     27  C   UNL     1       0.173  -2.314   2.252  0.00  0.00    +0.106 C 
BRANCH  27  28
ATOM     28  C   UNL     1      -0.670  -1.443   3.147  0.00  0.00    -0.027 A 
ATOM     29  C   UNL     1      -1.040  -0.178   2.731  0.00  0.00    +0.005 A 
ATOM     30  C   UNL     1      -1.813   0.622   3.552  0.00  0.00    +0.000 A 
ATOM     31  C   UNL     1      -2.216   0.156   4.790  0.00  0.00    +0.000 A 
ATOM     32  C   UNL     1      -1.847  -1.110   5.205  0.00  0.00    +0.000 A 
ATOM     33  C   UNL     1      -1.077  -1.911   4.382  0.00  0.00    +0.005 A 
ENDBRANCH  27  28
BRANCH  27  34
ATOM     34  C   UNL     1      -0.034  -3.783   2.628  0.00  0.00    +0.024 C 
ATOM     35  C   UNL     1       0.882  -4.662   1.774  0.00  0.00    +0.006 C 
ENDBRANCH  27  34
ENDBRANCH   4  27
TORSDOF 7
