REMARK  Name = ZINC36646186
REMARK  6 active torsions:
REMARK  status: ('A' for Active; 'I' for Inactive)
REMARK    1  A    between atoms: C_1  and  C_2
REMARK    2  A    between atoms: N_13  and  N_25
REMARK    3  A    between atoms: C_14  and  S_16
REMARK    4  A    between atoms: S_16  and  C_17
REMARK    5  A    between atoms: C_17  and  C_18
REMARK    6  A    between atoms: C_18  and  N_19
REMARK                            x       y       z     vdW  Elec       q    Type
REMARK                         _______ _______ _______ _____ _____    ______ ____
ROOT
ATOM      1  C   UNL     1      -0.019   1.526   0.010  0.00  0.00    +0.008 C 
ATOM      2  C   UNL     1       0.002  -0.004   0.002  0.00  0.00    -0.009 C 
ATOM      3  C   UNL     1       0.726  -0.501  -1.253  0.00  0.00    +0.008 C 
ATOM      4  C   UNL     1       0.536  -2.011  -1.397  0.00  0.00    +0.037 C 
ATOM      5  C   UNL     1       0.950  -2.688  -0.092  0.00  0.00    -0.023 A 
ATOM      6  C   UNL     1       1.032  -1.976   1.055  0.00  0.00    -0.004 A 
ATOM      7  S   UNL     1       1.538  -3.144   2.292  0.00  0.00    -0.073 S 
ATOM      8  C   UNL     1       1.639  -4.581   1.272  0.00  0.00    +0.117 A 
ATOM      9  C   UNL     1       1.273  -4.103  -0.006  0.00  0.00    +0.077 A 
ATOM     10  C   UNL     1       1.257  -5.051  -1.081  0.00  0.00    +0.280 A 
ATOM     11  O   UNL     1       0.955  -4.735  -2.219  0.00  0.00    -0.265 OA
ATOM     12  N   UNL     1       1.598  -6.320  -0.754  0.00  0.00    -0.209 N 
ATOM     13  C   UNL     1       1.938  -6.694   0.511  0.00  0.00    +0.190 A 
ATOM     14  N   UNL     1       1.963  -5.842   1.527  0.00  0.00    -0.215 NA
ATOM     15  C   UNL     1       0.751  -0.516   1.240  0.00  0.00    +0.046 C 
ENDROOT
BRANCH  12  16
ATOM     16  N   UNL     1       1.601  -7.268  -1.737  0.00  0.00    -0.293 N 
ATOM     17  H   UNL     1       1.870  -8.168  -1.370  0.00  0.00    +0.163 HD
ATOM     18  H   UNL     1       0.702  -7.318  -2.194  0.00  0.00    +0.163 HD
ENDBRANCH  12  16
BRANCH  13  19
ATOM     19  S   UNL     1       2.361  -8.378   0.809  0.00  0.00    -0.088 S 
BRANCH  19  20
ATOM     20  C   UNL     1       2.736  -8.429   2.583  0.00  0.00    +0.059 C 
BRANCH  20  21
ATOM     21  C   UNL     1       3.124  -9.854   2.981  0.00  0.00    -0.068 C 
BRANCH  21  22
ATOM     22  N   UNL     1       3.428  -9.896   4.418  0.00  0.00    +0.380 N 
ATOM     23  C   UNL     1       4.611  -9.071   4.690  0.00  0.00    -0.079 C 
ATOM     24  C   UNL     1       4.884  -9.046   6.196  0.00  0.00    -0.019 C 
ATOM     25  C   UNL     1       5.130 -10.474   6.689  0.00  0.00    -0.004 C 
ATOM     26  C   UNL     1       3.920 -11.342   6.333  0.00  0.00    -0.019 C 
ATOM     27  C   UNL     1       3.683 -11.283   4.823  0.00  0.00    -0.079 C 
ATOM     28  H   UNL     1       2.642  -9.534   4.937  0.00  0.00    -0.082 HD
ENDBRANCH  21  22
ENDBRANCH  20  21
ENDBRANCH  19  20
ENDBRANCH  13  19
TORSDOF 5
