REMARK  Name = ZINC38925898
REMARK  4 active torsions:
REMARK  status: ('A' for Active; 'I' for Inactive)
REMARK    1  A    between atoms: C_4  and  C_7
REMARK    2  A    between atoms: C_17  and  C_19
REMARK    3  A    between atoms: N_21  and  N_22
REMARK    4  A    between atoms: C_23  and  C_24
REMARK                            x       y       z     vdW  Elec       q    Type
REMARK                         _______ _______ _______ _____ _____    ______ ____
ROOT
ATOM      1  C   UNL     1       3.711  -0.707  -0.038  0.00  0.00    +0.065 C 
ATOM      2  C   UNL     1       3.795  -1.670  -1.229  0.00  0.00    +0.071 C 
ATOM      3  C   UNL     1       3.132  -1.074  -2.442  0.00  0.00    -0.002 C 
ATOM      4  C   UNL     1       2.408  -1.909  -3.204  0.00  0.00    +0.015 C 
ATOM      5  C   UNL     1       2.273  -3.322  -2.865  0.00  0.00    +0.017 C 
ATOM      6  C   UNL     1       2.644  -3.836  -1.673  0.00  0.00    +0.024 C 
ATOM      7  C   UNL     1       3.226  -2.973  -0.695  0.00  0.00    +0.044 C 
ATOM      8  N   UNL     1       3.276  -2.979   0.594  0.00  0.00    -0.274 NA
ATOM      9  C   UNL     1       3.807  -1.718   1.136  0.00  0.00    +0.201 C 
ATOM     10 BR   UNL     1       1.546  -1.241  -4.748  0.00  0.00    -0.051 Br
ENDROOT
BRANCH   1  14
ATOM     11  C   UNL     1      -0.017   1.378   0.010  0.00  0.00    +0.000 A 
ATOM     12  C   UNL     1       1.171   2.086   0.002  0.00  0.00    +0.000 A 
ATOM     13  C   UNL     1       2.377   1.411  -0.013  0.00  0.00    +0.004 A 
ATOM     14  C   UNL     1       2.396   0.029  -0.020  0.00  0.00    -0.041 A 
ATOM     15  C   UNL     1       1.208  -0.679  -0.012  0.00  0.00    +0.004 A 
ATOM     16  C   UNL     1       0.002  -0.004   0.002  0.00  0.00    +0.000 A 
ENDBRANCH   1  14
BRANCH   9  17
ATOM     17  C   UNL     1       2.969  -1.252   2.299  0.00  0.00    +0.257 C 
ATOM     18  O   UNL     1       1.869  -1.729   2.482  0.00  0.00    -0.272 OA
ATOM     19  N   UNL     1       3.441  -0.306   3.134  0.00  0.00    -0.205 N 
ATOM     20  H   UNL     1       4.321   0.075   2.986  0.00  0.00    +0.177 HD
BRANCH  19  21
ATOM     21  N   UNL     1       2.662   0.127   4.214  0.00  0.00    -0.188 NA
ATOM     22  C   UNL     1       3.121   1.047   5.026  0.00  0.00    +0.136 C 
BRANCH  22  23
ATOM     23  C   UNL     1       2.341   1.480   6.107  0.00  0.00    +0.000 C 
ATOM     24  C   UNL     1       2.676   2.446   7.053  0.00  0.00    +0.004 A 
ATOM     25  C   UNL     1       3.823   3.252   7.230  0.00  0.00    +0.010 A 
ATOM     26  C   UNL     1       3.876   4.127   8.265  0.00  0.00    +0.001 A 
ATOM     27  C   UNL     1       2.820   4.257   9.171  0.00  0.00    +0.002 A 
ATOM     28  C   UNL     1       1.690   3.518   9.063  0.00  0.00    +0.026 A 
ATOM     29  C   UNL     1       1.559   2.579   8.005  0.00  0.00    +0.043 A 
ATOM     30  N   UNL     1       0.583   1.756   7.687  0.00  0.00    -0.380 N 
ATOM     31  C   UNL     1       0.957   1.001   6.487  0.00  0.00    +0.150 C 
ATOM     32  H   UNL     1      -0.255   1.665   8.168  0.00  0.00    +0.160 HD
ENDBRANCH  22  23
ENDBRANCH  19  21
ENDBRANCH   9  17
TORSDOF 4
