REMARK  Name = ZINC39362439
REMARK  9 active torsions:
REMARK  status: ('A' for Active; 'I' for Inactive)
REMARK    1  A    between atoms: C_1  and  O_2
REMARK    2  A    between atoms: O_2  and  C_3
REMARK    3  A    between atoms: C_6  and  N_9
REMARK    4  A    between atoms: C_10  and  C_26
REMARK    5  A    between atoms: C_14  and  S_15
REMARK    6  A    between atoms: S_15  and  C_16
REMARK    7  A    between atoms: C_16  and  C_17
REMARK    8  A    between atoms: C_21  and  N_23
REMARK    9  A    between atoms: C_26  and  C_27
REMARK                            x       y       z     vdW  Elec       q    Type
REMARK                         _______ _______ _______ _____ _____    ______ ____
ROOT
ATOM      1  N   UNL     1       2.540  -2.503   4.230  0.00  0.00    -0.258 N 
ATOM      2  C   UNL     1       2.608  -3.952   4.484  0.00  0.00    +0.187 C 
ATOM      3  N   UNL     1       3.395  -4.058   5.725  0.00  0.00    -0.246 N 
ATOM      4  N   UNL     1       3.717  -2.746   6.095  0.00  0.00    -0.162 NA
ATOM      5  C   UNL     1       3.243  -1.888   5.256  0.00  0.00    +0.180 C 
ATOM      6  H   UNL     1       3.640  -4.872   6.192  0.00  0.00    +0.170 HD
ENDROOT
BRANCH   1  10
ATOM      7  C   UNL     1       0.626  -0.618   1.043  0.00  0.00    +0.120 A 
ATOM      8  C   UNL     1       0.155  -0.443   2.336  0.00  0.00    +0.047 A 
ATOM      9  C   UNL     1       0.788  -1.067   3.392  0.00  0.00    +0.027 A 
ATOM     10  C   UNL     1       1.897  -1.870   3.160  0.00  0.00    +0.038 A 
ATOM     11  C   UNL     1       2.368  -2.045   1.865  0.00  0.00    +0.027 A 
ATOM     12  C   UNL     1       1.730  -1.425   0.809  0.00  0.00    +0.047 A 
BRANCH   7  14
ATOM     13  C   UNL     1      -1.129   0.813   0.316  0.00  0.00    +0.277 C 
ATOM     14  O   UNL     1       0.002  -0.003   0.003  0.00  0.00    -0.495 OA
ENDBRANCH   7  14
ENDBRANCH   1  10
BRANCH   5  15
ATOM     15  S   UNL     1       3.457  -0.145   5.400  0.00  0.00    -0.084 S 
BRANCH  15  16
ATOM     16  C   UNL     1       4.442   0.053   6.910  0.00  0.00    +0.112 C 
BRANCH  16  17
ATOM     17  C   UNL     1       4.700   1.518   7.152  0.00  0.00    -0.035 A 
ATOM     18  C   UNL     1       5.822   2.121   6.613  0.00  0.00    +0.004 A 
ATOM     19  C   UNL     1       6.059   3.464   6.835  0.00  0.00    +0.003 A 
ATOM     20  C   UNL     1       5.175   4.205   7.597  0.00  0.00    +0.033 A 
ATOM     21  C   UNL     1       4.053   3.603   8.136  0.00  0.00    +0.126 A 
ATOM     22  C   UNL     1       3.814   2.260   7.910  0.00  0.00    +0.037 A 
BRANCH  21  23
ATOM     23  N   UNL     1       3.107   4.397   8.952  0.00  0.00    +0.056 N 
ATOM     24  O   UNL     1       3.315   5.572   9.147  0.00  0.00    -0.126 OA
ATOM     25  O   UNL     1       2.126   3.870   9.423  0.00  0.00    -0.126 OA
ENDBRANCH  21  23
ENDBRANCH  16  17
ENDBRANCH  15  16
ENDBRANCH   5  15
BRANCH   2  26
ATOM     26  C   UNL     1       1.205  -4.529   4.684  0.00  0.00    +0.097 C 
BRANCH  26  27
ATOM     27  C   UNL     1       1.303  -6.010   4.942  0.00  0.00    +0.029 A 
ATOM     28  N   UNL     1       1.376  -6.887   3.894  0.00  0.00    -0.311 N 
ATOM     29  C   UNL     1       1.464  -8.211   4.113  0.00  0.00    +0.327 A 
ATOM     30  O   UNL     1       1.527  -8.973   3.167  0.00  0.00    -0.247 OA
ATOM     31  N   UNL     1       1.483  -8.706   5.365  0.00  0.00    -0.275 N 
ATOM     32  C   UNL     1       1.413  -7.875   6.425  0.00  0.00    +0.254 A 
ATOM     33  O   UNL     1       1.430  -8.321   7.558  0.00  0.00    -0.268 OA
ATOM     34  C   UNL     1       1.325  -6.479   6.208  0.00  0.00    +0.091 A 
ATOM     35  H   UNL     1       1.546  -9.663   5.505  0.00  0.00    +0.173 HD
ATOM     36  H   UNL     1       1.363  -6.550   2.984  0.00  0.00    +0.170 HD
ENDBRANCH  26  27
ENDBRANCH   2  26
TORSDOF 8
