REMARK  Name = ZINC15679490
REMARK  5 active torsions:
REMARK  status: ('A' for Active; 'I' for Inactive)
REMARK    1  A    between atoms: C_1  and  C_2
REMARK    2  A    between atoms: C_5  and  C_8
REMARK    3  A    between atoms: C_20  and  C_23
REMARK    4  A    between atoms: N_25  and  C_26
REMARK    5  A    between atoms: C_26  and  C_27
REMARK                            x       y       z     vdW  Elec       q    Type
REMARK                         _______ _______ _______ _____ _____    ______ ____
ROOT
ATOM      1  C   UNL     1       2.685   7.857   8.795  0.00  0.00    +0.092 A 
ATOM      2  C   UNL     1       1.338   7.949   8.936  0.00  0.00    +0.143 A 
ATOM      3  N   UNL     1       0.765   7.621   7.716  0.00  0.00    -0.211 N 
ATOM      4  C   UNL     1       1.820   7.345   6.889  0.00  0.00    +0.197 A 
ATOM      5  N   UNL     1       2.946   7.484   7.526  0.00  0.00    -0.220 NA
ATOM      6  S   UNL     1       1.012   6.937   5.359  0.00  0.00    -0.013 S 
ATOM      7  C   UNL     1      -0.671   7.159   5.913  0.00  0.00    +0.184 A 
ATOM      8  N   UNL     1      -0.505   7.516   7.159  0.00  0.00    -0.142 NA
ATOM      9  N   UNL     1      -1.850   7.001   5.203  0.00  0.00    -0.307 N 
ATOM     10  C   UNL     1      -2.658   8.226   5.243  0.00  0.00    +0.107 C 
ATOM     11  C   UNL     1      -4.011   7.969   4.575  0.00  0.00    +0.020 C 
ATOM     12  C   UNL     1      -3.784   7.532   3.125  0.00  0.00    +0.016 C 
ATOM     13  C   UNL     1      -2.900   6.282   3.110  0.00  0.00    +0.092 C 
ATOM     14  C   UNL     1      -1.579   6.587   3.820  0.00  0.00    +0.119 C 
ENDROOT
BRANCH   1  19
ATOM     15  C   UNL     1       6.595   8.884  12.896  0.00  0.00    +0.044 C 
ATOM     16  C   UNL     1       5.572   8.615  11.823  0.00  0.00    -0.050 A 
ATOM     17  C   UNL     1       5.983   8.238  10.557  0.00  0.00    +0.004 A 
ATOM     18  C   UNL     1       5.051   7.991   9.571  0.00  0.00    +0.010 A 
ATOM     19  C   UNL     1       3.692   8.122   9.851  0.00  0.00    +0.002 A 
ATOM     20  C   UNL     1       3.283   8.508  11.127  0.00  0.00    +0.010 A 
ATOM     21  C   UNL     1       4.224   8.747  12.107  0.00  0.00    +0.004 A 
ENDBRANCH   1  19
BRANCH  13  22
ATOM     22  C   UNL     1      -2.623   5.878   1.685  0.00  0.00    +0.218 C 
ATOM     23  O   UNL     1      -3.087   6.527   0.770  0.00  0.00    -0.275 OA
ATOM     24  N   UNL     1      -1.861   4.798   1.426  0.00  0.00    -0.308 N 
ATOM     25  H   UNL     1      -1.490   4.279   2.157  0.00  0.00    +0.149 HD
BRANCH  24  26
ATOM     26  C   UNL     1      -1.592   4.406   0.040  0.00  0.00    +0.178 C 
BRANCH  26  27
ATOM     27  C   UNL     1      -0.722   3.175   0.026  0.00  0.00    +0.122 A 
ATOM     28  C   UNL     1      -1.159   1.903   0.017  0.00  0.00    +0.046 A 
ATOM     29  C   UNL     1      -0.013   1.076   0.008  0.00  0.00    +0.041 A 
ATOM     30  C   UNL     1       1.057   1.892   0.002  0.00  0.00    +0.195 A 
ATOM     31  O   UNL     1       0.621   3.162   0.013  0.00  0.00    -0.466 OA
ENDBRANCH  26  27
ENDBRANCH  24  26
ENDBRANCH  13  22
TORSDOF 4
