REMARK  Name = ZINC28059307
REMARK  9 active torsions:
REMARK  status: ('A' for Active; 'I' for Inactive)
REMARK    1  A    between atoms: C_1  and  C_2
REMARK    2  A    between atoms: C_10  and  C_13
REMARK    3  A    between atoms: C_16  and  S_19
REMARK    4  A    between atoms: S_19  and  C_20
REMARK    5  A    between atoms: C_21  and  C_29
REMARK    6  A    between atoms: C_31  and  O_37
REMARK    7  A    between atoms: C_34  and  O_35
REMARK    8  A    between atoms: O_35  and  C_36
REMARK    9  A    between atoms: O_37  and  C_38
REMARK                            x       y       z     vdW  Elec       q    Type
REMARK                         _______ _______ _______ _____ _____    ______ ____
ROOT
ATOM      1  C   UNL     1       3.145   8.479   0.867  0.00  0.00    +0.044 C 
ATOM      2  C   UNL     1       3.811   7.141   1.057  0.00  0.00    -0.050 A 
ATOM      3  C   UNL     1       5.067   7.072   1.635  0.00  0.00    +0.007 A 
ATOM      4  C   UNL     1       5.691   5.851   1.815  0.00  0.00    +0.046 A 
ATOM      5  C   UNL     1       5.056   4.690   1.417  0.00  0.00    +0.131 A 
ATOM      6  C   UNL     1       3.783   4.758   0.834  0.00  0.00    +0.038 A 
ATOM      7  C   UNL     1       3.164   5.988   0.655  0.00  0.00    +0.016 A 
ATOM      8  C   UNL     1       3.129   3.493   0.422  0.00  0.00    +0.050 C 
ATOM      9  C   UNL     1       3.881   2.396   0.309  0.00  0.00    +0.026 C 
ATOM     10  C   UNL     1       5.366   2.491   0.574  0.00  0.00    +0.234 C 
ATOM     11  O   UNL     1       5.635   3.473   1.575  0.00  0.00    -0.479 OA
ATOM     12  C   UNL     1       3.302   1.058  -0.080  0.00  0.00    +0.178 C 
ATOM     13  N   UNL     1       1.849   1.099  -0.006  0.00  0.00    -0.201 N 
ATOM     14  C   UNL     1       1.129   2.245   0.108  0.00  0.00    +0.240 A 
ATOM     15  N   UNL     1      -0.130   1.913   0.133  0.00  0.00    -0.092 NA
ATOM     16  N   UNL     1      -0.255   0.633   0.049  0.00  0.00    -0.021 NA
ATOM     17  N   UNL     1       0.907   0.071  -0.037  0.00  0.00    -0.042 NA
ATOM     18  N   UNL     1       1.749   3.482   0.184  0.00  0.00    -0.282 N 
ATOM     19  H   UNL     1       1.204   4.429   0.066  0.00  0.00    +0.155 HD
ENDROOT
BRANCH  10  20
ATOM     20  C   UNL     1       6.075   2.872  -0.700  0.00  0.00    -0.003 A 
ATOM     21  C   UNL     1       5.962   4.159  -1.194  0.00  0.00    +0.008 A 
ATOM     22  C   UNL     1       6.615   4.513  -2.358  0.00  0.00    +0.015 A 
ATOM     23  C   UNL     1       7.376   3.571  -3.040  0.00  0.00    +0.008 A 
ATOM     24  C   UNL     1       7.483   2.278  -2.543  0.00  0.00    +0.015 A 
ATOM     25  C   UNL     1       6.832   1.932  -1.376  0.00  0.00    +0.008 A 
BRANCH  23  26
ATOM     26  S   UNL     1       8.204   4.017  -4.530  0.00  0.00    -0.129 S 
ATOM     27  C   UNL     1       7.776   5.763  -4.765  0.00  0.00    +0.090 C 
ENDBRANCH  23  26
ENDBRANCH  10  20
BRANCH  12  28
ATOM     28  C   UNL     1       3.722   0.722  -1.488  0.00  0.00    +0.026 A 
ATOM     29  C   UNL     1       3.357   1.548  -2.533  0.00  0.00    +0.055 A 
ATOM     30  C   UNL     1       3.743   1.239  -3.829  0.00  0.00    +0.121 A 
ATOM     31  C   UNL     1       4.497   0.101  -4.075  0.00  0.00    +0.049 A 
ATOM     32  C   UNL     1       4.862  -0.725  -3.030  0.00  0.00    +0.049 A 
ATOM     33  C   UNL     1       4.480  -0.413  -1.733  0.00  0.00    +0.126 A 
BRANCH  33  34
ATOM     34  O   UNL     1       4.844  -1.223  -0.703  0.00  0.00    -0.495 OA
ATOM     35  C   UNL     1       5.625  -2.375  -1.029  0.00  0.00    +0.277 C 
ENDBRANCH  33  34
BRANCH  30  36
ATOM     36  O   UNL     1       3.384   2.052  -4.857  0.00  0.00    -0.495 OA
ATOM     37  C   UNL     1       3.817   1.673  -6.165  0.00  0.00    +0.277 C 
ENDBRANCH  30  36
ENDBRANCH  12  28
TORSDOF 5
