REMARK  Name = ZINC05128862
REMARK  2 active torsions:
REMARK  status: ('A' for Active; 'I' for Inactive)
REMARK    1  A    between atoms: C_4  and  C_7
REMARK    2  A    between atoms: C_12  and  C_25
REMARK                            x       y       z     vdW  Elec       q    Type
REMARK                         _______ _______ _______ _____ _____    ______ ____
ROOT
ATOM      1  C   UNL     1       3.670   5.604  -1.458  0.00  0.00    +0.031 C 
ATOM      2  C   UNL     1       2.451   5.311  -0.578  0.00  0.00    +0.045 C 
ATOM      3  C   UNL     1       2.442   3.853  -0.196  0.00  0.00    -0.029 C 
ATOM      4  C   UNL     1       3.620   3.193  -0.017  0.00  0.00    +0.023 C 
ATOM      5  C   UNL     1       3.637   1.743   0.403  0.00  0.00    +0.137 C 
ATOM      6  N   UNL     1       2.394   1.073   0.022  0.00  0.00    -0.332 N 
ATOM      7  C   UNL     1       1.198   1.771   0.000  0.00  0.00    +0.036 A 
ATOM      8  C   UNL     1       1.215   3.174  -0.023  0.00  0.00    +0.007 A 
ATOM      9  C   UNL     1      -0.056   3.879   0.149  0.00  0.00    -0.009 A 
ATOM     10  C   UNL     1      -0.133   5.244   0.431  0.00  0.00    +0.009 A 
ATOM     11  C   UNL     1      -1.349   5.860   0.519  0.00  0.00    +0.001 A 
ATOM     12  C   UNL     1      -2.527   5.142   0.338  0.00  0.00    +0.001 A 
ATOM     13  C   UNL     1      -2.493   3.799   0.118  0.00  0.00    +0.008 A 
ATOM     14  C   UNL     1      -1.259   3.131   0.078  0.00  0.00    -0.017 A 
ATOM     15  C   UNL     1      -1.204   1.726   0.002  0.00  0.00    +0.010 A 
ATOM     16  C   UNL     1      -0.013   1.076   0.008  0.00  0.00    +0.024 A 
ATOM     17  C   UNL     1       4.853   3.835  -0.212  0.00  0.00    +0.162 C 
ATOM     18  O   UNL     1       5.886   3.219  -0.029  0.00  0.00    -0.292 OA
ATOM     19  C   UNL     1       4.928   5.274  -0.649  0.00  0.00    +0.088 C 
ATOM     20  H   UNL     1       2.405   0.126  -0.216  0.00  0.00    +0.147 HD
ENDROOT
BRANCH   5  21
ATOM     21  C   UNL     1       3.813   1.657   1.897  0.00  0.00    +0.012 A 
ATOM     22  C   UNL     1       2.718   1.438   2.711  0.00  0.00    +0.008 A 
ATOM     23  C   UNL     1       2.879   1.358   4.081  0.00  0.00    +0.001 A 
ATOM     24  C   UNL     1       4.137   1.497   4.639  0.00  0.00    +0.003 A 
ATOM     25  C   UNL     1       5.233   1.717   3.828  0.00  0.00    +0.039 A 
ATOM     26  C   UNL     1       5.073   1.792   2.454  0.00  0.00    +0.129 A 
ATOM     27  F   UNL     1       6.145   2.001   1.659  0.00  0.00    -0.205 F 
ENDBRANCH   5  21
BRANCH   1  31
ATOM     28  C   UNL     1       3.698   9.735  -2.548  0.00  0.00    +0.000 A 
ATOM     29  C   UNL     1       3.641   8.762  -3.528  0.00  0.00    +0.000 A 
ATOM     30  C   UNL     1       3.631   7.425  -3.175  0.00  0.00    +0.004 A 
ATOM     31  C   UNL     1       3.680   7.061  -1.843  0.00  0.00    -0.044 A 
ATOM     32  C   UNL     1       3.732   8.035  -0.862  0.00  0.00    +0.004 A 
ATOM     33  C   UNL     1       3.746   9.371  -1.215  0.00  0.00    +0.000 A 
ENDBRANCH   1  31
TORSDOF 2
