REMARK  Name = ZINC39777067
REMARK  6 active torsions:
REMARK  status: ('A' for Active; 'I' for Inactive)
REMARK    1  A    between atoms: C_2  and  C_3
REMARK    2  A    between atoms: C_3  and  N_4
REMARK    3  A    between atoms: C_5  and  C_22
REMARK    4  A    between atoms: C_8  and  S_9
REMARK    5  A    between atoms: S_9  and  C_10
REMARK    6  A    between atoms: C_10  and  C_11
REMARK                            x       y       z     vdW  Elec       q    Type
REMARK                         _______ _______ _______ _____ _____    ______ ____
ROOT
ATOM      1  N   UNL     1       1.367  -1.676   1.111  0.00  0.00    -0.299 N 
ATOM      2  C   UNL     1       1.833  -1.425   2.373  0.00  0.00    +0.179 A 
ATOM      3  N   UNL     1       1.697  -2.523   3.061  0.00  0.00    -0.129 NA
ATOM      4  N   UNL     1       1.181  -3.444   2.327  0.00  0.00    -0.122 NA
ATOM      5  C   UNL     1       0.954  -2.977   1.121  0.00  0.00    +0.192 A 
ENDROOT
BRANCH   2   6
ATOM      6  C   UNL     1       2.398  -0.122   2.874  0.00  0.00    +0.278 C 
ATOM      7  C   UNL     1       3.923  -0.235   3.006  0.00  0.00    +0.281 C 
ATOM      8  O   UNL     1       4.425   1.013   3.496  0.00  0.00    -0.484 OA
ATOM      9  C   UNL     1       3.764   1.566   4.550  0.00  0.00    +0.162 A 
ATOM     10  C   UNL     1       4.384   2.556   5.298  0.00  0.00    +0.049 A 
ATOM     11  C   UNL     1       3.724   3.129   6.369  0.00  0.00    +0.004 A 
ATOM     12  C   UNL     1       2.446   2.718   6.697  0.00  0.00    +0.004 A 
ATOM     13  C   UNL     1       1.823   1.731   5.956  0.00  0.00    +0.049 A 
ATOM     14  C   UNL     1       2.480   1.151   4.881  0.00  0.00    +0.163 A 
ATOM     15  O   UNL     1       1.856   0.175   4.166  0.00  0.00    -0.474 OA
ENDBRANCH   2   6
BRANCH   1  16
ATOM     16  C   UNL     1       1.317  -0.740  -0.015  0.00  0.00    +0.152 C 
BRANCH  16  18
ATOM     17  C   UNL     1      -0.016   1.306   0.009  0.00  0.00    +0.005 C 
ATOM     18  C   UNL     1       0.002  -0.004   0.002  0.00  0.00    -0.013 C 
ENDBRANCH  16  18
ENDBRANCH   1  16
BRANCH   5  19
ATOM     19  S   UNL     1       0.251  -3.863  -0.230  0.00  0.00    -0.078 S 
BRANCH  19  20
ATOM     20  C   UNL     1      -0.067  -5.515   0.447  0.00  0.00    +0.150 C 
BRANCH  20  21
ATOM     21  C   UNL     1      -0.677  -6.386  -0.621  0.00  0.00    +0.133 C 
ATOM     22  N   UNL     1      -0.876  -5.869  -1.815  0.00  0.00    -0.164 NA
ATOM     23  C   UNL     1      -1.620  -6.465  -2.757  0.00  0.00    +0.257 C 
ATOM     24  O   UNL     1      -1.640  -6.059  -3.902  0.00  0.00    -0.272 OA
ATOM     25  C   UNL     1      -2.424  -7.654  -2.334  0.00  0.00    +0.187 C 
ATOM     26  C   UNL     1      -1.659  -8.354  -1.217  0.00  0.00    +0.066 C 
ATOM     27  N   UNL     1      -0.984  -7.641  -0.315  0.00  0.00    -0.237 NA
ATOM     28  C   UNL     1      -1.583  -9.707  -1.431  0.00  0.00    +0.032 C 
ATOM     29  C   UNL     1      -1.963 -10.257  -2.615  0.00  0.00    +0.043 C 
ATOM     30  S   UNL     1      -2.509  -8.971  -3.591  0.00  0.00    -0.114 S 
ENDBRANCH  20  21
ENDBRANCH  19  20
ENDBRANCH   5  19
TORSDOF 6
