REMARK  Name = ZINC12833006
REMARK  14 active torsions:
REMARK  status: ('A' for Active; 'I' for Inactive)
REMARK    1  A    between atoms: C_1  and  C_2
REMARK    2  A    between atoms: C_2  and  C_3
REMARK    3  A    between atoms: C_3  and  C_4
REMARK    4  A    between atoms: C_3  and  C_5
REMARK    5  A    between atoms: C_3  and  N_6
REMARK    6  A    between atoms: C_7  and  C_11
REMARK    7  A    between atoms: C_11  and  N_68
REMARK    8  A    between atoms: C_12  and  C_13
REMARK    9  A    between atoms: C_12  and  N_68
REMARK   10  A    between atoms: C_13  and  C_14
REMARK   11  A    between atoms: C_20  and  C_21
REMARK   12  A    between atoms: C_20  and  N_68
REMARK   13  A    between atoms: C_25  and  C_34
REMARK   14  A    between atoms: C_27  and  C_33
REMARK                            x       y       z     vdW  Elec       q    Type
REMARK                         _______ _______ _______ _____ _____    ______ ____
ROOT
ATOM      1  N   UNL     1      -1.317   8.591  -1.115  0.00  0.00    +0.387 N 
ATOM      2  H   UNL     1      -0.606   8.674  -1.851  0.00  0.00    -0.081 HD
ENDROOT
BRANCH   1   3
ATOM      3  C   UNL     1      -2.324   7.592  -1.531  0.00  0.00    +0.001 C 
BRANCH   3   5
ATOM      4  N   UNL     1      -4.545   6.756  -0.597  0.00  0.00    -0.226 N 
ATOM      5  C   UNL     1      -3.411   7.474  -0.494  0.00  0.00    +0.136 A 
ATOM      6  N   UNL     1      -3.439   8.055   0.680  0.00  0.00    -0.115 NA
ATOM      7  N   UNL     1      -4.531   7.708   1.270  0.00  0.00    -0.023 NA
ATOM      8  N   UNL     1      -5.200   6.920   0.502  0.00  0.00    -0.043 NA
BRANCH   4   9
ATOM      9  C   UNL     1      -4.957   5.939  -1.741  0.00  0.00    +0.061 C 
ATOM     10  C   UNL     1      -5.106   6.829  -2.977  0.00  0.00    +0.036 C 
ATOM     11  C   UNL     1      -3.898   4.867  -2.010  0.00  0.00    +0.036 C 
BRANCH   9  13
ATOM     12  C   UNL     1      -6.667   4.319  -2.575  0.00  0.00    +0.006 C 
ATOM     13  C   UNL     1      -6.296   5.266  -1.432  0.00  0.00    +0.026 C 
ENDBRANCH   9  13
ENDBRANCH   4   9
ENDBRANCH   3   5
ENDBRANCH   1   3
BRANCH   1  14
ATOM     14  C   UNL     1      -1.962   9.907  -0.920  0.00  0.00    -0.073 C 
BRANCH  14  15
ATOM     15  C   UNL     1      -2.398  10.449  -2.283  0.00  0.00    +0.016 C 
BRANCH  15  16
ATOM     16  C   UNL     1      -2.913  11.856  -2.123  0.00  0.00    -0.049 A 
ATOM     17  C   UNL     1      -4.234  12.073  -1.776  0.00  0.00    +0.003 A 
ATOM     18  C   UNL     1      -4.705  13.364  -1.624  0.00  0.00    +0.000 A 
ATOM     19  C   UNL     1      -3.859  14.437  -1.829  0.00  0.00    +0.000 A 
ATOM     20  C   UNL     1      -2.540  14.220  -2.182  0.00  0.00    +0.000 A 
ATOM     21  C   UNL     1      -2.067  12.930  -2.328  0.00  0.00    +0.003 A 
ENDBRANCH  15  16
ENDBRANCH  14  15
ENDBRANCH   1  14
BRANCH   1  22
ATOM     22  C   UNL     1      -0.664   8.159   0.138  0.00  0.00    -0.037 C 
BRANCH  22  23
ATOM     23  C   UNL     1       0.166   6.933  -0.145  0.00  0.00    +0.001 A 
ATOM     24  C   UNL     1       1.484   7.062  -0.436  0.00  0.00    +0.017 A 
ATOM     25  C   UNL     1       2.263   5.852  -0.706  0.00  0.00    -0.001 A 
ATOM     26  C   UNL     1       3.626   5.922  -1.013  0.00  0.00    +0.013 A 
ATOM     27  C   UNL     1       4.324   4.774  -1.260  0.00  0.00    -0.050 A 
ATOM     28  C   UNL     1       3.692   3.538  -1.210  0.00  0.00    +0.008 A 
ATOM     29  C   UNL     1       2.349   3.446  -0.915  0.00  0.00    -0.026 A 
ATOM     30  C   UNL     1       1.619   4.601  -0.654  0.00  0.00    +0.052 A 
ATOM     31  N   UNL     1       0.276   4.538  -0.352  0.00  0.00    -0.322 N 
ATOM     32  H   UNL     1      -0.166   3.675  -0.316  0.00  0.00    +0.169 HD
ATOM     33  C   UNL     1      -0.431   5.655  -0.105  0.00  0.00    +0.251 A 
ATOM     34  O   UNL     1      -1.617   5.561   0.159  0.00  0.00    -0.268 OA
ATOM     35  C   UNL     1       1.676   2.099  -0.869  0.00  0.00    +0.046 C 
ATOM     36  C   UNL     1       5.792   4.849  -1.590  0.00  0.00    +0.044 C 
ENDBRANCH  22  23
ENDBRANCH   1  22
TORSDOF 9
