REMARK  Name = ZINC40310036
REMARK  8 active torsions:
REMARK  status: ('A' for Active; 'I' for Inactive)
REMARK    1  A    between atoms: C_1  and  N_2
REMARK    2  A    between atoms: C_7  and  O_26
REMARK    3  A    between atoms: C_10  and  S_11
REMARK    4  A    between atoms: S_11  and  N_14
REMARK    5  A    between atoms: N_17  and  C_20
REMARK    6  A    between atoms: C_20  and  C_21
REMARK    7  A    between atoms: C_21  and  O_22
REMARK    8  A    between atoms: O_26  and  C_27
REMARK                            x       y       z     vdW  Elec       q    Type
REMARK                         _______ _______ _______ _____ _____    ______ ____
ROOT
ATOM      1  C   UNL     1      -0.266   1.433   0.712  0.00  0.00    +0.105 C 
ATOM      2  N   UNL     1      -0.184  -0.021   0.519  0.00  0.00    -0.301 NA
ATOM      3  C   UNL     1      -1.526  -0.625   0.484  0.00  0.00    +0.089 C 
ATOM      4  C   UNL     1      -1.406  -2.042  -0.077  0.00  0.00    +0.053 C 
ATOM      5  C   UNL     1      -0.326  -2.796   0.656  0.00  0.00    -0.008 A 
ATOM      6  C   UNL     1       0.621  -2.145   1.418  0.00  0.00    +0.017 A 
ATOM      7  C   UNL     1       1.604  -2.879   2.074  0.00  0.00    +0.170 A 
ATOM      8  C   UNL     1       1.634  -4.262   1.970  0.00  0.00    +0.210 A 
ATOM      9  C   UNL     1       0.675  -4.915   1.203  0.00  0.00    +0.196 A 
ATOM     10  C   UNL     1      -0.300  -4.179   0.551  0.00  0.00    +0.154 A 
ATOM     11  O   UNL     1       0.913  -6.258   1.257  0.00  0.00    -0.450 OA
ATOM     12  C   UNL     1       2.267  -6.390   1.728  0.00  0.00    +0.467 C 
ATOM     13  O   UNL     1       2.477  -5.195   2.504  0.00  0.00    -0.449 OA
ATOM     14  C   UNL     1       0.626  -0.646   1.569  0.00  0.00    +0.123 C 
ENDROOT
BRANCH  10  15
ATOM     15  S   UNL     1      -1.516  -5.005  -0.420  0.00  0.00    +0.065 S 
ATOM     16  O   UNL     1      -1.945  -4.078  -1.408  0.00  0.00    -0.153 OA
ATOM     17  O   UNL     1      -0.975  -6.276  -0.752  0.00  0.00    -0.153 OA
BRANCH  15  18
ATOM     18  N   UNL     1      -2.819  -5.286   0.562  0.00  0.00    -0.174 NA
ATOM     19  C   UNL     1      -2.845  -6.444   1.468  0.00  0.00    +0.125 C 
ATOM     20  C   UNL     1      -3.201  -5.953   2.876  0.00  0.00    +0.101 C 
ATOM     21  N   UNL     1      -4.449  -5.180   2.820  0.00  0.00    -0.298 NA
ATOM     22  C   UNL     1      -4.292  -3.975   1.995  0.00  0.00    +0.101 C 
ATOM     23  C   UNL     1      -3.978  -4.381   0.556  0.00  0.00    +0.125 C 
BRANCH  21  24
ATOM     24  C   UNL     1      -4.916  -4.837   4.170  0.00  0.00    +0.112 C 
BRANCH  24  25
ATOM     25  C   UNL     1      -6.330  -4.257   4.088  0.00  0.00    +0.171 C 
BRANCH  25  26
ATOM     26  O   UNL     1      -7.231  -5.263   3.620  0.00  0.00    -0.394 OA
ATOM     27  H   UNL     1      -8.147  -4.964   3.543  0.00  0.00    +0.209 HD
ENDBRANCH  25  26
ENDBRANCH  24  25
ENDBRANCH  21  24
ENDBRANCH  15  18
ENDBRANCH  10  15
BRANCH   7  28
ATOM     28  O   UNL     1       2.541  -2.236   2.822  0.00  0.00    -0.491 OA
ATOM     29  C   UNL     1       2.236  -2.023   4.201  0.00  0.00    +0.277 C 
ENDBRANCH   7  28
TORSDOF 6
