REMARK  Name = ZINC59040499
REMARK  6 active torsions:
REMARK  status: ('A' for Active; 'I' for Inactive)
REMARK    1  A    between atoms: C_1  and  N_2
REMARK    2  A    between atoms: C_3  and  C_5
REMARK    3  A    between atoms: C_5  and  N_6
REMARK    4  A    between atoms: C_9  and  N_12
REMARK    5  A    between atoms: C_13  and  C_15
REMARK    6  A    between atoms: C_27  and  C_29
REMARK                            x       y       z     vdW  Elec       q    Type
REMARK                         _______ _______ _______ _____ _____    ______ ____
ROOT
ATOM      1  C   UNL     1      -6.997  -6.867  -1.204  0.00  0.00    +0.163 C 
ATOM      2  C   UNL     1      -6.908  -7.579   0.164  0.00  0.00    +0.037 C 
ATOM      3  C   UNL     1      -7.056  -9.083  -0.222  0.00  0.00    +0.012 C 
ATOM      4  C   UNL     1      -5.690  -9.538  -0.738  0.00  0.00    +0.005 C 
ATOM      5  C   UNL     1      -5.816 -10.843  -1.521  0.00  0.00    +0.000 C 
ATOM      6  C   UNL     1      -6.715 -10.601  -2.738  0.00  0.00    +0.002 C 
ATOM      7  C   UNL     1      -8.110 -10.220  -2.240  0.00  0.00    +0.023 C 
ATOM      8  C   UNL     1      -8.078  -8.978  -1.369  0.00  0.00    +0.080 C 
ATOM      9  N   UNL     1      -7.708  -7.773  -2.124  0.00  0.00    -0.283 N 
ATOM     10  C   UNL     1      -7.969  -7.536  -3.425  0.00  0.00    +0.248 C 
ATOM     11  O   UNL     1      -8.667  -8.307  -4.055  0.00  0.00    -0.270 OA
ENDROOT
BRANCH  10  12
ATOM     12  C   UNL     1      -7.408  -6.339  -4.085  0.00  0.00    +0.038 A 
ATOM     13  C   UNL     1      -6.931  -5.274  -3.319  0.00  0.00    +0.013 A 
ATOM     14  C   UNL     1      -6.408  -4.159  -3.941  0.00  0.00    +0.002 A 
ATOM     15  C   UNL     1      -6.355  -4.095  -5.322  0.00  0.00    +0.020 A 
ATOM     16  C   UNL     1      -6.826  -5.147  -6.089  0.00  0.00    +0.042 A 
ATOM     17  C   UNL     1      -7.347  -6.271  -5.478  0.00  0.00    +0.033 A 
ATOM     18 CL   UNL     1      -6.755  -5.057  -7.821  0.00  0.00    -0.084 Cl
ENDBRANCH  10  12
BRANCH   1  20
ATOM     19  N   UNL     1      -4.861  -5.621  -1.164  0.00  0.00    -0.311 N 
ATOM     20  C   UNL     1      -5.612  -6.587  -1.728  0.00  0.00    +0.234 C 
ATOM     21  O   UNL     1      -5.174  -7.231  -2.657  0.00  0.00    -0.274 OA
ATOM     22  H   UNL     1      -5.212  -5.105  -0.420  0.00  0.00    +0.149 HD
BRANCH  19  26
ATOM     23  N   UNL     1      -0.779  -4.570  -1.120  0.00  0.00    +0.385 N 
ATOM     24  C   UNL     1      -1.690  -3.650  -1.811  0.00  0.00    -0.076 C 
ATOM     25  C   UNL     1      -3.126  -3.903  -1.348  0.00  0.00    +0.003 C 
ATOM     26  C   UNL     1      -3.514  -5.348  -1.673  0.00  0.00    +0.069 C 
ATOM     27  C   UNL     1      -2.514  -6.298  -1.008  0.00  0.00    +0.003 C 
ATOM     28  C   UNL     1      -1.100  -5.955  -1.484  0.00  0.00    -0.076 C 
ATOM     29  H   UNL     1      -0.880  -4.454  -0.123  0.00  0.00    -0.081 HD
BRANCH  23  30
ATOM     30  C   UNL     1       0.605  -4.271  -1.510  0.00  0.00    +0.019 C 
BRANCH  30  33
ATOM     31  C   UNL     1       2.568  -1.061  -0.804  0.00  0.00    +0.128 C 
ATOM     32  N   UNL     1       2.207  -2.401  -1.273  0.00  0.00    -0.320 N 
ATOM     33  C   UNL     1       0.976  -2.892  -1.028  0.00  0.00    +0.196 C 
ATOM     34  O   UNL     1       0.167  -2.224  -0.420  0.00  0.00    -0.278 OA
ATOM     35  H   UNL     1       2.854  -2.936  -1.759  0.00  0.00    +0.148 HD
ENDBRANCH  30  33
ENDBRANCH  23  30
ENDBRANCH  19  26
ENDBRANCH   1  20
TORSDOF 5
