REMARK  Name = ZINC12901594
REMARK  5 active torsions:
REMARK  status: ('A' for Active; 'I' for Inactive)
REMARK    1  A    between atoms: C_1  and  C_2
REMARK    2  A    between atoms: C_2  and  C_3
REMARK    3  A    between atoms: C_11  and  C_16
REMARK    4  A    between atoms: C_12  and  O_15
REMARK    5  A    between atoms: C_13  and  C_14
REMARK                            x       y       z     vdW  Elec       q    Type
REMARK                         _______ _______ _______ _____ _____    ______ ____
ROOT
ATOM      1  C   UNL     1       1.189  -0.663  -0.013  0.00  0.00    -0.030 A 
ATOM      2  C   UNL     1       0.002  -0.004   0.002  0.00  0.00    +0.096 A 
ATOM      3  C   UNL     1      -0.017   1.406   0.010  0.00  0.00    +0.337 A 
ATOM      4  O   UNL     1      -1.089   1.985   0.018  0.00  0.00    -0.245 OA
ATOM      5  O   UNL     1       1.115   2.127   0.003  0.00  0.00    -0.422 OA
ATOM      6  C   UNL     1       2.329   1.535  -0.012  0.00  0.00    +0.146 A 
ATOM      7  C   UNL     1       2.422   0.129  -0.020  0.00  0.00    +0.022 A 
ATOM      8  C   UNL     1       3.672  -0.491  -0.035  0.00  0.00    +0.025 A 
ATOM      9  C   UNL     1       4.823   0.285  -0.042  0.00  0.00    +0.043 A 
ATOM     10  C   UNL     1       4.724   1.686  -0.034  0.00  0.00    +0.132 A 
ATOM     11  C   UNL     1       3.485   2.301  -0.019  0.00  0.00    +0.035 A 
ATOM     12  C   UNL     1       3.392   3.805  -0.009  0.00  0.00    +0.051 C 
ENDROOT
BRANCH   9  13
ATOM     13  C   UNL     1       6.154  -0.364  -0.058  0.00  0.00    +0.080 A 
ATOM     14  C   UNL     1       6.265  -1.758  -0.060  0.00  0.00    +0.048 A 
ATOM     15  C   UNL     1       7.529  -2.318  -0.079  0.00  0.00    +0.116 A 
ATOM     16  N   UNL     1       8.589  -1.526  -0.085  0.00  0.00    -0.223 NA
ATOM     17  C   UNL     1       8.455  -0.207  -0.078  0.00  0.00    +0.213 A 
ATOM     18  N   UNL     1       7.265   0.371  -0.064  0.00  0.00    -0.215 NA
ATOM     19  N   UNL     1       9.590   0.586  -0.084  0.00  0.00    -0.327 N 
ATOM     20  H   UNL     1       9.506   1.552  -0.078  0.00  0.00    +0.145 HD
ATOM     21  H   UNL     1      10.469   0.175  -0.094  0.00  0.00    +0.145 HD
ENDBRANCH   9  13
BRANCH   1  23
ATOM     22  C   UNL     1       1.394  -2.683   1.411  0.00  0.00    +0.009 C 
ATOM     23  C   UNL     1       1.238  -2.170  -0.022  0.00  0.00    +0.033 C 
ENDBRANCH   1  23
BRANCH  10  24
ATOM     24  O   UNL     1       5.851   2.441  -0.041  0.00  0.00    -0.506 OA
ATOM     25  H   UNL     1       6.186   2.655   0.841  0.00  0.00    +0.292 HD
ENDBRANCH  10  24
TORSDOF 3
