REMARK  Name = ZINC66704571
REMARK  7 active torsions:
REMARK  status: ('A' for Active; 'I' for Inactive)
REMARK    1  A    between atoms: C_1  and  C_2
REMARK    2  A    between atoms: C_2  and  C_3
REMARK    3  A    between atoms: C_3  and  C_4
REMARK    4  A    between atoms: C_4  and  N_5
REMARK    5  A    between atoms: C_10  and  C_12
REMARK    6  A    between atoms: C_12  and  N_13
REMARK    7  A    between atoms: C_22  and  C_24
REMARK                            x       y       z     vdW  Elec       q    Type
REMARK                         _______ _______ _______ _____ _____    ______ ____
ROOT
ATOM      1  N   UNL     1       1.691  -2.946  -0.156  0.00  0.00    -0.301 N 
ATOM      2  C   UNL     1       2.005  -3.313   1.102  0.00  0.00    +0.302 C 
ATOM      3  O   UNL     1       3.025  -3.940   1.316  0.00  0.00    -0.253 OA
ATOM      4  N   UNL     1       1.189  -2.984   2.123  0.00  0.00    -0.283 N 
ATOM      5  C   UNL     1       1.572  -3.279   3.511  0.00  0.00    +0.128 C 
ATOM      6  C   UNL     1       1.520  -1.977   4.321  0.00  0.00    +0.127 C 
ATOM      7  N   UNL     1       0.231  -1.317   4.066  0.00  0.00    -0.293 N 
ATOM      8  C   UNL     1      -0.152  -1.023   2.678  0.00  0.00    +0.127 C 
ATOM      9  C   UNL     1      -0.097  -2.320   1.869  0.00  0.00    +0.128 C 
ATOM     10  C   UNL     1      -0.585  -0.989   5.087  0.00  0.00    +0.267 C 
ATOM     11  O   UNL     1      -0.204  -1.115   6.234  0.00  0.00    -0.268 OA
ATOM     12  H   UNL     1       0.845  -2.507  -0.337  0.00  0.00    +0.150 HD
ENDROOT
BRANCH  10  13
ATOM     13  C   UNL     1      -1.946  -0.473   4.812  0.00  0.00    +0.144 A 
ATOM     14  C   UNL     1      -2.672   0.158   5.821  0.00  0.00    +0.143 A 
ATOM     15  N   UNL     1      -3.885   0.616   5.570  0.00  0.00    -0.259 NA
ATOM     16  C   UNL     1      -4.409   0.478   4.365  0.00  0.00    +0.130 A 
ATOM     17  C   UNL     1      -3.689  -0.149   3.359  0.00  0.00    +0.131 A 
ATOM     18  N   UNL     1      -2.476  -0.605   3.599  0.00  0.00    -0.247 NA
ENDBRANCH  10  13
BRANCH   1  19
ATOM     19  C   UNL     1       2.627  -3.211  -1.252  0.00  0.00    +0.090 C 
BRANCH  19  25
ATOM     20  N   UNL     1       0.714  -3.073  -2.771  0.00  0.00    +0.383 N 
ATOM     21  C   UNL     1       0.211  -2.553  -4.049  0.00  0.00    -0.078 C 
ATOM     22  C   UNL     1       0.144  -1.025  -3.990  0.00  0.00    -0.019 C 
ATOM     23  C   UNL     1       1.545  -0.467  -3.725  0.00  0.00    -0.003 C 
ATOM     24  C   UNL     1       2.089  -1.074  -2.429  0.00  0.00    -0.014 C 
ATOM     25  C   UNL     1       2.084  -2.600  -2.545  0.00  0.00    -0.051 C 
ATOM     26  H   UNL     1       0.119  -2.750  -2.022  0.00  0.00    -0.081 HD
BRANCH  20  27
ATOM     27  C   UNL     1       0.703  -4.542  -2.805  0.00  0.00    -0.078 C 
BRANCH  27  28
ATOM     28  C   UNL     1      -0.743  -5.041  -2.846  0.00  0.00    -0.019 C 
BRANCH  28  30
ATOM     29  C   UNL     1      -2.199  -7.069  -2.921  0.00  0.00    +0.004 C 
ATOM     30  C   UNL     1      -0.753  -6.570  -2.880  0.00  0.00    -0.005 C 
ENDBRANCH  28  30
ENDBRANCH  27  28
ENDBRANCH  20  27
ENDBRANCH  19  25
ENDBRANCH   1  19
TORSDOF 6
