REMARK  Name = ZINC31246235
REMARK  8 active torsions:
REMARK  status: ('A' for Active; 'I' for Inactive)
REMARK    1  A    between atoms: C_1  and  N_2
REMARK    2  A    between atoms: N_2  and  C_3
REMARK    3  A    between atoms: C_3  and  C_4
REMARK    4  A    between atoms: C_7  and  C_10
REMARK    5  A    between atoms: N_12  and  C_13
REMARK    6  A    between atoms: C_13  and  C_14
REMARK    7  A    between atoms: C_18  and  C_20
REMARK    8  A    between atoms: C_25  and  O_26
REMARK                            x       y       z     vdW  Elec       q    Type
REMARK                         _______ _______ _______ _____ _____    ______ ____
ROOT
ATOM      1  C   UNL     1       0.254  -0.430   1.760  0.00  0.00    -0.030 A 
ATOM      2  C   UNL     1       1.559  -0.797   2.039  0.00  0.00    +0.006 A 
ATOM      3  C   UNL     1       1.895  -1.258   3.295  0.00  0.00    +0.013 A 
ATOM      4  C   UNL     1       0.914  -1.364   4.282  0.00  0.00    +0.037 A 
ATOM      5  C   UNL     1      -0.401  -0.998   3.993  0.00  0.00    +0.013 A 
ATOM      6  C   UNL     1      -0.723  -0.533   2.734  0.00  0.00    +0.006 A 
ENDROOT
BRANCH   4   7
ATOM      7  C   UNL     1       1.267  -1.862   5.629  0.00  0.00    +0.244 C 
ATOM      8  O   UNL     1       0.411  -1.952   6.487  0.00  0.00    -0.270 OA
ATOM      9  N   UNL     1       2.538  -2.215   5.905  0.00  0.00    -0.303 N 
ATOM     10  H   UNL     1       3.313  -2.132   5.129  0.00  0.00    +0.149 HD
BRANCH   9  11
ATOM     11  C   UNL     1       2.888  -2.708   7.240  0.00  0.00    +0.217 C 
BRANCH  11  12
ATOM     12  C   UNL     1       4.381  -3.035   7.287  0.00  0.00    +0.405 C 
ATOM     13  F   UNL     1       5.121  -1.881   7.008  0.00  0.00    -0.169 F 
ATOM     14  F   UNL     1       4.715  -3.506   8.562  0.00  0.00    -0.169 F 
ATOM     15  F   UNL     1       4.674  -4.018   6.336  0.00  0.00    -0.169 F 
ENDBRANCH  11  12
ENDBRANCH   9  11
ENDBRANCH   4   7
BRANCH   1  16
ATOM     16  C   UNL     1      -0.105   0.078   0.388  0.00  0.00    +0.142 C 
BRANCH  16  18
ATOM     17  C   UNL     1      -1.083   2.399   0.693  0.00  0.00    +0.132 C 
ATOM     18  N   UNL     1       0.048   1.534   0.351  0.00  0.00    -0.296 N 
ATOM     19  C   UNL     1       1.229   2.079  -0.004  0.00  0.00    +0.250 C 
ATOM     20  O   UNL     1       2.190   1.363  -0.212  0.00  0.00    -0.270 OA
BRANCH  19  21
ATOM     21  C   UNL     1       1.356   3.542  -0.139  0.00  0.00    +0.079 A 
ATOM     22  C   UNL     1       0.872   4.385   0.865  0.00  0.00    +0.032 A 
ATOM     23  C   UNL     1       0.994   5.752   0.732  0.00  0.00    +0.019 A 
ATOM     24  C   UNL     1       1.596   6.294  -0.393  0.00  0.00    +0.019 A 
ATOM     25  C   UNL     1       2.078   5.472  -1.391  0.00  0.00    +0.047 A 
ATOM     26  C   UNL     1       1.968   4.095  -1.272  0.00  0.00    +0.129 A 
ATOM     27 BR   UNL     1       0.339   6.892   2.092  0.00  0.00    -0.050 Br
BRANCH  26  28
ATOM     28  O   UNL     1       2.446   3.286  -2.251  0.00  0.00    -0.506 OA
ATOM     29  H   UNL     1       2.926   3.722  -3.139  0.00  0.00    +0.292 HD
ENDBRANCH  26  28
ENDBRANCH  19  21
ENDBRANCH  16  18
ENDBRANCH   1  16
TORSDOF 7
