REMARK  Name = ZINC25007233
REMARK  7 active torsions:
REMARK  status: ('A' for Active; 'I' for Inactive)
REMARK    1  A    between atoms: C_1  and  C_2
REMARK    2  A    between atoms: N_7  and  S_9
REMARK    3  A    between atoms: S_9  and  C_12
REMARK    4  A    between atoms: N_18  and  O_21
REMARK    5  A    between atoms: O_21  and  C_22
REMARK    6  A    between atoms: C_22  and  C_23
REMARK    7  A    between atoms: C_26  and  C_29
REMARK                            x       y       z     vdW  Elec       q    Type
REMARK                         _______ _______ _______ _____ _____    ______ ____
ROOT
ATOM      1  C   UNL     1      -3.576   1.541  -3.475  0.00  0.00    +0.108 A 
ATOM      2  C   UNL     1      -2.813   2.036  -4.524  0.00  0.00    +0.031 A 
ATOM      3  C   UNL     1      -3.329   2.958  -5.387  0.00  0.00    +0.034 A 
ATOM      4  C   UNL     1      -4.644   3.413  -5.216  0.00  0.00    +0.116 A 
ATOM      5  C   UNL     1      -5.410   2.908  -4.152  0.00  0.00    +0.132 A 
ATOM      6  C   UNL     1      -4.862   1.964  -3.289  0.00  0.00    +0.061 A 
ATOM      7  N   UNL     1      -6.635   3.527  -4.237  0.00  0.00    -0.077 N 
ATOM      8  N   UNL     1      -6.571   4.384  -5.345  0.00  0.00    -0.029 NA
ATOM      9  N   UNL     1      -5.409   4.295  -5.889  0.00  0.00    -0.127 NA
ENDROOT
BRANCH   1  10
ATOM     10  S   UNL     1      -2.882   0.350  -2.377  0.00  0.00    +0.061 S 
ATOM     11  O   UNL     1      -1.838  -0.299  -3.089  0.00  0.00    -0.153 OA
ATOM     12  O   UNL     1      -3.972  -0.362  -1.807  0.00  0.00    -0.153 OA
BRANCH  10  18
ATOM     13  C   UNL     1       1.422   1.616  -0.003  0.00  0.00    +0.009 C 
ATOM     14  C   UNL     1      -0.013   1.086   0.008  0.00  0.00    +0.002 C 
ATOM     15  C   UNL     1      -0.730   1.580   1.266  0.00  0.00    +0.006 C 
ATOM     16  C   UNL     1      -2.155   1.023   1.295  0.00  0.00    +0.017 C 
ATOM     17  C   UNL     1      -2.923   1.530   0.070  0.00  0.00    +0.109 C 
ATOM     18  N   UNL     1      -2.164   1.185  -1.140  0.00  0.00    -0.176 NA
ATOM     19  C   UNL     1      -0.755   1.594  -1.232  0.00  0.00    +0.112 C 
ENDBRANCH  10  18
ENDBRANCH   1  10
BRANCH   7  20
ATOM     20  O   UNL     1      -7.742   3.336  -3.375  0.00  0.00    -0.388 OA
BRANCH  20  21
ATOM     21  C   UNL     1      -8.885   4.124  -3.715  0.00  0.00    +0.298 C 
BRANCH  21  22
ATOM     22  C   UNL     1      -9.997   3.843  -2.737  0.00  0.00    -0.008 A 
ATOM     23  C   UNL     1     -10.907   2.834  -3.000  0.00  0.00    +0.008 A 
ATOM     24  C   UNL     1     -11.924   2.569  -2.107  0.00  0.00    +0.013 A 
ATOM     25  C   UNL     1     -12.041   3.328  -0.941  0.00  0.00    +0.037 A 
ATOM     26  C   UNL     1     -11.123   4.347  -0.684  0.00  0.00    +0.013 A 
ATOM     27  C   UNL     1     -10.107   4.598  -1.583  0.00  0.00    +0.008 A 
BRANCH  25  28
ATOM     28  C   UNL     1     -13.132   3.052   0.018  0.00  0.00    +0.242 C 
ATOM     29  O   UNL     1     -13.230   3.714   1.033  0.00  0.00    -0.270 OA
ATOM     30  N   UNL     1     -14.017   2.067  -0.232  0.00  0.00    -0.325 N 
ATOM     31  H   UNL     1     -14.828   1.862   0.481  0.00  0.00    +0.145 HD
ATOM     32  H   UNL     1     -13.927   1.468  -1.150  0.00  0.00    +0.145 HD
ENDBRANCH  25  28
ENDBRANCH  21  22
ENDBRANCH  20  21
ENDBRANCH   7  20
TORSDOF 6
