REMARK  Name = ZINC36647963
REMARK  11 active torsions:
REMARK  status: ('A' for Active; 'I' for Inactive)
REMARK    1  A    between atoms: C_1  and  C_2
REMARK    2  A    between atoms: C_2  and  O_3
REMARK    3  A    between atoms: O_3  and  C_4
REMARK    4  A    between atoms: N_13  and  C_14
REMARK    5  A    between atoms: C_14  and  C_15
REMARK    6  A    between atoms: C_15  and  N_16
REMARK    7  A    between atoms: N_16  and  C_17
REMARK    8  A    between atoms: N_16  and  C_18
REMARK    9  A    between atoms: C_19  and  C_21
REMARK   10  A    between atoms: N_26  and  S_28
REMARK   11  A    between atoms: S_28  and  C_31
REMARK                            x       y       z     vdW  Elec       q    Type
REMARK                         _______ _______ _______ _____ _____    ______ ____
ROOT
ATOM      1  C   UNL     1       1.424  -1.726   0.973  0.00  0.00    +0.147 A 
ATOM      2  C   UNL     1       1.040  -2.535  -0.071  0.00  0.00    +0.048 A 
ATOM      3  C   UNL     1       1.202  -3.911  -0.018  0.00  0.00    +0.005 A 
ATOM      4  C   UNL     1       1.763  -4.484   1.109  0.00  0.00    +0.017 A 
ATOM      5  C   UNL     1       2.151  -3.686   2.157  0.00  0.00    +0.044 A 
ATOM      6  C   UNL     1       2.007  -2.281   2.140  0.00  0.00    +0.122 A 
ATOM      7  N   UNL     1       2.441  -1.634   3.244  0.00  0.00    -0.221 NA
ATOM      8  C   UNL     1       2.967  -2.263   4.268  0.00  0.00    +0.168 A 
ATOM      9  S   UNL     1       2.890  -3.971   3.747  0.00  0.00    -0.052 S 
ATOM     10  N   UNL     1       3.451  -1.738   5.456  0.00  0.00    -0.252 N 
ATOM     11  C   UNL     1       3.431  -0.406   5.662  0.00  0.00    +0.226 C 
ATOM     12  O   UNL     1       3.916   0.059   6.671  0.00  0.00    -0.275 OA
ENDROOT
BRANCH  11  13
ATOM     13  C   UNL     1       2.804   0.505   4.638  0.00  0.00    +0.091 C 
ATOM     14  C   UNL     1       1.280   0.380   4.707  0.00  0.00    +0.015 C 
ATOM     15  C   UNL     1       0.644   1.280   3.645  0.00  0.00    +0.018 C 
ATOM     16  C   UNL     1       1.023   2.738   3.924  0.00  0.00    +0.109 C 
ATOM     17  N   UNL     1       2.487   2.840   4.003  0.00  0.00    -0.175 NA
ATOM     18  C   UNL     1       3.208   1.954   4.927  0.00  0.00    +0.122 C 
BRANCH  17  19
ATOM     19  S   UNL     1       3.308   3.931   3.067  0.00  0.00    +0.067 S 
ATOM     20  O   UNL     1       4.633   3.435   2.934  0.00  0.00    -0.152 OA
ATOM     21  O   UNL     1       2.482   4.208   1.945  0.00  0.00    -0.152 OA
BRANCH  19  22
ATOM     22  C   UNL     1       3.421   5.428   3.990  0.00  0.00    +0.143 A 
ATOM     23  C   UNL     1       4.388   5.829   4.851  0.00  0.00    +0.036 A 
ATOM     24  C   UNL     1       4.268   7.059   5.470  0.00  0.00    +0.010 A 
ATOM     25  C   UNL     1       3.186   7.829   5.196  0.00  0.00    +0.047 A 
ATOM     26  S   UNL     1       2.296   6.813   4.029  0.00  0.00    -0.077 S 
ENDBRANCH  19  22
ENDBRANCH  17  19
ENDBRANCH  11  13
BRANCH   1  27
ATOM     27  O   UNL     1       1.248  -0.381   0.882  0.00  0.00    -0.490 OA
BRANCH  27  29
ATOM     28  C   UNL     1       0.540   1.640  -0.238  0.00  0.00    +0.048 C 
ATOM     29  C   UNL     1       0.656   0.117  -0.319  0.00  0.00    +0.226 C 
ENDBRANCH  27  29
ENDBRANCH   1  27
BRANCH  10  30
ATOM     30  C   UNL     1       3.985  -2.630   6.488  0.00  0.00    +0.097 C 
BRANCH  30  31
ATOM     31  C   UNL     1       5.502  -2.745   6.328  0.00  0.00    -0.060 C 
BRANCH  31  32
ATOM     32  N   UNL     1       6.054  -3.530   7.440  0.00  0.00    +0.377 N 
ATOM     33  C   UNL     1       5.549  -4.908   7.365  0.00  0.00    -0.097 C 
ATOM     34  C   UNL     1       7.520  -3.540   7.353  0.00  0.00    -0.097 C 
ATOM     35  H   UNL     1       5.772  -3.116   8.316  0.00  0.00    -0.083 HD
ENDBRANCH  31  32
ENDBRANCH  30  31
ENDBRANCH  10  30
TORSDOF 8
