REMARK  Name = ZINC10024082
REMARK  6 active torsions:
REMARK  status: ('A' for Active; 'I' for Inactive)
REMARK    1  A    between atoms: C_1  and  C_2
REMARK    2  A    between atoms: C_11  and  C_12
REMARK    3  A    between atoms: C_11  and  N_57
REMARK    4  A    between atoms: N_14  and  N_15
REMARK    5  A    between atoms: C_18  and  C_22
REMARK    6  A    between atoms: C_18  and  C_28
REMARK                            x       y       z     vdW  Elec       q    Type
REMARK                         _______ _______ _______ _____ _____    ______ ____
ROOT
ATOM      1  N   UNL     1      -2.530   4.615  -2.114  0.00  0.00    -0.137 N 
ATOM      2  C   UNL     1      -2.254   3.508  -1.396  0.00  0.00    +0.272 C 
ATOM      3  O   UNL     1      -1.849   2.445  -1.816  0.00  0.00    -0.270 OA
ATOM      4  C   UNL     1      -2.553   3.869   0.045  0.00  0.00    +0.165 C 
ATOM      5  N   UNL     1      -3.006   5.268  -0.035  0.00  0.00    -0.276 N 
ATOM      6  C   UNL     1      -2.958   5.614  -1.334  0.00  0.00    +0.327 C 
ATOM      7  O   UNL     1      -3.269   6.712  -1.752  0.00  0.00    -0.251 OA
ATOM      8  H   UNL     1      -3.284   5.830   0.705  0.00  0.00    +0.152 HD
ENDROOT
BRANCH   4   9
ATOM      9  C   UNL     1      -1.308   3.761   0.888  0.00  0.00    -0.011 A 
ATOM     10  C   UNL     1      -0.949   4.800   1.726  0.00  0.00    +0.006 A 
ATOM     11  C   UNL     1       0.195   4.704   2.495  0.00  0.00    +0.000 A 
ATOM     12  C   UNL     1       0.975   3.564   2.435  0.00  0.00    +0.000 A 
ATOM     13  C   UNL     1       0.613   2.523   1.601  0.00  0.00    +0.000 A 
ATOM     14  C   UNL     1      -0.528   2.621   0.827  0.00  0.00    +0.006 A 
ENDBRANCH   4   9
BRANCH   4  15
ATOM     15  C   UNL     1      -3.644   2.989   0.600  0.00  0.00    -0.011 A 
ATOM     16  C   UNL     1      -3.530   1.614   0.520  0.00  0.00    +0.006 A 
ATOM     17  C   UNL     1      -4.529   0.807   1.033  0.00  0.00    +0.000 A 
ATOM     18  C   UNL     1      -5.646   1.376   1.616  0.00  0.00    +0.000 A 
ATOM     19  C   UNL     1      -5.762   2.751   1.691  0.00  0.00    +0.000 A 
ATOM     20  C   UNL     1      -4.761   3.558   1.183  0.00  0.00    +0.006 A 
ENDBRANCH   4  15
BRANCH   1  23
ATOM     21  C   UNL     1      -1.350   5.390  -4.030  0.00  0.00    +0.213 C 
ATOM     22  O   UNL     1      -0.542   5.924  -3.300  0.00  0.00    -0.276 OA
ATOM     23  N   UNL     1      -2.386   4.708  -3.504  0.00  0.00    -0.225 N 
ATOM     24  H   UNL     1      -3.033   4.281  -4.088  0.00  0.00    +0.173 HD
BRANCH  21  25
ATOM     25  C   UNL     1      -1.196   5.490  -5.526  0.00  0.00    +0.021 C 
BRANCH  25  35
ATOM     26  C   UNL     1       0.607   4.750  -7.659  0.00  0.00    -0.008 C 
ATOM     27  C   UNL     1       0.320   6.202  -7.274  0.00  0.00    -0.039 C 
ATOM     28  C   UNL     1       1.554   7.057  -7.547  0.00  0.00    -0.051 A 
ATOM     29  C   UNL     1       2.348   6.935  -8.684  0.00  0.00    +0.010 A 
ATOM     30  C   UNL     1       3.428   7.735  -8.846  0.00  0.00    +0.045 A 
ATOM     31  S   UNL     1       3.375   8.729  -7.361  0.00  0.00    -0.101 S 
ATOM     32  C   UNL     1       1.927   8.006  -6.643  0.00  0.00    -0.010 A 
ATOM     33  C   UNL     1       1.242   8.331  -5.356  0.00  0.00    +0.024 C 
ATOM     34  C   UNL     1      -0.146   7.668  -5.384  0.00  0.00    -0.072 C 
ATOM     35  N   UNL     1       0.027   6.262  -5.823  0.00  0.00    +0.390 N 
ATOM     36  H   UNL     1       0.814   5.850  -5.309  0.00  0.00    -0.080 HD
ENDBRANCH  25  35
ENDBRANCH  21  25
ENDBRANCH   1  23
TORSDOF 5
