REMARK  Name = ZINC16502760
REMARK  12 active torsions:
REMARK  status: ('A' for Active; 'I' for Inactive)
REMARK    1  A    between atoms: C_1  and  C_2
REMARK    2  A    between atoms: C_5  and  N_9
REMARK    3  A    between atoms: C_10  and  C_34
REMARK    4  A    between atoms: C_11  and  C_27
REMARK    5  A    between atoms: C_12  and  C_17
REMARK    6  A    between atoms: C_20  and  O_26
REMARK    7  A    between atoms: C_21  and  N_23
REMARK    8  A    between atoms: C_27  and  O_29
REMARK    9  A    between atoms: O_29  and  C_30
REMARK   10  A    between atoms: C_30  and  C_31
REMARK   11  A    between atoms: C_31  and  O_32
REMARK   12  A    between atoms: O_32  and  C_33
REMARK                            x       y       z     vdW  Elec       q    Type
REMARK                         _______ _______ _______ _____ _____    ______ ____
ROOT
ATOM      1  N   UNL     1      -0.505  -4.502  -0.182  0.00  0.00    -0.255 N 
ATOM      2  C   UNL     1      -0.036  -4.900   1.038  0.00  0.00    +0.027 C 
ATOM      3  C   UNL     1       0.373  -6.171   1.246  0.00  0.00    +0.078 C 
ATOM      4  C   UNL     1       0.293  -7.138   0.082  0.00  0.00    +0.141 C 
ATOM      5  N   UNL     1      -0.228  -6.609  -1.190  0.00  0.00    -0.315 N 
ATOM      6  C   UNL     1      -0.602  -5.315  -1.242  0.00  0.00    +0.142 C 
ATOM      7  S   UNL     1      -1.215  -4.689  -2.712  0.00  0.00    -0.018 S 
ATOM      8  C   UNL     1       0.028  -3.906   2.168  0.00  0.00    +0.062 C 
ATOM      9  H   UNL     1      -0.303  -7.179  -1.971  0.00  0.00    +0.149 HD
ENDROOT
BRANCH   1  14
ATOM     10  C   UNL     1      -2.152   0.896  -0.788  0.00  0.00    +0.047 C 
ATOM     11  C   UNL     1      -1.716  -0.538  -0.627  0.00  0.00    -0.015 A 
ATOM     12  C   UNL     1      -0.373  -0.862  -0.698  0.00  0.00    +0.008 A 
ATOM     13  C   UNL     1       0.030  -2.175  -0.551  0.00  0.00    +0.024 A 
ATOM     14  C   UNL     1      -0.913  -3.171  -0.331  0.00  0.00    +0.043 A 
ATOM     15  C   UNL     1      -2.260  -2.844  -0.260  0.00  0.00    +0.062 A 
ATOM     16  C   UNL     1      -2.659  -1.527  -0.402  0.00  0.00    +0.128 A 
ATOM     17  F   UNL     1      -3.969  -1.206  -0.328  0.00  0.00    -0.205 F 
ENDBRANCH   1  14
BRANCH   4  18
ATOM     18  C   UNL     1       1.677  -7.676  -0.171  0.00  0.00    -0.020 A 
ATOM     19  C   UNL     1       2.636  -6.867  -0.754  0.00  0.00    +0.009 A 
ATOM     20  C   UNL     1       3.906  -7.358  -0.988  0.00  0.00    +0.048 A 
ATOM     21  C   UNL     1       4.219  -8.663  -0.636  0.00  0.00    +0.147 A 
ATOM     22  C   UNL     1       3.256  -9.472  -0.051  0.00  0.00    +0.168 A 
ATOM     23  C   UNL     1       1.989  -8.975   0.185  0.00  0.00    +0.042 A 
BRANCH  22  24
ATOM     24  N   UNL     1       3.587 -10.864   0.326  0.00  0.00    +0.060 N 
ATOM     25  O   UNL     1       2.726 -11.595   0.757  0.00  0.00    -0.126 OA
ATOM     26  O   UNL     1       4.719 -11.271   0.202  0.00  0.00    -0.126 OA
ENDBRANCH  22  24
BRANCH  21  27
ATOM     27  O   UNL     1       5.468  -9.148  -0.865  0.00  0.00    -0.504 OA
ATOM     28  H   UNL     1       6.083  -9.012  -0.132  0.00  0.00    +0.292 HD
ENDBRANCH  21  27
ENDBRANCH   4  18
BRANCH   3  29
ATOM     29  C   UNL     1       0.859  -6.585   2.508  0.00  0.00    +0.339 C 
ATOM     30  O   UNL     1       1.260  -7.723   2.662  0.00  0.00    -0.245 OA
BRANCH  29  31
ATOM     31  O   UNL     1       0.879  -5.717   3.541  0.00  0.00    -0.459 OA
BRANCH  31  32
ATOM     32  C   UNL     1       1.476  -6.170   4.758  0.00  0.00    +0.260 C 
BRANCH  32  33
ATOM     33  C   UNL     1       1.305  -5.101   5.839  0.00  0.00    +0.200 C 
BRANCH  33  34
ATOM     34  O   UNL     1      -0.078  -4.983   6.178  0.00  0.00    -0.380 OA
ATOM     35  C   UNL     1      -0.362  -3.931   7.103  0.00  0.00    +0.194 C 
ENDBRANCH  33  34
ENDBRANCH  32  33
ENDBRANCH  31  32
ENDBRANCH  29  31
ENDBRANCH   3  29
TORSDOF 9
