REMARK  Name = ZINC40555138
REMARK  5 active torsions:
REMARK  status: ('A' for Active; 'I' for Inactive)
REMARK    1  A    between atoms: C_1  and  N_2
REMARK    2  A    between atoms: C_3  and  C_5
REMARK    3  A    between atoms: C_5  and  C_7
REMARK    4  A    between atoms: C_5  and  N_13
REMARK    5  A    between atoms: C_14  and  C_16
REMARK                            x       y       z     vdW  Elec       q    Type
REMARK                         _______ _______ _______ _____ _____    ______ ____
ROOT
ATOM      1  N   UNL     1       1.333  -2.667   2.182  0.00  0.00    -0.297 N 
ATOM      2  C   UNL     1       0.674  -2.812   3.349  0.00  0.00    +0.255 C 
ATOM      3  O   UNL     1      -0.506  -2.539   3.416  0.00  0.00    -0.272 OA
ATOM      4  H   UNL     1       2.277  -2.885   2.128  0.00  0.00    +0.150 HD
ENDROOT
BRANCH   2   5
ATOM      5  C   UNL     1       1.403  -3.311   4.570  0.00  0.00    +0.263 C 
ATOM      6  C   UNL     1       2.444  -2.272   5.049  0.00  0.00    +0.093 C 
ATOM      7  C   UNL     1       1.651  -1.483   6.073  0.00  0.00    -0.000 A 
ATOM      8  C   UNL     1       1.872  -0.264   6.675  0.00  0.00    +0.027 A 
ATOM      9  C   UNL     1       0.958   0.232   7.589  0.00  0.00    +0.041 A 
ATOM     10  C   UNL     1      -0.175  -0.501   7.894  0.00  0.00    +0.023 A 
ATOM     11  C   UNL     1      -0.395  -1.724   7.296  0.00  0.00    +0.047 A 
ATOM     12  C   UNL     1       0.521  -2.231   6.377  0.00  0.00    +0.125 A 
ATOM     13  O   UNL     1       0.508  -3.412   5.691  0.00  0.00    -0.479 OA
ATOM     14 CL   UNL     1       1.232   1.769   8.349  0.00  0.00    -0.084 Cl
ENDBRANCH   2   5
BRANCH   1  15
ATOM     15  C   UNL     1       0.625  -2.182   0.995  0.00  0.00    +0.190 C 
BRANCH  15  16
ATOM     16  C   UNL     1       1.330  -2.668  -0.245  0.00  0.00    -0.018 A 
ATOM     17  C   UNL     1       2.712  -2.689  -0.291  0.00  0.00    +0.006 A 
ATOM     18  C   UNL     1       3.359  -3.135  -1.428  0.00  0.00    +0.000 A 
ATOM     19  C   UNL     1       2.624  -3.560  -2.519  0.00  0.00    +0.000 A 
ATOM     20  C   UNL     1       1.243  -3.540  -2.473  0.00  0.00    +0.000 A 
ATOM     21  C   UNL     1       0.596  -3.099  -1.334  0.00  0.00    +0.006 A 
ENDBRANCH  15  16
BRANCH  15  24
ATOM     22  C   UNL     1      -0.018   1.461   0.010  0.00  0.00    +0.128 C 
ATOM     23  N   UNL     1       0.002  -0.004   0.002  0.00  0.00    -0.317 N 
ATOM     24  C   UNL     1       0.604  -0.675   1.004  0.00  0.00    +0.238 C 
ATOM     25  O   UNL     1       1.130  -0.067   1.911  0.00  0.00    -0.273 OA
ATOM     26  H   UNL     1      -0.418  -0.491  -0.724  0.00  0.00    +0.148 HD
ENDBRANCH  15  24
ENDBRANCH   1  15
TORSDOF 4
