REMARK  Name = ZINC58623038
REMARK  8 active torsions:
REMARK  status: ('A' for Active; 'I' for Inactive)
REMARK    1  A    between atoms: C_1  and  C_2
REMARK    2  A    between atoms: C_2  and  C_3
REMARK    3  A    between atoms: C_2  and  C_4
REMARK    4  A    between atoms: C_6  and  C_9
REMARK    5  A    between atoms: C_9  and  C_10
REMARK    6  A    between atoms: C_9  and  S_11
REMARK    7  A    between atoms: S_11  and  C_14
REMARK    8  A    between atoms: C_14  and  C_15
REMARK                            x       y       z     vdW  Elec       q    Type
REMARK                         _______ _______ _______ _____ _____    ______ ____
ROOT
ATOM      1  S   UNL     1       4.227  -1.451  -4.254  0.00  0.00    -0.016 S 
ATOM      2  O   UNL     1       3.336  -1.283  -5.348  0.00  0.00    -0.173 OA
ATOM      3  O   UNL     1       4.867  -0.308  -3.702  0.00  0.00    -0.173 OA
ENDROOT
BRANCH   1   4
ATOM      4  C   UNL     1       3.347  -2.315  -2.924  0.00  0.00    +0.216 C 
ATOM      5  C   UNL     1       2.867  -3.677  -3.431  0.00  0.00    +0.042 C 
BRANCH   4   8
ATOM      6  C   UNL     1       0.707  -0.490  -1.238  0.00  0.00    +0.174 A 
ATOM      7  N   UNL     1       1.807  -1.252  -1.259  0.00  0.00    -0.194 NA
ATOM      8  C   UNL     1       2.160  -1.494  -2.491  0.00  0.00    +0.251 A 
ATOM      9  O   UNL     1       1.287  -0.887  -3.304  0.00  0.00    -0.336 OA
ATOM     10  N   UNL     1       0.343  -0.242  -2.463  0.00  0.00    -0.061 NA
BRANCH   6  12
ATOM     11  C   UNL     1      -0.019   1.526   0.010  0.00  0.00    +0.015 C 
ATOM     12  C   UNL     1       0.002  -0.004   0.002  0.00  0.00    +0.054 C 
ATOM     13  C   UNL     1      -1.433  -0.534   0.013  0.00  0.00    +0.015 C 
ENDBRANCH   6  12
ENDBRANCH   4   8
ENDBRANCH   1   4
BRANCH   1  14
ATOM     14  C   UNL     1       5.504  -2.647  -4.733  0.00  0.00    +0.205 C 
BRANCH  14  15
ATOM     15  C   UNL     1       6.338  -2.072  -5.849  0.00  0.00    +0.017 A 
ATOM     16  C   UNL     1       5.970  -2.280  -7.164  0.00  0.00    +0.028 A 
ATOM     17  C   UNL     1       6.735  -1.753  -8.189  0.00  0.00    +0.042 A 
ATOM     18  C   UNL     1       7.872  -1.019  -7.898  0.00  0.00    +0.029 A 
ATOM     19  C   UNL     1       8.244  -0.809  -6.583  0.00  0.00    +0.022 A 
ATOM     20  C   UNL     1       7.473  -1.330  -5.555  0.00  0.00    +0.134 A 
ATOM     21  O   UNL     1       7.820  -1.119  -4.257  0.00  0.00    -0.466 OA
ATOM     22  C   UNL     1       9.157  -0.674  -4.009  0.00  0.00    +0.394 C 
ATOM     23  O   UNL     1       9.454   0.403  -4.905  0.00  0.00    -0.339 OA
ATOM     24  C   UNL     1       9.486  -0.011  -6.278  0.00  0.00    +0.202 C 
ATOM     25 CL   UNL     1       6.271  -2.014  -9.841  0.00  0.00    -0.084 Cl
ENDBRANCH  14  15
ENDBRANCH   1  14
TORSDOF 5
