REMARK  Name = ZINC36504520
REMARK  9 active torsions:
REMARK  status: ('A' for Active; 'I' for Inactive)
REMARK    1  A    between atoms: C_4  and  C_7
REMARK    2  A    between atoms: C_7  and  C_8
REMARK    3  A    between atoms: C_7  and  C_14
REMARK    4  A    between atoms: C_14  and  C_16
REMARK    5  A    between atoms: C_14  and  N_25
REMARK    6  A    between atoms: N_18  and  C_19
REMARK    7  A    between atoms: N_25  and  C_26
REMARK    8  A    between atoms: C_26  and  C_27
REMARK    9  A    between atoms: C_32  and  C_34
REMARK                            x       y       z     vdW  Elec       q    Type
REMARK                         _______ _______ _______ _____ _____    ______ ____
ROOT
ATOM      1  C   UNL     1       3.720  -1.896  -1.640  0.00  0.00    +0.174 C 
ENDROOT
BRANCH   1   2
ATOM      2  C   UNL     1       4.826  -2.813  -2.094  0.00  0.00    +0.235 C 
ATOM      3  O   UNL     1       5.477  -2.537  -3.079  0.00  0.00    -0.274 OA
ATOM      4  N   UNL     1       5.092  -3.941  -1.405  0.00  0.00    -0.311 N 
ATOM      5  H   UNL     1       4.571  -4.162  -0.618  0.00  0.00    +0.149 HD
BRANCH   4   6
ATOM      6  C   UNL     1       6.167  -4.832  -1.847  0.00  0.00    +0.073 C 
ATOM      7  C   UNL     1       5.632  -5.786  -2.917  0.00  0.00    +0.022 C 
ATOM      8  C   UNL     1       6.755  -6.718  -3.378  0.00  0.00    +0.002 C 
ATOM      9  C   UNL     1       7.269  -7.526  -2.185  0.00  0.00    +0.000 C 
ATOM     10  C   UNL     1       7.804  -6.572  -1.115  0.00  0.00    +0.002 C 
ATOM     11  C   UNL     1       6.681  -5.641  -0.654  0.00  0.00    +0.022 C 
ENDBRANCH   4   6
ENDBRANCH   1   2
BRANCH   1  12
ATOM     12  N   UNL     1       3.561  -0.807  -2.606  0.00  0.00    -0.280 N 
ATOM     13  C   UNL     1       2.516  -0.808  -3.458  0.00  0.00    +0.237 C 
ATOM     14  O   UNL     1       1.708  -1.711  -3.424  0.00  0.00    -0.274 OA
BRANCH  13  15
ATOM     15  C   UNL     1       2.353   0.313  -4.452  0.00  0.00    +0.159 C 
ATOM     16  C   UNL     1       1.701   1.538  -3.774  0.00  0.00    +0.041 C 
ATOM     17  C   UNL     1       0.203   1.310  -4.084  0.00  0.00    +0.098 C 
ATOM     18  C   UNL     1       0.209   0.457  -5.333  0.00  0.00    +0.214 C 
ATOM     19  O   UNL     1      -0.745   0.286  -6.062  0.00  0.00    -0.276 OA
ATOM     20  N   UNL     1       1.427  -0.086  -5.519  0.00  0.00    -0.304 N 
ATOM     21  H   UNL     1       1.663  -0.664  -6.260  0.00  0.00    +0.149 HD
ENDBRANCH  13  15
BRANCH  12  22
ATOM     22  C   UNL     1       4.538   0.284  -2.647  0.00  0.00    +0.182 C 
BRANCH  22  23
ATOM     23  C   UNL     1       5.708  -0.121  -3.505  0.00  0.00    +0.122 A 
ATOM     24  C   UNL     1       5.767  -0.038  -4.847  0.00  0.00    +0.046 A 
ATOM     25  C   UNL     1       7.038  -0.522  -5.232  0.00  0.00    +0.041 A 
ATOM     26  C   UNL     1       7.680  -0.872  -4.103  0.00  0.00    +0.195 A 
ATOM     27  O   UNL     1       6.872  -0.622  -3.060  0.00  0.00    -0.466 OA
ENDBRANCH  22  23
ENDBRANCH  12  22
ENDBRANCH   1  12
BRANCH   1  28
ATOM     28  C   UNL     1       4.070  -1.315  -0.269  0.00  0.00    +0.078 C 
BRANCH  28  32
ATOM     29  C   UNL     1       0.935   1.284   1.021  0.00  0.00    +0.000 A 
ATOM     30  C   UNL     1       0.638   0.006   0.586  0.00  0.00    +0.000 A 
ATOM     31  C   UNL     1       1.653  -0.835   0.168  0.00  0.00    +0.004 A 
ATOM     32  C   UNL     1       2.964  -0.397   0.185  0.00  0.00    -0.038 A 
ATOM     33  C   UNL     1       3.261   0.881   0.620  0.00  0.00    +0.004 A 
ATOM     34  C   UNL     1       2.246   1.721   1.039  0.00  0.00    +0.000 A 
ENDBRANCH  28  32
BRANCH  28  35
ATOM     35  C   UNL     1       4.234  -2.435   0.726  0.00  0.00    -0.038 A 
ATOM     36  C   UNL     1       3.196  -3.323   0.943  0.00  0.00    +0.004 A 
ATOM     37  C   UNL     1       3.346  -4.351   1.855  0.00  0.00    +0.000 A 
ATOM     38  C   UNL     1       4.533  -4.492   2.549  0.00  0.00    +0.000 A 
ATOM     39  C   UNL     1       5.571  -3.605   2.331  0.00  0.00    +0.000 A 
ATOM     40  C   UNL     1       5.423  -2.579   1.415  0.00  0.00    +0.004 A 
ENDBRANCH  28  35
ENDBRANCH   1  28
TORSDOF 9
