REMARK  Name = ZINC38804990
REMARK  6 active torsions:
REMARK  status: ('A' for Active; 'I' for Inactive)
REMARK    1  A    between atoms: C_1  and  C_2
REMARK    2  A    between atoms: C_2  and  O_3
REMARK    3  A    between atoms: O_3  and  C_4
REMARK    4  A    between atoms: C_12  and  N_17
REMARK    5  A    between atoms: C_13  and  C_14
REMARK    6  A    between atoms: C_18  and  C_20
REMARK                            x       y       z     vdW  Elec       q    Type
REMARK                         _______ _______ _______ _____ _____    ______ ____
ROOT
ATOM      1  C   UNL     1       0.776  -1.798  -1.335  0.00  0.00    +0.403 C 
ATOM      2  O   UNL     1       0.312  -2.549  -0.500  0.00  0.00    -0.226 OA
ATOM      3  N   UNL     1       1.395  -2.298  -2.422  0.00  0.00    -0.262 N 
ATOM      4  C   UNL     1       1.519  -3.749  -2.627  0.00  0.00    +0.116 C 
ATOM      5  C   UNL     1       0.736  -4.160  -3.876  0.00  0.00    +0.056 C 
ATOM      6  C   UNL     1       1.080  -3.211  -5.015  0.00  0.00    -0.020 A 
ATOM      7  C   UNL     1       1.625  -1.997  -4.785  0.00  0.00    +0.013 A 
ATOM      8  S   UNL     1       1.832  -1.283  -6.389  0.00  0.00    -0.076 S 
ATOM      9  C   UNL     1       1.229  -2.531  -7.337  0.00  0.00    +0.084 A 
ATOM     10  C   UNL     1       0.863  -3.505  -6.421  0.00  0.00    +0.068 A 
ATOM     11  C   UNL     1       1.968  -1.410  -3.453  0.00  0.00    +0.153 C 
ENDROOT
BRANCH  10  12
ATOM     12  C   UNL     1       0.281  -4.779  -6.854  0.00  0.00    +0.244 C 
ATOM     13  O   UNL     1      -0.925  -4.888  -6.973  0.00  0.00    -0.270 OA
ATOM     14  N   UNL     1       1.083  -5.830  -7.120  0.00  0.00    -0.325 N 
ATOM     15  H   UNL     1       2.044  -5.742  -7.026  0.00  0.00    +0.145 HD
ATOM     16  H   UNL     1       0.698  -6.673  -7.407  0.00  0.00    +0.145 HD
ENDBRANCH  10  12
BRANCH   9  17
ATOM     17  N   UNL     1       1.122  -2.576  -8.719  0.00  0.00    -0.279 N 
ATOM     18  C   UNL     1       1.531  -1.529  -9.461  0.00  0.00    +0.224 C 
ATOM     19  O   UNL     1       1.994  -0.546  -8.921  0.00  0.00    -0.275 OA
ATOM     20  H   UNL     1       0.752  -3.362  -9.151  0.00  0.00    +0.155 HD
BRANCH  18  21
ATOM     21  C   UNL     1       1.415  -1.579 -10.963  0.00  0.00    +0.048 C 
ATOM     22  C   UNL     1      -0.053  -1.758 -11.355  0.00  0.00    +0.019 C 
ATOM     23  C   UNL     1      -0.172  -1.808 -12.880  0.00  0.00    -0.009 C 
ATOM     24  C   UNL     1       0.359  -0.503 -13.476  0.00  0.00    +0.007 C 
ATOM     25  C   UNL     1       1.828  -0.324 -13.084  0.00  0.00    -0.009 C 
ATOM     26  C   UNL     1       1.946  -0.274 -11.559  0.00  0.00    +0.019 C 
ATOM     27  C   UNL     1       2.646  -1.500 -13.620  0.00  0.00    +0.007 C 
ATOM     28  C   UNL     1       2.115  -2.805 -13.024  0.00  0.00    -0.009 C 
ATOM     29  C   UNL     1       0.647  -2.985 -13.416  0.00  0.00    +0.007 C 
ATOM     30  C   UNL     1       2.233  -2.755 -11.500  0.00  0.00    +0.019 C 
ENDBRANCH  18  21
ENDBRANCH   9  17
BRANCH   1  31
ATOM     31  O   UNL     1       0.671  -0.465  -1.174  0.00  0.00    -0.451 OA
BRANCH  31  33
ATOM     32  C   UNL     1      -0.019   1.526   0.010  0.00  0.00    +0.048 C 
ATOM     33  C   UNL     1       0.002  -0.004   0.002  0.00  0.00    +0.230 C 
ENDBRANCH  31  33
ENDBRANCH   1  31
TORSDOF 5
