REMARK  Name = ZINC05775207
REMARK  6 active torsions:
REMARK  status: ('A' for Active; 'I' for Inactive)
REMARK    1  A    between atoms: C_4  and  C_7
REMARK    2  A    between atoms: C_7  and  C_9
REMARK    3  A    between atoms: C_7  and  N_20
REMARK    4  A    between atoms: C_18  and  O_19
REMARK    5  A    between atoms: C_21  and  C_23
REMARK    6  A    between atoms: C_27  and  N_29
REMARK                            x       y       z     vdW  Elec       q    Type
REMARK                         _______ _______ _______ _____ _____    ______ ____
ROOT
ATOM      1  C   UNL     1      -2.337  -0.328   0.096  0.00  0.00    +0.138 C 
ENDROOT
BRANCH   1   2
ATOM      2  C   UNL     1      -1.019  -1.050  -0.012  0.00  0.00    +0.026 A 
ATOM      3  C   UNL     1       0.180  -0.324  -0.098  0.00  0.00    -0.009 A 
ATOM      4  C   UNL     1       0.183   1.082  -0.086  0.00  0.00    +0.009 A 
ATOM      5  C   UNL     1       1.364   1.754  -0.171  0.00  0.00    +0.001 A 
ATOM      6  C   UNL     1       2.573   1.069  -0.270  0.00  0.00    +0.001 A 
ATOM      7  C   UNL     1       2.609  -0.292  -0.285  0.00  0.00    +0.008 A 
ATOM      8  C   UNL     1       1.411  -1.020  -0.199  0.00  0.00    -0.017 A 
ATOM      9  C   UNL     1       1.410  -2.426  -0.211  0.00  0.00    +0.012 A 
ATOM     10  C   UNL     1       0.232  -3.101  -0.127  0.00  0.00    +0.046 A 
ATOM     11  C   UNL     1      -0.983  -2.416  -0.027  0.00  0.00    +0.123 A 
BRANCH  11  12
ATOM     12  O   UNL     1      -2.144  -3.117   0.056  0.00  0.00    -0.506 OA
ATOM     13  H   UNL     1      -2.496  -3.398  -0.800  0.00  0.00    +0.292 HD
ENDBRANCH  11  12
ENDBRANCH   1   2
BRANCH   1  17
ATOM     14  C   UNL     1      -3.816  -0.653   4.090  0.00  0.00    +0.000 A 
ATOM     15  C   UNL     1      -3.176   0.503   3.682  0.00  0.00    +0.000 A 
ATOM     16  C   UNL     1      -2.698   0.608   2.389  0.00  0.00    +0.006 A 
ATOM     17  C   UNL     1      -2.858  -0.443   1.505  0.00  0.00    -0.023 A 
ATOM     18  C   UNL     1      -3.503  -1.596   1.911  0.00  0.00    +0.006 A 
ATOM     19  C   UNL     1      -3.978  -1.703   3.205  0.00  0.00    +0.000 A 
ENDBRANCH   1  17
BRANCH   1  20
ATOM     20  N   UNL     1      -3.300  -0.927  -0.832  0.00  0.00    -0.300 N 
ATOM     21  C   UNL     1      -4.296  -0.178  -1.345  0.00  0.00    +0.245 C 
ATOM     22  O   UNL     1      -4.396   0.994  -1.039  0.00  0.00    -0.270 OA
ATOM     23  H   UNL     1      -3.220  -1.862  -1.076  0.00  0.00    +0.150 HD
BRANCH  21  24
ATOM     24  C   UNL     1      -5.268  -0.783  -2.281  0.00  0.00    +0.039 A 
ATOM     25  C   UNL     1      -5.156  -2.129  -2.635  0.00  0.00    +0.013 A 
ATOM     26  C   UNL     1      -6.066  -2.687  -3.509  0.00  0.00    +0.003 A 
ATOM     27  C   UNL     1      -7.088  -1.915  -4.035  0.00  0.00    +0.033 A 
ATOM     28  C   UNL     1      -7.204  -0.582  -3.688  0.00  0.00    +0.127 A 
ATOM     29  C   UNL     1      -6.304  -0.012  -2.810  0.00  0.00    +0.045 A 
BRANCH  28  30
ATOM     30  N   UNL     1      -8.300   0.236  -4.254  0.00  0.00    +0.056 N 
ATOM     31  O   UNL     1      -9.099  -0.266  -5.025  0.00  0.00    -0.126 OA
ATOM     32  O   UNL     1      -8.404   1.411  -3.949  0.00  0.00    -0.126 OA
ENDBRANCH  28  30
ENDBRANCH  21  24
ENDBRANCH   1  20
TORSDOF 6
