REMARK  Name = ZINC24006586
REMARK  7 active torsions:
REMARK  status: ('A' for Active; 'I' for Inactive)
REMARK    1  A    between atoms: C_1  and  C_2
REMARK    2  A    between atoms: C_2  and  C_3
REMARK    3  A    between atoms: C_3  and  C_21
REMARK    4  A    between atoms: N_6  and  C_10
REMARK    5  A    between atoms: C_10  and  C_11
REMARK    6  A    between atoms: C_11  and  O_13
REMARK    7  A    between atoms: O_13  and  C_14
REMARK                            x       y       z     vdW  Elec       q    Type
REMARK                         _______ _______ _______ _____ _____    ______ ____
ROOT
ATOM      1  C   UNL     1       0.571  -0.549  -1.298  0.00  0.00    +0.138 C 
ATOM      2  C   UNL     1      -0.023   0.062  -2.552  0.00  0.00    +0.252 C 
ATOM      3  O   UNL     1      -1.154  -0.075  -2.967  0.00  0.00    -0.272 OA
ATOM      4  N   UNL     1       0.966   0.788  -3.108  0.00  0.00    -0.213 N 
ATOM      5  C   UNL     1       2.092   0.722  -2.387  0.00  0.00    +0.310 C 
ATOM      6  O   UNL     1       3.121   1.294  -2.688  0.00  0.00    -0.252 OA
ATOM      7  N   UNL     1       1.957  -0.049  -1.293  0.00  0.00    -0.281 N 
ATOM      8  H   UNL     1       2.639  -0.238  -0.630  0.00  0.00    +0.152 HD
ENDROOT
BRANCH   1   9
ATOM      9  C   UNL     1       0.551  -2.054  -1.377  0.00  0.00    -0.015 A 
ATOM     10  C   UNL     1      -0.517  -2.759  -0.855  0.00  0.00    +0.006 A 
ATOM     11  C   UNL     1      -0.536  -4.139  -0.927  0.00  0.00    +0.000 A 
ATOM     12  C   UNL     1       0.514  -4.815  -1.522  0.00  0.00    +0.000 A 
ATOM     13  C   UNL     1       1.582  -4.109  -2.044  0.00  0.00    +0.000 A 
ATOM     14  C   UNL     1       1.599  -2.729  -1.976  0.00  0.00    +0.006 A 
ENDBRANCH   1   9
BRANCH   1  16
ATOM     15  C   UNL     1      -0.190   1.463  -0.028  0.00  0.00    +0.007 C 
ATOM     16  C   UNL     1      -0.180  -0.067  -0.056  0.00  0.00    +0.037 C 
ENDBRANCH   1  16
BRANCH   4  17
ATOM     17  C   UNL     1       0.827   1.555  -4.348  0.00  0.00    +0.238 C 
BRANCH  17  18
ATOM     18  C   UNL     1       0.366   2.953  -4.026  0.00  0.00    +0.330 C 
ATOM     19  O   UNL     1       0.174   3.276  -2.877  0.00  0.00    -0.249 OA
BRANCH  18  20
ATOM     20  O   UNL     1       0.170   3.840  -5.014  0.00  0.00    -0.425 OA
BRANCH  20  21
ATOM     21  C   UNL     1      -0.343   5.056  -4.688  0.00  0.00    +0.132 A 
ATOM     22  C   UNL     1       0.469   6.019  -4.109  0.00  0.00    +0.049 A 
ATOM     23  C   UNL     1      -0.053   7.255  -3.778  0.00  0.00    +0.042 A 
ATOM     24  C   UNL     1      -1.388   7.531  -4.023  0.00  0.00    +0.124 A 
ATOM     25  C   UNL     1      -2.200   6.570  -4.601  0.00  0.00    +0.042 A 
ATOM     26  C   UNL     1      -1.679   5.336  -4.939  0.00  0.00    +0.049 A 
ATOM     27  F   UNL     1      -1.897   8.739  -3.699  0.00  0.00    -0.205 F 
ENDBRANCH  20  21
ENDBRANCH  18  20
ENDBRANCH  17  18
ENDBRANCH   4  17
TORSDOF 6
