REMARK  Name = ZINC02352753
REMARK  4 active torsions:
REMARK  status: ('A' for Active; 'I' for Inactive)
REMARK    1  A    between atoms: C_10  and  C_11
REMARK    2  A    between atoms: C_11  and  N_48
REMARK    3  A    between atoms: N_14  and  N_17
REMARK    4  A    between atoms: C_18  and  C_19
REMARK                            x       y       z     vdW  Elec       q    Type
REMARK                         _______ _______ _______ _____ _____    ______ ____
ROOT
ATOM      1  C   UNL     1      -0.776   5.260  -1.918  0.00  0.00    -0.058 C 
ATOM      2  C   UNL     1      -0.659   5.809  -3.343  0.00  0.00    +0.107 C 
ATOM      3  N   UNL     1      -0.805   7.272  -3.294  0.00  0.00    -0.259 N 
ATOM      4  C   UNL     1      -1.965   7.832  -2.583  0.00  0.00    +0.107 C 
ATOM      5  C   UNL     1      -2.031   7.203  -1.187  0.00  0.00    -0.058 C 
ATOM      6  N   UNL     1      -2.050   5.731  -1.331  0.00  0.00    +0.384 N 
ATOM      7  H   UNL     1      -2.821   5.467  -1.954  0.00  0.00    -0.081 HD
ENDROOT
BRANCH   3   8
ATOM      8  N   UNL     1       0.135   8.110  -3.907  0.00  0.00    -0.192 NA
ATOM      9  C   UNL     1      -0.065   9.391  -3.946  0.00  0.00    +0.138 C 
BRANCH   9  10
ATOM     10  C   UNL     1       0.977  10.284  -4.487  0.00  0.00    -0.005 A 
ATOM     11  C   UNL     1       2.182   9.754  -4.954  0.00  0.00    +0.010 A 
ATOM     12  C   UNL     1       3.150  10.595  -5.463  0.00  0.00    +0.016 A 
ATOM     13  C   UNL     1       2.933  11.961  -5.503  0.00  0.00    +0.018 A 
ATOM     14  C   UNL     1       1.743  12.494  -5.037  0.00  0.00    +0.016 A 
ATOM     15  C   UNL     1       0.765  11.664  -4.530  0.00  0.00    +0.010 A 
ATOM     16 BR   UNL     1       4.268  13.107  -6.197  0.00  0.00    -0.050 Br
ENDBRANCH   9  10
ENDBRANCH   3   8
BRANCH   6  17
ATOM     17  C   UNL     1      -2.261   5.099  -0.012  0.00  0.00    -0.042 C 
BRANCH  17  27
ATOM     18  C   UNL     1      -6.518   2.740  -1.600  0.00  0.00    +0.001 A 
ATOM     19  C   UNL     1      -6.147   4.069  -1.409  0.00  0.00    +0.001 A 
ATOM     20  C   UNL     1      -4.903   4.393  -0.962  0.00  0.00    +0.009 A 
ATOM     21  C   UNL     1      -3.975   3.373  -0.689  0.00  0.00    -0.017 A 
ATOM     22  C   UNL     1      -4.354   2.020  -0.878  0.00  0.00    -0.018 A 
ATOM     23  C   UNL     1      -5.646   1.726  -1.346  0.00  0.00    +0.008 A 
ATOM     24  C   UNL     1      -3.429   1.000  -0.600  0.00  0.00    +0.008 A 
ATOM     25  C   UNL     1      -2.186   1.323  -0.147  0.00  0.00    +0.001 A 
ATOM     26  C   UNL     1      -1.815   2.652   0.044  0.00  0.00    +0.002 A 
ATOM     27  C   UNL     1      -2.682   3.667  -0.225  0.00  0.00    -0.056 A 
ENDBRANCH  17  27
ENDBRANCH   6  17
TORSDOF 4
