REMARK  Name = ZINC01859081
REMARK  11 active torsions:
REMARK  status: ('A' for Active; 'I' for Inactive)
REMARK    1  A    between atoms: C_1  and  C_2
REMARK    2  A    between atoms: C_5  and  S_8
REMARK    3  A    between atoms: S_8  and  N_11
REMARK    4  A    between atoms: N_11  and  C_12
REMARK    5  A    between atoms: C_12  and  C_14
REMARK    6  A    between atoms: C_12  and  C_21
REMARK    7  A    between atoms: C_14  and  C_15
REMARK    8  A    between atoms: C_21  and  O_23
REMARK    9  A    between atoms: O_23  and  C_24
REMARK   10  A    between atoms: C_32  and  C_35
REMARK   11  A    between atoms: C_38  and  N_41
REMARK                            x       y       z     vdW  Elec       q    Type
REMARK                         _______ _______ _______ _____ _____    ______ ____
ROOT
ATOM      1  C   UNL     1      -0.015   1.208   0.052  0.00  0.00    +0.331 C 
ATOM      2  O   UNL     1      -0.002   0.000   0.085  0.00  0.00    -0.249 OA
ENDROOT
BRANCH   1   3
ATOM      3  C   UNL     1      -1.329   1.947   0.063  0.00  0.00    +0.189 C 
BRANCH   3   4
ATOM      4  N   UNL     1      -2.431   0.984   0.115  0.00  0.00    -0.176 NA
ATOM      5  H   UNL     1      -2.332   0.160   0.617  0.00  0.00    +0.149 HD
BRANCH   4   6
ATOM      6  S   UNL     1      -3.846   1.301  -0.683  0.00  0.00    +0.059 S 
ATOM      7  O   UNL     1      -4.695   0.182  -0.467  0.00  0.00    -0.153 OA
ATOM      8  O   UNL     1      -4.225   2.624  -0.329  0.00  0.00    -0.153 OA
BRANCH   6  13
ATOM      9  C   UNL     1      -2.586   1.392  -6.583  0.00  0.00    +0.044 C 
ATOM     10  C   UNL     1      -2.901   1.369  -5.110  0.00  0.00    -0.050 A 
ATOM     11  C   UNL     1      -3.271   0.185  -4.500  0.00  0.00    +0.005 A 
ATOM     12  C   UNL     1      -3.559   0.164  -3.148  0.00  0.00    +0.029 A 
ATOM     13  C   UNL     1      -3.478   1.327  -2.406  0.00  0.00    +0.105 A 
ATOM     14  C   UNL     1      -3.113   2.513  -3.017  0.00  0.00    +0.029 A 
ATOM     15  C   UNL     1      -2.820   2.533  -4.368  0.00  0.00    +0.005 A 
ENDBRANCH   6  13
ENDBRANCH   4   6
ENDBRANCH   3   4
BRANCH   3  16
ATOM     16  C   UNL     1      -1.390   2.859   1.290  0.00  0.00    +0.067 C 
BRANCH  16  17
ATOM     17  C   UNL     1      -2.648   3.688   1.237  0.00  0.00    -0.045 A 
ATOM     18  C   UNL     1      -2.636   4.922   0.614  0.00  0.00    +0.004 A 
ATOM     19  C   UNL     1      -3.790   5.681   0.561  0.00  0.00    +0.000 A 
ATOM     20  C   UNL     1      -4.954   5.210   1.139  0.00  0.00    +0.000 A 
ATOM     21  C   UNL     1      -4.964   3.978   1.767  0.00  0.00    +0.000 A 
ATOM     22  C   UNL     1      -3.811   3.217   1.815  0.00  0.00    +0.004 A 
ENDBRANCH  16  17
ENDBRANCH   3  16
ENDBRANCH   1   3
BRANCH   1  23
ATOM     23  O   UNL     1       1.139   1.891   0.001  0.00  0.00    -0.425 OA
BRANCH  23  24
ATOM     24  C   UNL     1       2.287   1.171   0.092  0.00  0.00    +0.135 A 
ATOM     25  C   UNL     1       2.744   0.459  -1.015  0.00  0.00    +0.047 A 
ATOM     26  C   UNL     1       3.896  -0.271  -0.938  0.00  0.00    +0.019 A 
ATOM     27  C   UNL     1       4.618  -0.301   0.256  0.00  0.00    +0.065 A 
ATOM     28  C   UNL     1       4.166   0.414   1.379  0.00  0.00    +0.142 A 
ATOM     29  C   UNL     1       2.994   1.155   1.281  0.00  0.00    +0.093 A 
ATOM     30  O   UNL     1       4.864   0.384   2.531  0.00  0.00    -0.462 OA
ATOM     31  C   UNL     1       5.997  -0.306   2.684  0.00  0.00    +0.208 A 
ATOM     32  C   UNL     1       6.546  -1.040   1.682  0.00  0.00    +0.064 A 
ATOM     33  C   UNL     1       5.865  -1.078   0.377  0.00  0.00    +0.200 A 
ATOM     34  O   UNL     1       6.311  -1.720  -0.559  0.00  0.00    -0.286 OA
BRANCH  32  35
ATOM     35  C   UNL     1       7.807  -1.791   1.898  0.00  0.00    -0.011 A 
ATOM     36  C   UNL     1       7.889  -3.137   1.549  0.00  0.00    +0.011 A 
ATOM     37  C   UNL     1       9.066  -3.829   1.747  0.00  0.00    +0.033 A 
ATOM     38  C   UNL     1      10.161  -3.191   2.302  0.00  0.00    +0.126 A 
ATOM     39  C   UNL     1      10.084  -1.856   2.657  0.00  0.00    +0.033 A 
ATOM     40  C   UNL     1       8.913  -1.153   2.458  0.00  0.00    +0.011 A 
BRANCH  38  41
ATOM     41  N   UNL     1      11.420  -3.940   2.518  0.00  0.00    +0.056 N 
ATOM     42  O   UNL     1      12.385  -3.381   3.007  0.00  0.00    -0.126 OA
ATOM     43  O   UNL     1      11.490  -5.115   2.206  0.00  0.00    -0.126 OA
ENDBRANCH  38  41
ENDBRANCH  32  35
ENDBRANCH  23  24
ENDBRANCH   1  23
TORSDOF 10
