REMARK  Name = ZINC13501117
REMARK  11 active torsions:
REMARK  status: ('A' for Active; 'I' for Inactive)
REMARK    1  A    between atoms: C_1  and  C_2
REMARK    2  A    between atoms: C_2  and  C_3
REMARK    3  A    between atoms: C_3  and  C_5
REMARK    4  A    between atoms: C_3  and  N_69
REMARK    5  A    between atoms: N_9  and  C_10
REMARK    6  A    between atoms: C_10  and  C_11
REMARK    7  A    between atoms: C_11  and  C_12
REMARK    8  A    between atoms: C_18  and  C_19
REMARK    9  A    between atoms: C_18  and  N_69
REMARK   10  A    between atoms: C_25  and  C_31
REMARK   11  A    between atoms: C_32  and  N_69
REMARK                            x       y       z     vdW  Elec       q    Type
REMARK                         _______ _______ _______ _____ _____    ______ ____
ROOT
ATOM      1  N   UNL     1       1.516  -3.300   5.331  0.00  0.00    +0.391 N 
ATOM      2  H   UNL     1       1.877  -2.357   5.142  0.00  0.00    -0.080 HD
ENDROOT
BRANCH   1   3
ATOM      3  C   UNL     1       2.273  -4.276   4.519  0.00  0.00    -0.067 C 
ATOM      4  C   UNL     1       1.832  -5.720   4.834  0.00  0.00    -0.015 C 
ATOM      5  C   UNL     1       3.145  -6.541   4.765  0.00  0.00    -0.002 C 
ATOM      6  C   UNL     1       4.185  -5.577   5.389  0.00  0.00    -0.002 C 
ATOM      7  C   UNL     1       3.768  -4.185   4.872  0.00  0.00    -0.015 C 
ENDBRANCH   1   3
BRANCH   1   8
ATOM      8  C   UNL     1       1.683  -3.599   6.768  0.00  0.00    +0.003 C 
BRANCH   8   9
ATOM      9  C   UNL     1       0.655  -4.605   7.219  0.00  0.00    +0.138 A 
ATOM     10  N   UNL     1      -0.635  -4.563   6.989  0.00  0.00    -0.115 NA
ATOM     11  N   UNL     1      -1.171  -5.599   7.536  0.00  0.00    -0.023 NA
ATOM     12  N   UNL     1      -0.256  -6.302   8.107  0.00  0.00    -0.044 NA
ATOM     13  N   UNL     1       0.884  -5.725   7.930  0.00  0.00    -0.231 N 
BRANCH  13  14
ATOM     14  C   UNL     1       2.184  -6.198   8.414  0.00  0.00    +0.152 C 
BRANCH  14  15
ATOM     15  C   UNL     1       2.449  -5.623   9.807  0.00  0.00    +0.058 C 
BRANCH  15  16
ATOM     16  C   UNL     1       3.785  -6.110  10.305  0.00  0.00    -0.046 A 
ATOM     17  C   UNL     1       3.867  -7.283  11.032  0.00  0.00    +0.004 A 
ATOM     18  C   UNL     1       5.094  -7.731  11.484  0.00  0.00    +0.000 A 
ATOM     19  C   UNL     1       6.237  -7.002  11.219  0.00  0.00    +0.000 A 
ATOM     20  C   UNL     1       6.155  -5.826  10.496  0.00  0.00    +0.000 A 
ATOM     21  C   UNL     1       4.929  -5.380  10.039  0.00  0.00    +0.004 A 
ENDBRANCH  15  16
ENDBRANCH  14  15
ENDBRANCH  13  14
ENDBRANCH   8   9
BRANCH   8  23
ATOM     22  C   UNL     1       2.622  -1.322   7.186  0.00  0.00    +0.002 C 
ATOM     23  C   UNL     1       1.508  -2.302   7.561  0.00  0.00    -0.011 C 
ENDBRANCH   8  23
ENDBRANCH   1   8
BRANCH   1  24
ATOM     24  C   UNL     1       0.083  -3.346   4.969  0.00  0.00    -0.036 C 
BRANCH  24  25
ATOM     25  C   UNL     1      -0.099  -2.681   3.628  0.00  0.00    +0.001 A 
ATOM     26  C   UNL     1      -0.189  -3.436   2.506  0.00  0.00    +0.017 A 
ATOM     27  C   UNL     1      -0.366  -2.760   1.220  0.00  0.00    -0.001 A 
ATOM     28  C   UNL     1      -0.465  -3.486   0.028  0.00  0.00    +0.010 A 
ATOM     29  C   UNL     1      -0.628  -2.824  -1.156  0.00  0.00    +0.001 A 
ATOM     30  C   UNL     1      -0.705  -1.438  -1.186  0.00  0.00    +0.005 A 
ATOM     31  C   UNL     1      -0.603  -0.703  -0.025  0.00  0.00    -0.026 A 
ATOM     32  C   UNL     1      -0.435  -1.354   1.192  0.00  0.00    +0.052 A 
ATOM     33  N   UNL     1      -0.336  -0.644   2.369  0.00  0.00    -0.322 N 
ATOM     34  H   UNL     1      -0.384   0.325   2.349  0.00  0.00    +0.169 HD
ATOM     35  C   UNL     1      -0.174  -1.274   3.546  0.00  0.00    +0.251 A 
ATOM     36  O   UNL     1      -0.091  -0.614   4.567  0.00  0.00    -0.268 OA
ATOM     37  C   UNL     1      -0.679   0.802  -0.074  0.00  0.00    +0.046 C 
ENDBRANCH  24  25
ENDBRANCH   1  24
TORSDOF 9
