REMARK  Name = ZINC27947667
REMARK  10 active torsions:
REMARK  status: ('A' for Active; 'I' for Inactive)
REMARK    1  A    between atoms: C_1  and  C_2
REMARK    2  A    between atoms: C_2  and  N_3
REMARK    3  A    between atoms: C_4  and  C_6
REMARK    4  A    between atoms: C_11  and  N_12
REMARK    5  A    between atoms: C_13  and  C_15
REMARK    6  A    between atoms: C_15  and  C_16
REMARK    7  A    between atoms: C_22  and  C_26
REMARK    8  A    between atoms: C_23  and  C_25
REMARK    9  A    between atoms: C_26  and  C_27
REMARK   10  A    between atoms: C_26  and  C_28
REMARK                            x       y       z     vdW  Elec       q    Type
REMARK                         _______ _______ _______ _____ _____    ______ ____
ROOT
ATOM      1  N   UNL     1      -4.055   2.921  -0.116  0.00  0.00    -0.285 N 
ATOM      2  C   UNL     1      -5.220   3.531   0.179  0.00  0.00    +0.222 C 
ATOM      3  O   UNL     1      -6.207   2.868   0.418  0.00  0.00    -0.275 OA
ATOM      4  H   UNL     1      -3.139   3.517  -0.244  0.00  0.00    +0.155 HD
ENDROOT
BRANCH   1  10
ATOM      5  C   UNL     1      -2.876   0.822   0.151  0.00  0.00    +0.058 A 
ATOM      6  C   UNL     1      -2.841  -0.566  -0.004  0.00  0.00    +0.015 A 
ATOM      7  C   UNL     1      -3.922  -1.224  -0.550  0.00  0.00    +0.001 A 
ATOM      8  C   UNL     1      -5.041  -0.515  -0.954  0.00  0.00    +0.002 A 
ATOM      9  C   UNL     1      -5.088   0.857  -0.812  0.00  0.00    +0.024 A 
ATOM     10  C   UNL     1      -4.010   1.536  -0.260  0.00  0.00    +0.046 A 
BRANCH   5  12
ATOM     11  N   UNL     1      -0.677   0.834   1.222  0.00  0.00    -0.312 N 
ATOM     12  C   UNL     1      -1.723   1.532   0.738  0.00  0.00    +0.246 C 
ATOM     13  O   UNL     1      -1.718   2.747   0.785  0.00  0.00    -0.270 OA
ATOM     14  H   UNL     1      -0.684  -0.266   1.183  0.00  0.00    +0.149 HD
BRANCH  11  16
ATOM     15  C   UNL     1       1.514   0.521   2.264  0.00  0.00    +0.024 C 
ATOM     16  C   UNL     1       0.470   1.539   1.799  0.00  0.00    +0.101 C 
ENDBRANCH  11  16
ENDBRANCH   5  12
ENDBRANCH   1  10
BRANCH   2  17
ATOM     17  C   UNL     1      -5.297   5.035   0.211  0.00  0.00    +0.135 C 
BRANCH  17  18
ATOM     18  C   UNL     1      -6.699   5.460   0.564  0.00  0.00    +0.007 A 
ATOM     19  C   UNL     1      -7.680   5.785  -0.289  0.00  0.00    +0.200 A 
ATOM     20  O   UNL     1      -8.794   6.112   0.388  0.00  0.00    -0.463 OA
ATOM     21  C   UNL     1      -8.594   6.016   1.718  0.00  0.00    +0.135 A 
ATOM     22  C   UNL     1      -7.267   5.594   1.911  0.00  0.00    +0.024 A 
ATOM     23  C   UNL     1      -6.770   5.414   3.200  0.00  0.00    +0.016 A 
ATOM     24  C   UNL     1      -7.590   5.640   4.284  0.00  0.00    -0.041 A 
ATOM     25  C   UNL     1      -8.902   6.050   4.094  0.00  0.00    -0.044 A 
ATOM     26  C   UNL     1      -9.404   6.238   2.824  0.00  0.00    +0.050 A 
ATOM     27  C   UNL     1      -9.787   6.293   5.290  0.00  0.00    +0.044 C 
BRANCH  24  28
ATOM     28  C   UNL     1      -7.060   5.441   5.680  0.00  0.00    +0.013 C 
ATOM     29  C   UNL     1      -6.488   4.028   5.812  0.00  0.00    +0.012 C 
ATOM     30  C   UNL     1      -5.959   6.466   5.959  0.00  0.00    +0.012 C 
ENDBRANCH  24  28
ENDBRANCH  17  18
ENDBRANCH   2  17
TORSDOF 6
