REMARK  Name = ZINC14040933
REMARK  10 active torsions:
REMARK  status: ('A' for Active; 'I' for Inactive)
REMARK    1  A    between atoms: C_4  and  O_7
REMARK    2  A    between atoms: O_7  and  C_8
REMARK    3  A    between atoms: C_8  and  C_9
REMARK    4  A    between atoms: C_9  and  O_10
REMARK    5  A    between atoms: O_10  and  C_11
REMARK    6  A    between atoms: C_15  and  C_17
REMARK    7  A    between atoms: N_19  and  N_20
REMARK    8  A    between atoms: C_21  and  C_23
REMARK    9  A    between atoms: C_23  and  O_24
REMARK   10  A    between atoms: O_24  and  C_25
REMARK                            x       y       z     vdW  Elec       q    Type
REMARK                         _______ _______ _______ _____ _____    ______ ____
ROOT
ATOM      1  C   UNL     1       2.943   6.570   0.009  0.00  0.00    +0.260 C 
ATOM      2  O   UNL     1       4.072   6.120  -0.004  0.00  0.00    -0.269 OA
ATOM      3  N   UNL     1       1.885   5.734   0.015  0.00  0.00    -0.230 N 
ATOM      4  H   UNL     1       0.984   6.093   0.025  0.00  0.00    +0.173 HD
ENDROOT
BRANCH   1   9
ATOM      5  C   UNL     1       3.615  10.269   0.023  0.00  0.00    +0.121 A 
ATOM      6  C   UNL     1       2.322  10.775   0.037  0.00  0.00    +0.046 A 
ATOM      7  C   UNL     1       1.238   9.917   0.043  0.00  0.00    +0.004 A 
ATOM      8  C   UNL     1       1.434   8.551   0.029  0.00  0.00    +0.013 A 
ATOM      9  C   UNL     1       2.729   8.033   0.019  0.00  0.00    +0.042 A 
ATOM     10  C   UNL     1       3.822   8.900   0.013  0.00  0.00    +0.058 A 
BRANCH   5  11
ATOM     11  O   UNL     1       4.677  11.117   0.017  0.00  0.00    -0.489 OA
BRANCH  11  12
ATOM     12  C   UNL     1       4.389  12.517   0.028  0.00  0.00    +0.270 C 
BRANCH  12  13
ATOM     13  C   UNL     1       5.699  13.307   0.019  0.00  0.00    +0.270 C 
BRANCH  13  14
ATOM     14  O   UNL     1       6.389  13.072  -1.210  0.00  0.00    -0.489 OA
BRANCH  14  18
ATOM     15  C   UNL     1      10.005  14.990  -1.724  0.00  0.00    +0.000 A 
ATOM     16  C   UNL     1       9.515  14.164  -2.718  0.00  0.00    +0.004 A 
ATOM     17  C   UNL     1       8.304  13.521  -2.549  0.00  0.00    +0.045 A 
ATOM     18  C   UNL     1       7.580  13.704  -1.379  0.00  0.00    +0.121 A 
ATOM     19  C   UNL     1       8.072  14.537  -0.385  0.00  0.00    +0.045 A 
ATOM     20  C   UNL     1       9.286  15.174  -0.557  0.00  0.00    +0.004 A 
ENDBRANCH  14  18
ENDBRANCH  13  14
ENDBRANCH  12  13
ENDBRANCH  11  12
ENDBRANCH   5  11
ENDBRANCH   1   9
BRANCH   3  21
ATOM     21  N   UNL     1       2.088   4.348   0.005  0.00  0.00    -0.231 N 
ATOM     22  C   UNL     1       1.030   3.512   0.011  0.00  0.00    +0.267 C 
ATOM     23  O   UNL     1      -0.097   3.961   0.024  0.00  0.00    -0.271 OA
ATOM     24  H   UNL     1       2.989   3.989  -0.005  0.00  0.00    +0.173 HD
BRANCH  22  25
ATOM     25  C   UNL     1       1.248   2.021   0.001  0.00  0.00    +0.326 C 
BRANCH  25  26
ATOM     26  O   UNL     1      -0.016   1.355   0.009  0.00  0.00    -0.481 OA
BRANCH  26  27
ATOM     27  C   UNL     1       0.002  -0.004   0.002  0.00  0.00    +0.139 A 
ATOM     28  C   UNL     1       1.212  -0.682  -0.013  0.00  0.00    +0.048 A 
ATOM     29  C   UNL     1       1.229  -2.064  -0.021  0.00  0.00    +0.019 A 
ATOM     30  C   UNL     1       0.040  -2.771  -0.013  0.00  0.00    +0.019 A 
ATOM     31  C   UNL     1      -1.168  -2.098   0.002  0.00  0.00    +0.039 A 
ATOM     32  C   UNL     1      -1.190  -0.716   0.015  0.00  0.00    +0.084 A 
ATOM     33 CL   UNL     1      -2.706   0.130   0.042  0.00  0.00    -0.080 Cl
ATOM     34 BR   UNL     1       0.067  -4.662  -0.024  0.00  0.00    -0.050 Br
ENDBRANCH  26  27
ENDBRANCH  25  26
ENDBRANCH  22  25
ENDBRANCH   3  21
TORSDOF 10
