REMARK  Name = ZINC39982143
REMARK  4 active torsions:
REMARK  status: ('A' for Active; 'I' for Inactive)
REMARK    1  A    between atoms: C_3  and  C_6
REMARK    2  A    between atoms: C_6  and  N_7
REMARK    3  A    between atoms: N_7  and  C_8
REMARK    4  A    between atoms: C_10  and  C_17
REMARK                            x       y       z     vdW  Elec       q    Type
REMARK                         _______ _______ _______ _____ _____    ______ ____
ROOT
ATOM      1  C   UNL     1       5.457   0.574   1.585  0.00  0.00    +0.126 A 
ATOM      2  C   UNL     1       6.356   0.564   0.536  0.00  0.00    +0.076 A 
ATOM      3  C   UNL     1       7.720   0.531   0.816  0.00  0.00    +0.151 A 
ATOM      4  N   UNL     1       8.145   0.510   2.062  0.00  0.00    -0.206 NA
ATOM      5  C   UNL     1       7.286   0.519   3.088  0.00  0.00    +0.255 A 
ATOM      6  N   UNL     1       5.939   0.556   2.862  0.00  0.00    -0.183 N 
ATOM      7  N   UNL     1       5.326   0.564   4.122  0.00  0.00    -0.151 NA
ATOM      8  C   UNL     1       6.285   0.537   5.015  0.00  0.00    +0.247 A 
ATOM      9  N   UNL     1       7.463   0.502   4.404  0.00  0.00    -0.197 NA
ENDROOT
BRANCH   3  10
ATOM     10  C   UNL     1       8.716   0.519  -0.315  0.00  0.00    +0.434 C 
ATOM     11  F   UNL     1      10.013   0.486   0.207  0.00  0.00    -0.164 F 
ATOM     12  F   UNL     1       8.504  -0.611  -1.111  0.00  0.00    -0.164 F 
ATOM     13  F   UNL     1       8.554   1.673  -1.091  0.00  0.00    -0.164 F 
ENDBRANCH   3  10
BRANCH   1  14
ATOM     14  N   UNL     1       4.101   0.607   1.347  0.00  0.00    -0.322 N 
ATOM     15  H   UNL     1       3.478   0.617   2.090  0.00  0.00    +0.148 HD
BRANCH  14  16
ATOM     16  C   UNL     1       3.599   0.625  -0.029  0.00  0.00    +0.177 C 
BRANCH  16  19
ATOM     17  C   UNL     1      -0.016   1.341   0.009  0.00  0.00    +0.041 A 
ATOM     18  C   UNL     1       1.331   1.769  -0.001  0.00  0.00    +0.046 A 
ATOM     19  C   UNL     1       2.092   0.660  -0.014  0.00  0.00    +0.122 A 
ATOM     20  O   UNL     1       1.282  -0.411  -0.012  0.00  0.00    -0.466 OA
ATOM     21  C   UNL     1       0.002  -0.004   0.002  0.00  0.00    +0.195 A 
ENDBRANCH  16  19
ENDBRANCH  14  16
ENDBRANCH   1  14
TORSDOF 4
