REMARK  Name = ZINC39684491
REMARK  10 active torsions:
REMARK  status: ('A' for Active; 'I' for Inactive)
REMARK    1  A    between atoms: C_1  and  C_2
REMARK    2  A    between atoms: C_3  and  C_15
REMARK    3  A    between atoms: C_4  and  C_7
REMARK    4  A    between atoms: C_19  and  C_28
REMARK    5  A    between atoms: N_30  and  C_31
REMARK    6  A    between atoms: C_31  and  C_33
REMARK    7  A    between atoms: C_31  and  C_34
REMARK    8  A    between atoms: C_34  and  C_35
REMARK    9  A    between atoms: C_34  and  C_36
REMARK   10  A    between atoms: C_34  and  C_37
REMARK                            x       y       z     vdW  Elec       q    Type
REMARK                         _______ _______ _______ _____ _____    ______ ____
ROOT
ATOM      1  C   UNL     1      -2.229  -0.598   0.424  0.00  0.00    +0.252 C 
ATOM      2  O   UNL     1      -2.917  -0.338  -0.544  0.00  0.00    -0.270 OA
ATOM      3  N   UNL     1      -2.795  -0.711   1.642  0.00  0.00    -0.296 N 
ATOM      4  C   UNL     1      -2.127  -1.014   2.930  0.00  0.00    +0.121 C 
ATOM      5  C   UNL     1      -2.836  -0.107   3.960  0.00  0.00    +0.100 C 
ATOM      6  C   UNL     1      -4.214   0.186   3.343  0.00  0.00    -0.004 C 
ATOM      7  C   UNL     1      -4.226  -0.553   1.997  0.00  0.00    +0.115 C 
ATOM      8  C   UNL     1      -4.383   1.685   3.115  0.00  0.00    -0.010 C 
ATOM      9  C   UNL     1      -5.782   1.957   2.554  0.00  0.00    -0.082 C 
ATOM     10  N   UNL     1      -6.794   1.467   3.499  0.00  0.00    +0.379 N 
ATOM     11  C   UNL     1      -6.683   0.011   3.641  0.00  0.00    -0.082 C 
ATOM     12  C   UNL     1      -5.322  -0.343   4.248  0.00  0.00    -0.010 C 
ATOM     13  H   UNL     1      -6.651   1.903   4.398  0.00  0.00    -0.086 HD
ATOM     14  H   UNL     1      -7.713   1.702   3.156  0.00  0.00    -0.086 HD
ENDROOT
BRANCH   1  17
ATOM     15  C   UNL     1      -0.076   1.666   0.365  0.00  0.00    +0.090 C 
ATOM     16  C   UNL     1       0.174   0.186   0.238  0.00  0.00    +0.147 A 
ATOM     17  C   UNL     1      -0.778  -0.791   0.266  0.00  0.00    +0.106 A 
ATOM     18  C   UNL     1      -0.075  -2.073   0.108  0.00  0.00    +0.128 A 
ATOM     19  N   UNL     1       1.200  -1.797  -0.000  0.00  0.00    -0.077 NA
ATOM     20  O   UNL     1       1.365  -0.395   0.074  0.00  0.00    -0.359 OA
BRANCH  18  21
ATOM     21  C   UNL     1      -0.693  -3.421   0.076  0.00  0.00    +0.041 A 
ATOM     22  C   UNL     1      -1.641  -3.734  -0.897  0.00  0.00    +0.052 A 
ATOM     23  C   UNL     1      -2.212  -4.992  -0.921  0.00  0.00    +0.021 A 
ATOM     24  C   UNL     1      -1.846  -5.939   0.018  0.00  0.00    +0.003 A 
ATOM     25  C   UNL     1      -0.907  -5.634   0.986  0.00  0.00    +0.021 A 
ATOM     26  C   UNL     1      -0.324  -4.382   1.017  0.00  0.00    +0.052 A 
ATOM     27 CL   UNL     1       0.861  -4.004   2.229  0.00  0.00    -0.083 Cl
ATOM     28 CL   UNL     1      -2.103  -2.546  -2.076  0.00  0.00    -0.083 Cl
ENDBRANCH  18  21
ENDBRANCH   1  17
BRANCH   5  29
ATOM     29  C   UNL     1      -2.990  -0.827   5.275  0.00  0.00    +0.218 C 
ATOM     30  O   UNL     1      -3.131  -2.031   5.294  0.00  0.00    -0.275 OA
ATOM     31  N   UNL     1      -2.971  -0.133   6.430  0.00  0.00    -0.312 N 
ATOM     32  H   UNL     1      -2.858   0.831   6.415  0.00  0.00    +0.149 HD
BRANCH  31  33
ATOM     33  C   UNL     1      -3.121  -0.833   7.708  0.00  0.00    +0.075 C 
ATOM     34  C   UNL     1      -1.757  -1.352   8.168  0.00  0.00    +0.028 C 
BRANCH  33  35
ATOM     35  C   UNL     1      -3.679   0.132   8.756  0.00  0.00    -0.020 C 
ATOM     36  C   UNL     1      -5.043   0.651   8.296  0.00  0.00    +0.012 C 
ATOM     37  C   UNL     1      -3.835  -0.599  10.091  0.00  0.00    +0.012 C 
ATOM     38  C   UNL     1      -2.717   1.309   8.929  0.00  0.00    +0.012 C 
ENDBRANCH  33  35
ENDBRANCH  31  33
ENDBRANCH   5  29
TORSDOF 5
