REMARK  Name = ZINC37060381
REMARK  5 active torsions:
REMARK  status: ('A' for Active; 'I' for Inactive)
REMARK    1  A    between atoms: C_1  and  C_2
REMARK    2  A    between atoms: C_2  and  C_4
REMARK    3  A    between atoms: C_2  and  N_12
REMARK    4  A    between atoms: N_12  and  C_13
REMARK    5  A    between atoms: C_15  and  N_20
REMARK                            x       y       z     vdW  Elec       q    Type
REMARK                         _______ _______ _______ _____ _____    ______ ____
ROOT
ATOM      1  N   UNL     1      -1.372  -0.511   0.012  0.00  0.00    -0.335 N 
ATOM      2  H   UNL     1      -1.794  -0.752   0.852  0.00  0.00    +0.147 HD
ENDROOT
BRANCH   1   3
ATOM      3  C   UNL     1      -2.076  -0.648  -1.188  0.00  0.00    +0.065 A 
ATOM      4  C   UNL     1      -1.472  -0.309  -2.391  0.00  0.00    +0.058 A 
ATOM      5  C   UNL     1      -2.170  -0.445  -3.576  0.00  0.00    +0.128 A 
ATOM      6  C   UNL     1      -3.469  -0.919  -3.565  0.00  0.00    +0.035 A 
ATOM      7  C   UNL     1      -4.075  -1.257  -2.369  0.00  0.00    +0.042 A 
ATOM      8  C   UNL     1      -3.381  -1.129  -1.180  0.00  0.00    +0.144 A 
ATOM      9  F   UNL     1      -3.971  -1.465  -0.012  0.00  0.00    -0.204 F 
BRANCH   5  10
ATOM     10  N   UNL     1      -1.526  -0.083  -4.859  0.00  0.00    +0.056 N 
ATOM     11  O   UNL     1      -0.391   0.332  -4.869  0.00  0.00    -0.126 OA
ATOM     12  O   UNL     1      -2.136  -0.202  -5.896  0.00  0.00    -0.126 OA
ENDBRANCH   5  10
ENDBRANCH   1   3
BRANCH   1  14
ATOM     13  C   UNL     1      -0.019   1.526   0.010  0.00  0.00    +0.033 C 
ATOM     14  C   UNL     1       0.002  -0.004   0.002  0.00  0.00    +0.098 C 
BRANCH  14  15
ATOM     15  C   UNL     1       0.731  -0.503   1.223  0.00  0.00    -0.025 A 
ATOM     16  C   UNL     1       0.080  -0.558   2.441  0.00  0.00    +0.008 A 
ATOM     17  C   UNL     1       0.746  -1.016   3.562  0.00  0.00    +0.041 A 
ATOM     18  C   UNL     1       2.067  -1.420   3.466  0.00  0.00    +0.158 A 
ATOM     19  C   UNL     1       2.719  -1.365   2.244  0.00  0.00    +0.159 A 
ATOM     20  C   UNL     1       2.048  -0.911   1.122  0.00  0.00    +0.046 A 
ATOM     21  F   UNL     1       4.008  -1.759   2.147  0.00  0.00    -0.202 F 
ATOM     22  F   UNL     1       2.719  -1.867   4.562  0.00  0.00    -0.202 F 
ENDBRANCH  14  15
ENDBRANCH   1  14
TORSDOF 4
