REMARK  Name = ZINC13897515
REMARK  17 active torsions:
REMARK  status: ('A' for Active; 'I' for Inactive)
REMARK    1  A    between atoms: C_1  and  C_2
REMARK    2  A    between atoms: C_4  and  C_37
REMARK    3  A    between atoms: C_6  and  S_8
REMARK    4  A    between atoms: S_8  and  C_9
REMARK    5  A    between atoms: C_11  and  O_33
REMARK    6  A    between atoms: C_13  and  O_29
REMARK    7  A    between atoms: C_15  and  O_25
REMARK    8  A    between atoms: C_17  and  C_20
REMARK    9  A    between atoms: C_20  and  O_21
REMARK   10  A    between atoms: O_21  and  C_22
REMARK   11  A    between atoms: C_22  and  C_24
REMARK   12  A    between atoms: O_25  and  C_26
REMARK   13  A    between atoms: C_26  and  C_28
REMARK   14  A    between atoms: O_29  and  C_30
REMARK   15  A    between atoms: C_30  and  C_32
REMARK   16  A    between atoms: O_33  and  C_34
REMARK   17  A    between atoms: C_34  and  C_36
REMARK                            x       y       z     vdW  Elec       q    Type
REMARK                         _______ _______ _______ _____ _____    ______ ____
ROOT
ATOM      1  C   UNL     1      -0.905  -2.586  -0.003  0.00  0.00    +0.228 C 
ATOM      2  C   UNL     1      -2.068  -3.551  -0.246  0.00  0.00    +0.260 C 
ATOM      3  C   UNL     1      -1.547  -4.990  -0.198  0.00  0.00    +0.263 C 
ATOM      4  C   UNL     1      -0.866  -5.230   1.153  0.00  0.00    +0.252 C 
ATOM      5  C   UNL     1       0.251  -4.200   1.343  0.00  0.00    +0.202 C 
ATOM      6  O   UNL     1      -0.297  -2.883   1.256  0.00  0.00    -0.351 OA
ENDROOT
BRANCH   1   7
ATOM      7  S   UNL     1      -1.524  -0.885   0.012  0.00  0.00    -0.051 S 
BRANCH   7  13
ATOM      8  C   UNL     1       3.594  -0.830  -0.037  0.00  0.00    +0.066 C 
ATOM      9  C   UNL     1       2.303  -0.051  -0.020  0.00  0.00    +0.043 A 
ATOM     10  C   UNL     1       2.321   1.335  -0.013  0.00  0.00    +0.046 A 
ATOM     11  C   UNL     1       1.112   2.013   0.002  0.00  0.00    +0.043 A 
ATOM     12  N   UNL     1      -0.016   1.321   0.009  0.00  0.00    -0.227 NA
ATOM     13  C   UNL     1       0.002  -0.004   0.002  0.00  0.00    +0.191 A 
ATOM     14  N   UNL     1       1.141  -0.682  -0.013  0.00  0.00    -0.227 NA
ATOM     15  C   UNL     1       1.082   3.519   0.010  0.00  0.00    +0.066 C 
ENDBRANCH   7  13
ENDBRANCH   1   7
BRANCH   5  16
ATOM     16  C   UNL     1       0.897  -4.395   2.716  0.00  0.00    +0.267 C 
BRANCH  16  17
ATOM     17  O   UNL     1       2.031  -3.499   2.849  0.00  0.00    -0.462 OA
BRANCH  17  18
ATOM     18  C   UNL     1       2.712  -3.545   4.005  0.00  0.00    +0.304 C 
ATOM     19  O   UNL     1       2.372  -4.309   4.877  0.00  0.00    -0.251 OA
ATOM     20  C   UNL     1       3.902  -2.644   4.215  0.00  0.00    +0.136 C 
ENDBRANCH  17  18
ENDBRANCH  16  17
ENDBRANCH   5  16
BRANCH   4  21
ATOM     21  O   UNL     1      -1.842  -5.089   2.219  0.00  0.00    -0.455 OA
BRANCH  21  22
ATOM     22  C   UNL     1      -1.643  -5.821   3.327  0.00  0.00    +0.304 C 
ATOM     23  O   UNL     1      -0.686  -6.554   3.403  0.00  0.00    -0.251 OA
ATOM     24  C   UNL     1      -2.614  -5.727   4.476  0.00  0.00    +0.136 C 
ENDBRANCH  21  22
ENDBRANCH   4  21
BRANCH   3  25
ATOM     25  O   UNL     1      -0.587  -5.195  -1.268  0.00  0.00    -0.454 OA
BRANCH  25  26
ATOM     26  C   UNL     1      -1.069  -5.626  -2.445  0.00  0.00    +0.304 C 
ATOM     27  O   UNL     1      -2.254  -5.826  -2.576  0.00  0.00    -0.251 OA
ATOM     28  C   UNL     1      -0.133  -5.862  -3.602  0.00  0.00    +0.136 C 
ENDBRANCH  25  26
ENDBRANCH   3  25
BRANCH   2  29
ATOM     29  O   UNL     1      -2.650  -3.289  -1.551  0.00  0.00    -0.454 OA
BRANCH  29  30
ATOM     30  C   UNL     1      -3.649  -2.394  -1.604  0.00  0.00    +0.304 C 
ATOM     31  O   UNL     1      -4.025  -1.847  -0.594  0.00  0.00    -0.251 OA
ATOM     32  C   UNL     1      -4.302  -2.071  -2.923  0.00  0.00    +0.136 C 
ENDBRANCH  29  30
ENDBRANCH   2  29
TORSDOF 11
