REMARK  Name = ZINC67233798
REMARK  9 active torsions:
REMARK  status: ('A' for Active; 'I' for Inactive)
REMARK    1  A    between atoms: C_1  and  C_2
REMARK    2  A    between atoms: C_2  and  C_3
REMARK    3  A    between atoms: C_2  and  C_4
REMARK    4  A    between atoms: C_2  and  O_5
REMARK    5  A    between atoms: O_5  and  C_6
REMARK    6  A    between atoms: N_8  and  C_9
REMARK    7  A    between atoms: C_9  and  C_10
REMARK    8  A    between atoms: N_12  and  C_13
REMARK    9  A    between atoms: C_13  and  C_17
REMARK                            x       y       z     vdW  Elec       q    Type
REMARK                         _______ _______ _______ _____ _____    ______ ____
ROOT
ATOM      1  C   UNL     1       4.577  -0.615  -3.888  0.00  0.00    +0.231 C 
ATOM      2  O   UNL     1       3.847  -1.273  -4.598  0.00  0.00    -0.274 OA
ATOM      3  N   UNL     1       5.856  -0.397  -4.254  0.00  0.00    -0.304 N 
ATOM      4  H   UNL     1       6.418   0.191  -3.725  0.00  0.00    +0.150 HD
ENDROOT
BRANCH   3   5
ATOM      5  C   UNL     1       6.396  -1.047  -5.450  0.00  0.00    +0.060 C 
ATOM      6  C   UNL     1       7.660  -0.367  -6.003  0.00  0.00    +0.030 C 
ATOM      7  C   UNL     1       6.723   0.517  -6.842  0.00  0.00    +0.005 C 
ATOM      8  C   UNL     1       5.695  -0.624  -6.751  0.00  0.00    +0.030 C 
BRANCH   5   9
ATOM      9  C   UNL     1       6.530  -2.540  -5.295  0.00  0.00    -0.023 A 
ATOM     10  C   UNL     1       6.737  -3.335  -6.407  0.00  0.00    +0.006 A 
ATOM     11  C   UNL     1       6.860  -4.704  -6.265  0.00  0.00    +0.001 A 
ATOM     12  C   UNL     1       6.777  -5.280  -5.011  0.00  0.00    +0.015 A 
ATOM     13  C   UNL     1       6.571  -4.485  -3.898  0.00  0.00    +0.018 A 
ATOM     14  C   UNL     1       6.453  -3.114  -4.040  0.00  0.00    +0.021 A 
ATOM     15 BR   UNL     1       6.457  -5.271  -2.182  0.00  0.00    -0.050 Br
ENDBRANCH   5   9
ENDBRANCH   3   5
BRANCH   1  16
ATOM     16  C   UNL     1       4.055  -0.042  -2.595  0.00  0.00    +0.203 C 
BRANCH  16  19
ATOM     17  C   UNL     1       1.969  -0.014  -1.336  0.00  0.00    +0.401 C 
ATOM     18  O   UNL     1       2.522   0.662  -0.491  0.00  0.00    -0.226 OA
ATOM     19  N   UNL     1       2.649  -0.418  -2.427  0.00  0.00    -0.273 N 
ATOM     20  H   UNL     1       2.207  -0.957  -3.102  0.00  0.00    +0.153 HD
BRANCH  17  21
ATOM     21  O   UNL     1       0.677  -0.359  -1.181  0.00  0.00    -0.445 OA
BRANCH  21  23
ATOM     22  C   UNL     1       0.042   1.633   0.030  0.00  0.00    +0.055 C 
ATOM     23  C   UNL     1       0.018   0.103  -0.001  0.00  0.00    +0.107 C 
ATOM     24  C   UNL     1       0.740  -0.443   1.233  0.00  0.00    +0.055 C 
ATOM     25  C   UNL     1      -1.432  -0.385  -0.001  0.00  0.00    +0.055 C 
ENDBRANCH  21  23
ENDBRANCH  17  21
ENDBRANCH  16  19
ENDBRANCH   1  16
TORSDOF 6
