REMARK  Name = ZINC35374687
REMARK  10 active torsions:
REMARK  status: ('A' for Active; 'I' for Inactive)
REMARK    1  A    between atoms: C_1  and  C_2
REMARK    2  A    between atoms: C_2  and  C_3
REMARK    3  A    between atoms: C_3  and  C_5
REMARK    4  A    between atoms: C_3  and  C_6
REMARK    5  A    between atoms: C_6  and  N_7
REMARK    6  A    between atoms: C_8  and  C_10
REMARK    7  A    between atoms: C_21  and  C_23
REMARK    8  A    between atoms: C_23  and  C_25
REMARK    9  A    between atoms: C_23  and  C_27
REMARK   10  A    between atoms: C_25  and  C_26
REMARK                            x       y       z     vdW  Elec       q    Type
REMARK                         _______ _______ _______ _____ _____    ______ ____
ROOT
ATOM      1  C   UNL     1      -5.598  -4.901   0.732  0.00  0.00    +0.028 C 
ATOM      2  C   UNL     1      -6.421  -5.014   2.051  0.00  0.00    +0.061 C 
ATOM      3  S   UNL     1      -7.481  -6.463   1.618  0.00  0.00    -0.174 S 
ATOM      4  C   UNL     1      -6.446  -7.150   0.266  0.00  0.00    -0.016 C 
ATOM      5  N   UNL     1      -5.265  -6.262   0.266  0.00  0.00    +0.397 N 
ATOM      6  C   UNL     1      -6.050  -8.581   0.597  0.00  0.00    +0.017 C 
ATOM      7  C   UNL     1      -5.162  -9.138  -0.523  0.00  0.00    +0.107 C 
ATOM      8  N   UNL     1      -5.855  -8.959  -1.806  0.00  0.00    -0.301 N 
ATOM      9  C   UNL     1      -6.316  -7.614  -2.181  0.00  0.00    +0.107 C 
ATOM     10  C   UNL     1      -7.197  -7.065  -1.053  0.00  0.00    +0.017 C 
ATOM     11  C   UNL     1      -6.064 -10.008  -2.626  0.00  0.00    +0.223 C 
ATOM     12  O   UNL     1      -5.599 -11.094  -2.351  0.00  0.00    -0.275 OA
ATOM     13  H   UNL     1      -4.899  -6.207  -0.673  0.00  0.00    -0.083 HD
ATOM     14  H   UNL     1      -4.558  -6.652   0.870  0.00  0.00    -0.083 HD
ENDROOT
BRANCH   1  16
ATOM     15  N   UNL     1      -4.391  -2.855   1.422  0.00  0.00    -0.316 N 
ATOM     16  C   UNL     1      -4.329  -4.130   0.992  0.00  0.00    +0.200 C 
ATOM     17  O   UNL     1      -3.252  -4.659   0.814  0.00  0.00    -0.278 OA
ATOM     18  H   UNL     1      -5.253  -2.433   1.565  0.00  0.00    +0.149 HD
BRANCH  15  19
ATOM     19  C   UNL     1      -3.158  -2.106   1.675  0.00  0.00    +0.107 C 
BRANCH  19  20
ATOM     20  C   UNL     1      -3.506  -0.694   2.151  0.00  0.00    +0.003 C 
ATOM     21  C   UNL     1      -4.216  -0.773   3.504  0.00  0.00    +0.009 C 
BRANCH  20  23
ATOM     22  C   UNL     1      -2.580   1.572   2.650  0.00  0.00    +0.004 C 
ATOM     23  C   UNL     1      -2.224   0.127   2.295  0.00  0.00    +0.001 C 
ENDBRANCH  20  23
ENDBRANCH  19  20
ENDBRANCH  15  19
ENDBRANCH   1  16
BRANCH  11  24
ATOM     24  C   UNL     1      -6.874  -9.832  -3.884  0.00  0.00    +0.105 C 
BRANCH  24  25
ATOM     25  C   UNL     1      -7.465 -11.158  -4.290  0.00  0.00    -0.036 A 
ATOM     26  C   UNL     1      -6.636 -12.228  -4.568  0.00  0.00    +0.004 A 
ATOM     27  C   UNL     1      -7.178 -13.444  -4.941  0.00  0.00    +0.000 A 
ATOM     28  C   UNL     1      -8.549 -13.590  -5.035  0.00  0.00    +0.000 A 
ATOM     29  C   UNL     1      -9.379 -12.520  -4.755  0.00  0.00    +0.000 A 
ATOM     30  C   UNL     1      -8.837 -11.305  -4.378  0.00  0.00    +0.004 A 
ENDBRANCH  24  25
BRANCH  24  31
ATOM     31  C   UNL     1      -5.971  -9.312  -5.004  0.00  0.00    +0.014 C 
ATOM     32  C   UNL     1      -6.817  -9.015  -6.244  0.00  0.00    +0.005 C 
ENDBRANCH  24  31
ENDBRANCH  11  24
TORSDOF 7
