REMARK  Name = ZINC01164117
REMARK  4 active torsions:
REMARK  status: ('A' for Active; 'I' for Inactive)
REMARK    1  A    between atoms: C_1  and  C_2
REMARK    2  A    between atoms: C_11  and  S_13
REMARK    3  A    between atoms: S_13  and  N_16
REMARK    4  A    between atoms: N_20  and  C_22
REMARK                            x       y       z     vdW  Elec       q    Type
REMARK                         _______ _______ _______ _____ _____    ______ ____
ROOT
ATOM      1  S   UNL     1      -3.263   4.373   0.055  0.00  0.00    +0.074 S 
ATOM      2  O   UNL     1      -3.833   5.674   0.094  0.00  0.00    -0.150 OA
ATOM      3  O   UNL     1      -3.565   3.439  -0.973  0.00  0.00    -0.150 OA
ENDROOT
BRANCH   1  14
ATOM      4  C   UNL     1      -5.267   1.049   7.424  0.00  0.00    +0.109 C 
ATOM      5  C   UNL     1      -4.960   2.020   6.312  0.00  0.00    +0.217 C 
ATOM      6  O   UNL     1      -5.005   3.214   6.521  0.00  0.00    -0.276 OA
ATOM      7  N   UNL     1      -4.636   1.561   5.087  0.00  0.00    -0.271 N 
ATOM      8  C   UNL     1      -4.550   0.146   4.716  0.00  0.00    +0.118 C 
ATOM      9  C   UNL     1      -4.151   0.142   3.231  0.00  0.00    +0.056 C 
ATOM     10  C   UNL     1      -4.039   1.605   2.864  0.00  0.00    -0.023 A 
ATOM     11  C   UNL     1      -4.333   2.365   3.984  0.00  0.00    +0.040 A 
ATOM     12  C   UNL     1      -4.295   3.757   3.888  0.00  0.00    +0.026 A 
ATOM     13  C   UNL     1      -3.970   4.363   2.693  0.00  0.00    +0.030 A 
ATOM     14  C   UNL     1      -3.678   3.595   1.581  0.00  0.00    +0.109 A 
ATOM     15  C   UNL     1      -3.718   2.216   1.667  0.00  0.00    +0.034 A 
ENDBRANCH   1  14
BRANCH   1  16
ATOM     16  N   UNL     1      -1.619   4.577   0.041  0.00  0.00    -0.198 N 
ATOM     17  C   UNL     1      -0.776   3.460   0.027  0.00  0.00    +0.160 A 
ATOM     18  C   UNL     1       0.628   3.489   0.014  0.00  0.00    +0.066 A 
ATOM     19  C   UNL     1       1.070   2.211   0.004  0.00  0.00    +0.116 A 
ATOM     20  N   UNL     1      -0.017   1.397   0.010  0.00  0.00    -0.238 N 
ATOM     21  N   UNL     1      -1.161   2.205   0.019  0.00  0.00    -0.150 NA
ATOM     22  H   UNL     1      -1.241   5.470   0.042  0.00  0.00    +0.175 HD
BRANCH  20  23
ATOM     23  C   UNL     1       0.002  -0.004   0.002  0.00  0.00    +0.065 A 
ATOM     24  C   UNL     1       1.213  -0.683  -0.019  0.00  0.00    +0.028 A 
ATOM     25  C   UNL     1       1.228  -2.064  -0.021  0.00  0.00    +0.002 A 
ATOM     26  C   UNL     1       0.040  -2.771  -0.014  0.00  0.00    +0.000 A 
ATOM     27  C   UNL     1      -1.168  -2.097   0.002  0.00  0.00    +0.002 A 
ATOM     28  C   UNL     1      -1.190  -0.716   0.010  0.00  0.00    +0.028 A 
ENDBRANCH  20  23
ENDBRANCH   1  16
TORSDOF 3
