REMARK  Name = ZINC05162482
REMARK  6 active torsions:
REMARK  status: ('A' for Active; 'I' for Inactive)
REMARK    1  A    between atoms: C_1  and  O_2
REMARK    2  A    between atoms: O_2  and  C_3
REMARK    3  A    between atoms: C_3  and  C_5
REMARK    4  A    between atoms: C_5  and  C_6
REMARK    5  A    between atoms: C_13  and  N_27
REMARK    6  A    between atoms: C_14  and  C_25
REMARK                            x       y       z     vdW  Elec       q    Type
REMARK                         _______ _______ _______ _____ _____    ______ ____
ROOT
ATOM      1  C   UNL     1       1.419  -2.539   2.331  0.00  0.00    +0.055 A 
ATOM      2  C   UNL     1       0.890  -2.692   3.554  0.00  0.00    +0.062 A 
ATOM      3  C   UNL     1       1.922  -3.100   4.430  0.00  0.00    +0.245 A 
ATOM      4  N   UNL     1       3.023  -3.182   3.743  0.00  0.00    -0.135 NA
ATOM      5  N   UNL     1       2.736  -2.840   2.412  0.00  0.00    -0.277 N 
ATOM      6  H   UNL     1       3.370  -2.821   1.679  0.00  0.00    +0.189 HD
ATOM      7  O   UNL     1       1.693  -3.338   5.749  0.00  0.00    -0.421 OA
ATOM      8  C   UNL     1       0.411  -3.434   6.157  0.00  0.00    +0.201 C 
ATOM      9  C   UNL     1      -0.656  -3.065   5.414  0.00  0.00    +0.110 C 
ATOM     10  C   UNL     1      -0.523  -2.496   4.028  0.00  0.00    +0.145 C 
ATOM     11  C   UNL     1      -0.913  -1.054   3.991  0.00  0.00    -0.002 A 
ATOM     12  C   UNL     1      -0.402   0.050   4.640  0.00  0.00    +0.007 A 
ATOM     13  C   UNL     1      -1.009   1.273   4.377  0.00  0.00    +0.000 A 
ATOM     14  C   UNL     1      -2.074   1.375   3.505  0.00  0.00    +0.002 A 
ATOM     15  C   UNL     1      -2.594   0.270   2.850  0.00  0.00    +0.023 A 
ATOM     16  C   UNL     1      -1.994  -0.965   3.105  0.00  0.00    +0.038 A 
ATOM     17  N   UNL     1      -2.305  -2.214   2.598  0.00  0.00    -0.284 N 
ATOM     18  C   UNL     1      -1.492  -3.175   3.087  0.00  0.00    +0.238 C 
ATOM     19  O   UNL     1      -1.533  -4.358   2.821  0.00  0.00    -0.274 OA
ATOM     20  H   UNL     1      -3.022  -2.380   1.966  0.00  0.00    +0.155 HD
ENDROOT
BRANCH   8  21
ATOM     21  N   UNL     1       0.175  -3.939   7.411  0.00  0.00    -0.328 N 
ATOM     22  H   UNL     1       0.917  -4.214   7.971  0.00  0.00    +0.145 HD
ATOM     23  H   UNL     1      -0.735  -4.022   7.736  0.00  0.00    +0.145 HD
ENDBRANCH   8  21
BRANCH   9  24
ATOM     24  C   UNL     1      -1.966  -3.223   5.969  0.00  0.00    +0.102 C 
ATOM     25  N   UNL     1      -3.006  -3.348   6.409  0.00  0.00    -0.191 NA
ENDBRANCH   9  24
BRANCH   1  26
ATOM     26  C   UNL     1       0.679  -2.115   1.088  0.00  0.00    +0.175 C 
BRANCH  26  27
ATOM     27  C   UNL     1       0.618  -0.611   1.029  0.00  0.00    +0.313 C 
ATOM     28  O   UNL     1       1.124   0.049   1.905  0.00  0.00    -0.250 OA
BRANCH  27  30
ATOM     29  C   UNL     1      -0.017   1.425   0.010  0.00  0.00    +0.280 C 
ATOM     30  O   UNL     1       0.002  -0.004   0.002  0.00  0.00    -0.468 OA
ENDBRANCH  27  30
ENDBRANCH  26  27
ENDBRANCH   1  26
TORSDOF 5
