REMARK  Name = ZINC08993818
REMARK  7 active torsions:
REMARK  status: ('A' for Active; 'I' for Inactive)
REMARK    1  A    between atoms: C_1  and  C_2
REMARK    2  A    between atoms: C_11  and  N_21
REMARK    3  A    between atoms: C_13  and  C_15
REMARK    4  A    between atoms: C_15  and  N_63
REMARK    5  A    between atoms: N_21  and  C_22
REMARK    6  A    between atoms: C_22  and  C_24
REMARK    7  A    between atoms: C_22  and  C_25
REMARK                            x       y       z     vdW  Elec       q    Type
REMARK                         _______ _______ _______ _____ _____    ______ ____
ROOT
ATOM      1  C   UNL     1      -3.150   7.401  -0.635  0.00  0.00    +0.008 C 
ATOM      2  C   UNL     1      -2.061   6.340  -0.807  0.00  0.00    -0.009 C 
ATOM      3  C   UNL     1      -2.356   5.148   0.109  0.00  0.00    +0.008 C 
ATOM      4  C   UNL     1      -1.421   3.987  -0.233  0.00  0.00    +0.037 C 
ATOM      5  C   UNL     1       0.019   4.492  -0.214  0.00  0.00    -0.025 A 
ATOM      6  C   UNL     1       0.288   5.811  -0.300  0.00  0.00    -0.004 A 
ATOM      7  S   UNL     1       2.055   5.929  -0.225  0.00  0.00    -0.073 S 
ATOM      8  C   UNL     1       2.433   4.201  -0.093  0.00  0.00    +0.114 A 
ATOM      9  C   UNL     1       1.164   3.587  -0.102  0.00  0.00    +0.051 A 
ATOM     10  C   UNL     1       1.171   2.169   0.003  0.00  0.00    +0.131 A 
ATOM     11  N   UNL     1       2.329   1.535   0.087  0.00  0.00    -0.219 NA
ATOM     12  C   UNL     1       3.484   2.176   0.084  0.00  0.00    +0.116 A 
ATOM     13  N   UNL     1       3.541   3.491  -0.005  0.00  0.00    -0.227 NA
ATOM     14  C   UNL     1      -0.699   6.932  -0.421  0.00  0.00    +0.046 C 
ENDROOT
BRANCH  10  15
ATOM     15  N   UNL     1      -0.018   1.461   0.010  0.00  0.00    -0.322 N 
ATOM     16  H   UNL     1      -0.858   1.921  -0.143  0.00  0.00    +0.148 HD
BRANCH  15  17
ATOM     17  C   UNL     1      -0.007   0.015   0.244  0.00  0.00    +0.099 C 
ATOM     18  C   UNL     1      -0.005  -0.259   1.749  0.00  0.00    +0.033 C 
BRANCH  17  19
ATOM     19  C   UNL     1      -1.234  -0.603  -0.377  0.00  0.00    -0.024 A 
ATOM     20  C   UNL     1      -2.453   0.043  -0.287  0.00  0.00    +0.009 A 
ATOM     21  C   UNL     1      -3.579  -0.518  -0.859  0.00  0.00    +0.050 A 
ATOM     22  C   UNL     1      -3.491  -1.735  -1.515  0.00  0.00    +0.166 A 
ATOM     23  C   UNL     1      -2.264  -2.388  -1.602  0.00  0.00    +0.167 A 
ATOM     24  C   UNL     1      -1.138  -1.818  -1.030  0.00  0.00    +0.055 A 
ATOM     25  O   UNL     1      -2.439  -3.555  -2.289  0.00  0.00    -0.453 OA
ATOM     26  C   UNL     1      -3.697  -3.413  -2.974  0.00  0.00    +0.466 C 
ATOM     27  O   UNL     1      -4.434  -2.492  -2.149  0.00  0.00    -0.453 OA
ENDBRANCH  17  19
ENDBRANCH  15  17
ENDBRANCH  10  15
BRANCH  12  28
ATOM     28  C   UNL     1       4.765   1.388   0.183  0.00  0.00    -0.001 C 
BRANCH  28  34
ATOM     29  C   UNL     1       4.301   0.101  -1.815  0.00  0.00    -0.050 C 
ATOM     30  C   UNL     1       4.790  -0.191  -3.236  0.00  0.00    +0.141 C 
ATOM     31  O   UNL     1       6.124  -0.704  -3.179  0.00  0.00    -0.383 OA
ATOM     32  C   UNL     1       7.055   0.182  -2.553  0.00  0.00    +0.141 C 
ATOM     33  C   UNL     1       6.589   0.478  -1.125  0.00  0.00    -0.050 C 
ATOM     34  N   UNL     1       5.230   1.059  -1.181  0.00  0.00    +0.387 N 
ATOM     35  H   UNL     1       5.258   1.919  -1.741  0.00  0.00    -0.081 HD
ENDBRANCH  28  34
ENDBRANCH  12  28
TORSDOF 5
