REMARK  Name = ZINC12497154
REMARK  8 active torsions:
REMARK  status: ('A' for Active; 'I' for Inactive)
REMARK    1  A    between atoms: C_1  and  C_2
REMARK    2  A    between atoms: C_7  and  C_8
REMARK    3  A    between atoms: N_16  and  C_19
REMARK    4  A    between atoms: C_25  and  C_26
REMARK    5  A    between atoms: C_25  and  C_28
REMARK    6  A    between atoms: C_26  and  O_27
REMARK    7  A    between atoms: C_28  and  O_30
REMARK    8  A    between atoms: O_30  and  C_31
REMARK                            x       y       z     vdW  Elec       q    Type
REMARK                         _______ _______ _______ _____ _____    ______ ____
ROOT
ATOM      1  C   UNL     1       0.022  -5.461   0.306  0.00  0.00    -0.026 C 
ATOM      2  C   UNL     1       0.559  -4.233  -0.431  0.00  0.00    +0.077 C 
ATOM      3  C   UNL     1       1.970  -4.166   0.277  0.00  0.00    +0.088 C 
ATOM      4  C   UNL     1       2.392  -2.824  -0.035  0.00  0.00    +0.229 C 
ATOM      5  O   UNL     1       3.518  -2.436  -0.262  0.00  0.00    -0.275 OA
ATOM      6  N   UNL     1       1.237  -2.082  -0.020  0.00  0.00    -0.210 N 
ATOM      7  C   UNL     1       0.112  -2.857  -0.008  0.00  0.00    +0.229 C 
ATOM      8  O   UNL     1      -1.013  -2.508   0.282  0.00  0.00    -0.275 OA
ATOM      9  C   UNL     1       2.421  -5.563   0.159  0.00  0.00    +0.067 C 
ATOM     10  N   UNL     1       1.209  -6.324   0.536  0.00  0.00    +0.397 N 
ATOM     11  H   UNL     1       1.138  -7.171  -0.040  0.00  0.00    -0.083 HD
ATOM     12  H   UNL     1       1.260  -6.587   1.527  0.00  0.00    -0.083 HD
ENDROOT
BRANCH   1  19
ATOM     13  C   UNL     1      -2.725  -4.569   0.402  0.00  0.00    +0.044 C 
ATOM     14  C   UNL     1      -1.907  -4.626   1.666  0.00  0.00    -0.049 A 
ATOM     15  C   UNL     1      -2.470  -4.251   2.872  0.00  0.00    +0.003 A 
ATOM     16  C   UNL     1      -1.720  -4.303   4.031  0.00  0.00    +0.000 A 
ATOM     17  C   UNL     1      -0.406  -4.729   3.985  0.00  0.00    +0.000 A 
ATOM     18  C   UNL     1       0.156  -5.109   2.781  0.00  0.00    +0.002 A 
ATOM     19  C   UNL     1      -0.593  -5.052   1.620  0.00  0.00    -0.058 A 
ENDBRANCH   1  19
BRANCH   6  20
ATOM     20  C   UNL     1       1.214  -0.680  -0.013  0.00  0.00    +0.044 A 
ATOM     21  C   UNL     1       0.002  -0.004   0.002  0.00  0.00    +0.024 A 
ATOM     22  C   UNL     1      -0.017   1.377   0.010  0.00  0.00    +0.002 A 
ATOM     23  C   UNL     1       1.171   2.086   0.002  0.00  0.00    +0.000 A 
ATOM     24  C   UNL     1       2.380   1.415  -0.013  0.00  0.00    +0.002 A 
ATOM     25  C   UNL     1       2.405   0.034  -0.021  0.00  0.00    +0.024 A 
ENDBRANCH   6  20
BRANCH   9  26
ATOM     26  C   UNL     1       2.806  -5.886  -1.262  0.00  0.00    +0.299 C 
ATOM     27  O   UNL     1       3.158  -5.003  -2.008  0.00  0.00    -0.252 OA
BRANCH  26  28
ATOM     28  O   UNL     1       2.759  -7.154  -1.698  0.00  0.00    -0.469 OA
ATOM     29  C   UNL     1       3.143  -7.391  -3.078  0.00  0.00    +0.280 C 
ENDBRANCH  26  28
ENDBRANCH   9  26
BRANCH   9  30
ATOM     30  C   UNL     1       3.582  -5.844   1.115  0.00  0.00    +0.155 C 
BRANCH  30  31
ATOM     31  O   UNL     1       3.994  -7.205   0.975  0.00  0.00    -0.396 OA
ATOM     32  H   UNL     1       4.729  -7.455   1.553  0.00  0.00    +0.209 HD
ENDBRANCH  30  31
ENDBRANCH   9  30
TORSDOF 6
