REMARK  Name = ZINC35379240
REMARK  7 active torsions:
REMARK  status: ('A' for Active; 'I' for Inactive)
REMARK    1  A    between atoms: C_1  and  C_2
REMARK    2  A    between atoms: C_2  and  C_3
REMARK    3  A    between atoms: C_10  and  C_35
REMARK    4  A    between atoms: C_11  and  S_15
REMARK    5  A    between atoms: S_15  and  N_18
REMARK    6  A    between atoms: C_22  and  C_25
REMARK    7  A    between atoms: C_32  and  C_34
REMARK                            x       y       z     vdW  Elec       q    Type
REMARK                         _______ _______ _______ _____ _____    ______ ____
ROOT
ATOM      1  S   UNL     1      -4.981  -0.480   4.101  0.00  0.00    +0.061 S 
ATOM      2  O   UNL     1      -5.518  -1.211   5.195  0.00  0.00    -0.153 OA
ATOM      3  O   UNL     1      -4.583   0.879   4.216  0.00  0.00    -0.153 OA
ENDROOT
BRANCH   1  11
ATOM      4  C   UNL     1      -0.423  -4.825   4.300  0.00  0.00    +0.259 C 
ATOM      5  C   UNL     1       0.225  -4.519   2.973  0.00  0.00    +0.258 C 
ATOM      6  O   UNL     1       1.134  -5.211   2.566  0.00  0.00    -0.271 OA
ATOM      7  N   UNL     1      -0.212  -3.474   2.240  0.00  0.00    -0.280 N 
ATOM      8  C   UNL     1      -1.344  -2.766   2.665  0.00  0.00    +0.076 A 
ATOM      9  C   UNL     1      -1.685  -1.560   2.072  0.00  0.00    +0.032 A 
ATOM     10  C   UNL     1      -2.798  -0.868   2.512  0.00  0.00    -0.022 A 
ATOM     11  C   UNL     1      -3.570  -1.373   3.542  0.00  0.00    +0.112 A 
ATOM     12  C   UNL     1      -3.238  -2.578   4.134  0.00  0.00    +0.076 A 
ATOM     13  C   UNL     1      -2.128  -3.281   3.695  0.00  0.00    +0.145 A 
ATOM     14  O   UNL     1      -1.810  -4.481   4.248  0.00  0.00    -0.478 OA
ATOM     15  C   UNL     1      -3.170   0.443   1.868  0.00  0.00    +0.046 C 
ATOM     16  H   UNL     1       0.252  -3.216   1.428  0.00  0.00    +0.155 HD
BRANCH   4  18
ATOM     17  C   UNL     1      -0.308  -4.413   6.762  0.00  0.00    +0.008 C 
ATOM     18  C   UNL     1       0.262  -4.012   5.400  0.00  0.00    +0.051 C 
ENDBRANCH   4  18
ENDBRANCH   1  11
BRANCH   1  19
ATOM     19  N   UNL     1      -6.111  -0.541   2.892  0.00  0.00    -0.176 NA
ATOM     20  C   UNL     1      -6.197   0.533   1.893  0.00  0.00    +0.109 C 
ATOM     21  C   UNL     1      -6.119  -0.087   0.494  0.00  0.00    +0.018 C 
ATOM     22  C   UNL     1      -7.200  -1.162   0.356  0.00  0.00    +0.015 C 
ATOM     23  C   UNL     1      -6.958  -2.266   1.388  0.00  0.00    +0.091 C 
ATOM     24  C   UNL     1      -7.042  -1.674   2.793  0.00  0.00    +0.122 C 
BRANCH  23  25
ATOM     25  C   UNL     1      -8.004  -3.340   1.229  0.00  0.00    +0.223 C 
ATOM     26  O   UNL     1      -8.744  -3.606   2.152  0.00  0.00    -0.275 OA
ATOM     27  N   UNL     1      -8.115  -4.004   0.062  0.00  0.00    -0.270 N 
ATOM     28  C   UNL     1      -8.999  -5.077  -0.048  0.00  0.00    +0.125 A 
ATOM     29  C   UNL     1      -9.033  -5.824  -1.219  0.00  0.00    +0.044 A 
ATOM     30  C   UNL     1      -9.915  -6.886  -1.315  0.00  0.00    +0.005 A 
ATOM     31  C   UNL     1     -10.736  -7.165  -0.231  0.00  0.00    +0.023 A 
ATOM     32  C   UNL     1     -10.649  -6.380   0.902  0.00  0.00    +0.040 A 
ATOM     33  N   UNL     1      -9.795  -5.377   0.967  0.00  0.00    -0.237 NA
ATOM     34  C   UNL     1     -11.538  -6.677   2.082  0.00  0.00    +0.065 C 
ATOM     35  H   UNL     1      -7.581  -3.736  -0.702  0.00  0.00    +0.156 HD
ENDBRANCH  23  25
ENDBRANCH   1  19
TORSDOF 4
