REMARK  Name = ZINC53761695
REMARK  7 active torsions:
REMARK  status: ('A' for Active; 'I' for Inactive)
REMARK    1  A    between atoms: C_1  and  C_2
REMARK    2  A    between atoms: C_2  and  C_3
REMARK    3  A    between atoms: C_3  and  C_24
REMARK    4  A    between atoms: N_6  and  N_10
REMARK    5  A    between atoms: C_11  and  C_13
REMARK    6  A    between atoms: C_14  and  C_23
REMARK    7  A    between atoms: C_19  and  C_22
REMARK                            x       y       z     vdW  Elec       q    Type
REMARK                         _______ _______ _______ _____ _____    ______ ____
ROOT
ATOM      1  C   UNL     1       0.718  -0.497  -1.257  0.00  0.00    +0.139 C 
ATOM      2  C   UNL     1       0.081   0.093  -2.499  0.00  0.00    +0.268 C 
ATOM      3  O   UNL     1      -1.061  -0.057  -2.878  0.00  0.00    -0.271 OA
ATOM      4  N   UNL     1       1.047   0.819  -3.095  0.00  0.00    -0.137 N 
ATOM      5  C   UNL     1       2.195   0.770  -2.408  0.00  0.00    +0.327 C 
ATOM      6  O   UNL     1       3.210   1.345  -2.748  0.00  0.00    -0.251 OA
ATOM      7  N   UNL     1       2.099   0.013  -1.301  0.00  0.00    -0.280 N 
ATOM      8  H   UNL     1       2.803  -0.163  -0.657  0.00  0.00    +0.152 HD
ENDROOT
BRANCH   1   9
ATOM      9  C   UNL     1       0.707  -2.003  -1.315  0.00  0.00    -0.015 A 
ATOM     10  C   UNL     1      -0.340  -2.709  -0.752  0.00  0.00    +0.006 A 
ATOM     11  C   UNL     1      -0.350  -4.090  -0.806  0.00  0.00    +0.000 A 
ATOM     12  C   UNL     1       0.686  -4.766  -1.424  0.00  0.00    +0.000 A 
ATOM     13  C   UNL     1       1.732  -4.060  -1.988  0.00  0.00    +0.000 A 
ATOM     14  C   UNL     1       1.740  -2.679  -1.938  0.00  0.00    +0.006 A 
ENDBRANCH   1   9
BRANCH   4  15
ATOM     15  N   UNL     1       0.872   1.536  -4.285  0.00  0.00    -0.217 N 
ATOM     16  C   UNL     1       0.759   2.878  -4.253  0.00  0.00    +0.296 C 
ATOM     17  O   UNL     1       0.810   3.468  -3.190  0.00  0.00    -0.265 OA
ATOM     18  H   UNL     1       0.832   1.066  -5.133  0.00  0.00    +0.174 HD
BRANCH  16  19
ATOM     19  C   UNL     1       0.576   3.631  -5.503  0.00  0.00    +0.195 A 
ATOM     20  C   UNL     1       0.457   4.980  -5.592  0.00  0.00    +0.008 A 
ATOM     21  C   UNL     1       0.293   5.279  -7.014  0.00  0.00    +0.024 A 
ATOM     22  C   UNL     1       0.125   6.456  -7.749  0.00  0.00    +0.012 A 
ATOM     23  C   UNL     1      -0.003   6.393  -9.108  0.00  0.00    +0.001 A 
ATOM     24  C   UNL     1       0.034   5.169  -9.762  0.00  0.00    +0.007 A 
ATOM     25  C   UNL     1       0.199   3.997  -9.056  0.00  0.00    -0.008 A 
ATOM     26  C   UNL     1       0.331   4.036  -7.672  0.00  0.00    +0.139 A 
ATOM     27  O   UNL     1       0.506   3.084  -6.735  0.00  0.00    -0.450 OA
ATOM     28  C   UNL     1       0.235   2.677  -9.781  0.00  0.00    +0.047 C 
ATOM     29  C   UNL     1       0.486   5.970  -4.456  0.00  0.00    +0.048 C 
ENDBRANCH  16  19
ENDBRANCH   4  15
BRANCH   1  31
ATOM     30  C   UNL     1      -0.019   1.526   0.010  0.00  0.00    +0.007 C 
ATOM     31  C   UNL     1       0.002  -0.004   0.002  0.00  0.00    +0.037 C 
ENDBRANCH   1  31
TORSDOF 4
