REMARK  Name = ZINC35200978
REMARK  11 active torsions:
REMARK  status: ('A' for Active; 'I' for Inactive)
REMARK    1  A    between atoms: C_1  and  C_2
REMARK    2  A    between atoms: C_6  and  C_37
REMARK    3  A    between atoms: C_7  and  N_8
REMARK    4  A    between atoms: N_11  and  C_12
REMARK    5  A    between atoms: C_12  and  C_14
REMARK    6  A    between atoms: C_12  and  C_15
REMARK    7  A    between atoms: C_18  and  S_29
REMARK    8  A    between atoms: N_19  and  C_20
REMARK    9  A    between atoms: C_23  and  N_26
REMARK   10  A    between atoms: S_29  and  C_30
REMARK   11  A    between atoms: C_30  and  C_31
REMARK                            x       y       z     vdW  Elec       q    Type
REMARK                         _______ _______ _______ _____ _____    ______ ____
ROOT
ATOM      1  C   UNL     1      -0.760  -0.493   7.164  0.00  0.00    +0.159 A 
ATOM      2  N   UNL     1      -0.330   0.682   7.529  0.00  0.00    -0.131 NA
ATOM      3  N   UNL     1      -1.026   1.120   8.517  0.00  0.00    -0.122 NA
ATOM      4  C   UNL     1      -1.947   0.242   8.839  0.00  0.00    +0.196 A 
ATOM      5  N   UNL     1      -1.811  -0.815   7.981  0.00  0.00    -0.273 N 
ENDROOT
BRANCH   5   6
ATOM      6  C   UNL     1      -2.583  -1.985   7.948  0.00  0.00    +0.050 A 
ATOM      7  C   UNL     1      -3.373  -2.266   6.842  0.00  0.00    +0.028 A 
ATOM      8  C   UNL     1      -4.133  -3.419   6.812  0.00  0.00    +0.035 A 
ATOM      9  C   UNL     1      -4.107  -4.293   7.883  0.00  0.00    +0.126 A 
ATOM     10  C   UNL     1      -3.321  -4.016   8.986  0.00  0.00    +0.035 A 
ATOM     11  C   UNL     1      -2.554  -2.868   9.019  0.00  0.00    +0.028 A 
BRANCH   9  12
ATOM     12  N   UNL     1      -4.922  -5.528   7.848  0.00  0.00    +0.056 N 
ATOM     13  O   UNL     1      -5.610  -5.771   6.884  0.00  0.00    -0.126 OA
ATOM     14  O   UNL     1      -4.901  -6.293   8.784  0.00  0.00    -0.126 OA
ENDBRANCH   9  12
ENDBRANCH   5   6
BRANCH   1  15
ATOM     15  C   UNL     1      -0.207  -1.338   6.045  0.00  0.00    +0.140 C 
ATOM     16  C   UNL     1       1.115  -1.968   6.487  0.00  0.00    +0.036 C 
BRANCH  15  20
ATOM     17  N   UNL     1       0.231  -0.278   2.552  0.00  0.00    -0.269 N 
ATOM     18  C   UNL     1       0.021  -1.050   3.636  0.00  0.00    +0.304 C 
ATOM     19  O   UNL     1      -0.169  -2.244   3.505  0.00  0.00    -0.252 OA
ATOM     20  N   UNL     1       0.021  -0.499   4.866  0.00  0.00    -0.290 N 
ATOM     21  H   UNL     1       0.456   0.659   2.660  0.00  0.00    +0.156 HD
ATOM     22  H   UNL     1       0.173   0.454   4.971  0.00  0.00    +0.151 HD
BRANCH  17  29
ATOM     23  C   UNL     1       2.628  -0.827   1.121  0.00  0.00    +0.045 C 
ATOM     24  C   UNL     1       1.269  -1.112   0.536  0.00  0.00    -0.029 A 
ATOM     25  C   UNL     1       1.160  -1.660  -0.727  0.00  0.00    +0.005 A 
ATOM     26  C   UNL     1      -0.087  -1.922  -1.263  0.00  0.00    +0.001 A 
ATOM     27  C   UNL     1      -1.229  -1.635  -0.538  0.00  0.00    +0.005 A 
ATOM     28  C   UNL     1      -1.127  -1.086   0.725  0.00  0.00    -0.029 A 
ATOM     29  C   UNL     1       0.124  -0.828   1.270  0.00  0.00    +0.041 A 
ATOM     30  C   UNL     1      -2.372  -0.772   1.514  0.00  0.00    +0.045 C 
ENDBRANCH  17  29
ENDBRANCH  15  20
ENDBRANCH   1  15
BRANCH   4  31
ATOM     31  S   UNL     1      -3.139   0.398  10.128  0.00  0.00    -0.081 S 
BRANCH  31  32
ATOM     32  C   UNL     1      -2.780   2.018  10.863  0.00  0.00    +0.112 C 
BRANCH  32  33
ATOM     33  C   UNL     1      -3.741   2.280  11.994  0.00  0.00    -0.037 A 
ATOM     34  C   UNL     1      -4.945   2.911  11.746  0.00  0.00    +0.004 A 
ATOM     35  C   UNL     1      -5.827   3.151  12.783  0.00  0.00    +0.000 A 
ATOM     36  C   UNL     1      -5.504   2.760  14.069  0.00  0.00    +0.000 A 
ATOM     37  C   UNL     1      -4.300   2.128  14.317  0.00  0.00    +0.000 A 
ATOM     38  C   UNL     1      -3.420   1.884  13.279  0.00  0.00    +0.004 A 
ENDBRANCH  32  33
ENDBRANCH  31  32
ENDBRANCH   4  31
TORSDOF 8
