REMARK  Name = ZINC39664842
REMARK  10 active torsions:
REMARK  status: ('A' for Active; 'I' for Inactive)
REMARK    1  A    between atoms: C_1  and  C_2
REMARK    2  A    between atoms: C_4  and  C_11
REMARK    3  A    between atoms: C_5  and  C_7
REMARK    4  A    between atoms: C_15  and  C_24
REMARK    5  A    between atoms: N_26  and  C_27
REMARK    6  A    between atoms: C_27  and  C_29
REMARK    7  A    between atoms: C_27  and  C_33
REMARK    8  A    between atoms: C_29  and  N_30
REMARK    9  A    between atoms: N_30  and  C_31
REMARK   10  A    between atoms: N_30  and  C_32
REMARK                            x       y       z     vdW  Elec       q    Type
REMARK                         _______ _______ _______ _____ _____    ______ ____
ROOT
ATOM      1  C   UNL     1      -1.505  -4.754  -0.859  0.00  0.00    +0.250 C 
ATOM      2  O   UNL     1      -1.291  -5.929  -1.088  0.00  0.00    -0.270 OA
ATOM      3  N   UNL     1      -2.744  -4.349  -0.517  0.00  0.00    -0.296 N 
ATOM      4  C   UNL     1      -3.221  -2.962  -0.304  0.00  0.00    +0.121 C 
ATOM      5  C   UNL     1      -4.637  -2.937  -0.921  0.00  0.00    +0.100 C 
ATOM      6  C   UNL     1      -5.104  -4.402  -0.892  0.00  0.00    -0.004 C 
ATOM      7  C   UNL     1      -3.941  -5.191  -0.274  0.00  0.00    +0.115 C 
ATOM      8  C   UNL     1      -5.375  -4.898  -2.309  0.00  0.00    -0.010 C 
ATOM      9  C   UNL     1      -5.892  -6.338  -2.251  0.00  0.00    -0.082 C 
ATOM     10  N   UNL     1      -7.121  -6.387  -1.450  0.00  0.00    +0.379 N 
ATOM     11  C   UNL     1      -6.832  -5.997  -0.065  0.00  0.00    -0.082 C 
ATOM     12  C   UNL     1      -6.355  -4.542  -0.031  0.00  0.00    -0.010 C 
ATOM     13  H   UNL     1      -7.801  -5.753  -1.842  0.00  0.00    -0.086 HD
ATOM     14  H   UNL     1      -7.493  -7.325  -1.463  0.00  0.00    -0.086 HD
ENDROOT
BRANCH   1  18
ATOM     15  C   UNL     1       1.458  -0.669  -0.108  0.00  0.00    +0.086 C 
ATOM     16  C   UNL     1       0.882  -1.967  -0.612  0.00  0.00    +0.103 A 
ATOM     17  C   UNL     1      -0.258  -2.531  -0.184  0.00  0.00    +0.058 A 
ATOM     18  C   UNL     1      -0.410  -3.772  -0.957  0.00  0.00    +0.087 A 
ATOM     19  C   UNL     1       0.674  -3.826  -1.783  0.00  0.00    +0.220 A 
ATOM     20  O   UNL     1       1.425  -2.742  -1.565  0.00  0.00    -0.455 OA
BRANCH  19  21
ATOM     21  C   UNL     1       0.972  -4.918  -2.777  0.00  0.00    +0.451 C 
ATOM     22  F   UNL     1       0.392  -4.598  -4.010  0.00  0.00    -0.163 F 
ATOM     23  F   UNL     1       2.356  -5.043  -2.932  0.00  0.00    -0.163 F 
ATOM     24  F   UNL     1       0.443  -6.128  -2.313  0.00  0.00    -0.163 F 
ENDBRANCH  19  21
ENDBRANCH   1  18
BRANCH   5  25
ATOM     25  C   UNL     1      -4.584  -2.429  -2.338  0.00  0.00    +0.219 C 
ATOM     26  O   UNL     1      -3.614  -2.659  -3.029  0.00  0.00    -0.275 OA
ATOM     27  N   UNL     1      -5.614  -1.718  -2.839  0.00  0.00    -0.310 N 
ATOM     28  H   UNL     1      -6.416  -1.587  -2.309  0.00  0.00    +0.149 HD
BRANCH  27  29
ATOM     29  C   UNL     1      -5.524  -1.145  -4.184  0.00  0.00    +0.087 C 
BRANCH  29  30
ATOM     30  C   UNL     1      -6.872  -1.218  -4.853  0.00  0.00    -0.029 A 
ATOM     31  C   UNL     1      -8.018  -0.949  -4.129  0.00  0.00    +0.005 A 
ATOM     32  C   UNL     1      -9.255  -1.016  -4.742  0.00  0.00    +0.000 A 
ATOM     33  C   UNL     1      -9.346  -1.351  -6.081  0.00  0.00    +0.000 A 
ATOM     34  C   UNL     1      -8.199  -1.619  -6.805  0.00  0.00    +0.000 A 
ATOM     35  C   UNL     1      -6.962  -1.548  -6.192  0.00  0.00    +0.005 A 
ENDBRANCH  29  30
BRANCH  29  36
ATOM     36  C   UNL     1      -5.081   0.316  -4.087  0.00  0.00    -0.052 C 
BRANCH  36  37
ATOM     37  N   UNL     1      -3.798   0.393  -3.376  0.00  0.00    +0.377 N 
ATOM     38  C   UNL     1      -2.740  -0.191  -4.211  0.00  0.00    -0.097 C 
ATOM     39  C   UNL     1      -3.478   1.799  -3.093  0.00  0.00    -0.097 C 
ATOM     40  H   UNL     1      -3.863  -0.118  -2.508  0.00  0.00    -0.083 HD
ENDBRANCH  36  37
ENDBRANCH  29  36
ENDBRANCH  27  29
ENDBRANCH   5  25
TORSDOF 7
