REMARK  Name = ZINC66925086
REMARK  10 active torsions:
REMARK  status: ('A' for Active; 'I' for Inactive)
REMARK    1  A    between atoms: C_1  and  N_2
REMARK    2  A    between atoms: N_2  and  C_3
REMARK    3  A    between atoms: N_2  and  C_21
REMARK    4  A    between atoms: C_3  and  C_4
REMARK    5  A    between atoms: C_4  and  C_5
REMARK    6  A    between atoms: C_5  and  N_6
REMARK    7  A    between atoms: N_9  and  N_10
REMARK    8  A    between atoms: C_11  and  C_13
REMARK    9  A    between atoms: C_13  and  C_14
REMARK   10  A    between atoms: C_21  and  C_22
REMARK                            x       y       z     vdW  Elec       q    Type
REMARK                         _______ _______ _______ _____ _____    ______ ____
ROOT
ATOM      1  N   UNL     1       4.539  -0.746   1.821  0.00  0.00    -0.298 N 
ATOM      2  C   UNL     1       5.433  -1.036   2.787  0.00  0.00    +0.316 C 
ATOM      3  O   UNL     1       5.049  -1.409   3.878  0.00  0.00    -0.251 OA
ATOM      4  N   UNL     1       6.753  -0.910   2.543  0.00  0.00    -0.218 N 
ATOM      5  H   UNL     1       4.845  -0.448   0.950  0.00  0.00    +0.150 HD
ATOM      6  H   UNL     1       7.396  -1.119   3.239  0.00  0.00    +0.174 HD
ENDROOT
BRANCH   4   7
ATOM      7  N   UNL     1       7.195  -0.480   1.286  0.00  0.00    -0.233 N 
ATOM      8  C   UNL     1       8.515  -0.355   1.042  0.00  0.00    +0.234 C 
ATOM      9  O   UNL     1       9.319  -0.615   1.912  0.00  0.00    -0.274 OA
ATOM     10  H   UNL     1       6.552  -0.271   0.591  0.00  0.00    +0.173 HD
BRANCH   8  11
ATOM     11  C   UNL     1       8.991   0.109  -0.310  0.00  0.00    +0.135 C 
BRANCH  11  12
ATOM     12  C   UNL     1      10.497   0.163  -0.322  0.00  0.00    -0.003 A 
ATOM     13  C   UNL     1      11.148   1.351  -0.046  0.00  0.00    +0.007 A 
ATOM     14  C   UNL     1      12.529   1.401  -0.056  0.00  0.00    +0.000 A 
ATOM     15  C   UNL     1      13.261   0.263  -0.342  0.00  0.00    +0.003 A 
ATOM     16  C   UNL     1      12.612  -0.925  -0.618  0.00  0.00    +0.038 A 
ATOM     17  C   UNL     1      11.229  -0.978  -0.603  0.00  0.00    +0.127 A 
ATOM     18  F   UNL     1      10.594  -2.140  -0.867  0.00  0.00    -0.205 F 
ENDBRANCH  11  12
ENDBRANCH   8  11
ENDBRANCH   4   7
BRANCH   1  19
ATOM     19  C   UNL     1       3.105  -0.882   2.086  0.00  0.00    +0.104 C 
BRANCH  19  20
ATOM     20  C   UNL     1       2.316  -0.494   0.834  0.00  0.00    +0.000 C 
BRANCH  20  21
ATOM     21  C   UNL     1       0.818  -0.636   1.110  0.00  0.00    -0.077 C 
BRANCH  21  23
ATOM     22  C   UNL     1       0.269   1.162  -0.380  0.00  0.00    -0.096 C 
ATOM     23  N   UNL     1       0.060  -0.263  -0.092  0.00  0.00    +0.384 N 
ATOM     24  H   UNL     1       0.379  -0.815  -0.875  0.00  0.00    -0.082 HD
BRANCH  23  25
ATOM     25  C   UNL     1      -1.370  -0.513   0.133  0.00  0.00    +0.036 C 
BRANCH  25  26
ATOM     26  C   UNL     1      -2.147  -0.221  -1.152  0.00  0.00    +0.376 C 
ATOM     27  F   UNL     1      -1.584  -0.942  -2.211  0.00  0.00    -0.173 F 
ATOM     28  F   UNL     1      -3.483  -0.603  -0.986  0.00  0.00    -0.173 F 
ATOM     29  F   UNL     1      -2.084   1.147  -1.434  0.00  0.00    -0.173 F 
ENDBRANCH  25  26
ENDBRANCH  23  25
ENDBRANCH  21  23
ENDBRANCH  20  21
ENDBRANCH  19  20
ENDBRANCH   1  19
TORSDOF 9
