REMARK  Name = ZINC63020804
REMARK  11 active torsions:
REMARK  status: ('A' for Active; 'I' for Inactive)
REMARK    1  A    between atoms: C_1  and  C_2
REMARK    2  A    between atoms: C_2  and  C_3
REMARK    3  A    between atoms: C_2  and  C_4
REMARK    4  A    between atoms: C_2  and  N_6
REMARK    5  A    between atoms: C_4  and  N_5
REMARK    6  A    between atoms: N_6  and  C_7
REMARK    7  A    between atoms: C_10  and  S_16
REMARK    8  A    between atoms: C_12  and  N_13
REMARK    9  A    between atoms: S_16  and  N_19
REMARK   10  A    between atoms: N_19  and  C_20
REMARK   11  A    between atoms: N_19  and  C_21
REMARK                            x       y       z     vdW  Elec       q    Type
REMARK                         _______ _______ _______ _____ _____    ______ ____
ROOT
ATOM      1  C   UNL     1       1.926  -0.216  -1.536  0.00  0.00    +0.058 A 
ATOM      2  C   UNL     1       2.677   0.583  -0.682  0.00  0.00    +0.027 A 
ATOM      3  C   UNL     1       4.001   0.844  -0.971  0.00  0.00    +0.030 A 
ATOM      4  C   UNL     1       4.581   0.312  -2.108  0.00  0.00    +0.108 A 
ATOM      5  C   UNL     1       3.837  -0.483  -2.960  0.00  0.00    +0.063 A 
ATOM      6  C   UNL     1       2.513  -0.753  -2.674  0.00  0.00    +0.149 A 
ENDROOT
BRANCH   6   7
ATOM      7  N   UNL     1       1.718  -1.610  -3.583  0.00  0.00    +0.058 N 
ATOM      8  O   UNL     1       2.252  -2.152  -4.523  0.00  0.00    -0.126 OA
ATOM      9  O   UNL     1       0.536  -1.767  -3.386  0.00  0.00    -0.126 OA
ENDBRANCH   6   7
BRANCH   4  10
ATOM     10  S   UNL     1       6.272   0.648  -2.472  0.00  0.00    +0.060 S 
ATOM     11  O   UNL     1       6.426   0.481  -3.875  0.00  0.00    -0.153 OA
ATOM     12  O   UNL     1       6.597   1.861  -1.809  0.00  0.00    -0.153 OA
BRANCH  10  13
ATOM     13  N   UNL     1       7.173  -0.541  -1.753  0.00  0.00    -0.183 NA
ATOM     14  C   UNL     1       7.485  -1.770  -2.487  0.00  0.00    +0.131 C 
ATOM     15  C   UNL     1       7.659  -0.364  -0.382  0.00  0.00    +0.131 C 
ENDBRANCH  10  13
ENDBRANCH   4  10
BRANCH   1  16
ATOM     16  N   UNL     1       0.586  -0.482  -1.246  0.00  0.00    -0.339 N 
ATOM     17  H   UNL     1       0.041  -0.973  -1.882  0.00  0.00    +0.147 HD
BRANCH  16  19
ATOM     18  C   UNL     1      -0.001   1.508   0.048  0.00  0.00    +0.029 C 
ATOM     19  C   UNL     1       0.003  -0.022   0.016  0.00  0.00    +0.011 C 
ATOM     20  C   UNL     1       0.834  -0.554   1.185  0.00  0.00    +0.029 C 
BRANCH  19  21
ATOM     21  C   UNL     1      -1.432  -0.538   0.134  0.00  0.00    -0.061 C 
BRANCH  21  22
ATOM     22  N   UNL     1      -1.429  -2.007   0.103  0.00  0.00    +0.379 N 
ATOM     23  H   UNL     1      -1.027  -2.324  -0.766  0.00  0.00    -0.090 HD
ATOM     24  H   UNL     1      -0.881  -2.358   0.874  0.00  0.00    -0.090 HD
ATOM     25  H   UNL     1      -2.375  -2.347   0.181  0.00  0.00    -0.090 HD
ENDBRANCH  21  22
ENDBRANCH  19  21
ENDBRANCH  16  19
ENDBRANCH   1  16
TORSDOF 7
