REMARK  Name = ZINC39696244
REMARK  10 active torsions:
REMARK  status: ('A' for Active; 'I' for Inactive)
REMARK    1  A    between atoms: C_1  and  C_2
REMARK    2  A    between atoms: C_2  and  C_3
REMARK    3  A    between atoms: C_6  and  C_9
REMARK    4  A    between atoms: C_9  and  C_11
REMARK    5  A    between atoms: C_9  and  N_12
REMARK    6  A    between atoms: C_13  and  C_15
REMARK    7  A    between atoms: C_26  and  C_28
REMARK    8  A    between atoms: C_28  and  O_29
REMARK    9  A    between atoms: O_29  and  C_30
REMARK   10  A    between atoms: C_40  and  C_41
REMARK                            x       y       z     vdW  Elec       q    Type
REMARK                         _______ _______ _______ _____ _____    ______ ____
ROOT
ATOM      1  C   UNL     1      -6.692  -4.983  -1.997  0.00  0.00    +0.100 C 
ATOM      2  C   UNL     1      -5.375  -5.764  -2.202  0.00  0.00    +0.121 C 
ATOM      3  N   UNL     1      -5.529  -6.981  -1.371  0.00  0.00    -0.297 N 
ATOM      4  C   UNL     1      -6.945  -7.378  -1.558  0.00  0.00    +0.115 C 
ATOM      5  C   UNL     1      -7.721  -6.047  -1.579  0.00  0.00    -0.004 C 
ATOM      6  C   UNL     1      -8.857  -6.113  -2.595  0.00  0.00    -0.010 C 
ATOM      7  C   UNL     1      -9.896  -7.136  -2.128  0.00  0.00    -0.082 C 
ATOM      8  N   UNL     1     -10.413  -6.743  -0.811  0.00  0.00    +0.379 N 
ATOM      9  C   UNL     1      -9.332  -6.772   0.181  0.00  0.00    -0.082 C 
ATOM     10  C   UNL     1      -8.269  -5.734  -0.189  0.00  0.00    -0.010 C 
ATOM     11  C   UNL     1      -4.593  -7.591  -0.617  0.00  0.00    +0.253 C 
ATOM     12  O   UNL     1      -4.875  -8.589   0.011  0.00  0.00    -0.272 OA
ATOM     13  H   UNL     1     -10.793  -5.810  -0.865  0.00  0.00    -0.086 HD
ATOM     14  H   UNL     1     -11.141  -7.384  -0.532  0.00  0.00    -0.086 HD
ENDROOT
BRANCH   1  16
ATOM     15  N   UNL     1      -7.268  -2.827  -0.930  0.00  0.00    -0.308 N 
ATOM     16  C   UNL     1      -6.529  -3.954  -0.909  0.00  0.00    +0.219 C 
ATOM     17  O   UNL     1      -5.733  -4.140  -0.013  0.00  0.00    -0.275 OA
ATOM     18  H   UNL     1      -7.905  -2.678  -1.647  0.00  0.00    +0.149 HD
BRANCH  15  19
ATOM     19  C   UNL     1      -7.109  -1.826   0.128  0.00  0.00    +0.100 C 
ATOM     20  C   UNL     1      -7.987  -2.204   1.323  0.00  0.00    +0.033 C 
BRANCH  19  24
ATOM     21  C   UNL     1      -8.283   2.006  -1.349  0.00  0.00    -0.048 A 
ATOM     22  C   UNL     1      -7.177   1.891  -0.527  0.00  0.00    +0.004 A 
ATOM     23  C   UNL     1      -6.797   0.651  -0.049  0.00  0.00    +0.006 A 
ATOM     24  C   UNL     1      -7.524  -0.474  -0.392  0.00  0.00    -0.027 A 
ATOM     25  C   UNL     1      -8.630  -0.359  -1.214  0.00  0.00    +0.006 A 
ATOM     26  C   UNL     1      -9.012   0.882  -1.688  0.00  0.00    +0.004 A 
BRANCH  21  28
ATOM     27  C   UNL     1      -9.672   4.007  -0.886  0.00  0.00    +0.009 C 
ATOM     28  C   UNL     1      -8.697   3.358  -1.870  0.00  0.00    +0.032 C 
ENDBRANCH  21  28
ENDBRANCH  19  24
ENDBRANCH  15  19
ENDBRANCH   1  16
BRANCH  11  29
ATOM     29  C   UNL     1      -3.195  -7.031  -0.554  0.00  0.00    +0.324 C 
BRANCH  29  30
ATOM     30  O   UNL     1      -2.394  -7.847   0.304  0.00  0.00    -0.479 OA
BRANCH  30  31
ATOM     31  C   UNL     1      -1.096  -7.478   0.471  0.00  0.00    +0.164 A 
ATOM     32  C   UNL     1      -0.607  -6.354  -0.171  0.00  0.00    +0.049 A 
ATOM     33  C   UNL     1       0.715  -5.967  -0.008  0.00  0.00    +0.004 A 
ATOM     34  C   UNL     1       1.561  -6.697   0.796  0.00  0.00    +0.012 A 
ATOM     35  C   UNL     1       1.083  -7.836   1.453  0.00  0.00    +0.024 A 
ATOM     36  C   UNL     1      -0.257  -8.227   1.294  0.00  0.00    +0.181 A 
ATOM     37  O   UNL     1      -0.718  -9.324   1.933  0.00  0.00    -0.418 OA
ATOM     38  C   UNL     1       0.075 -10.057   2.729  0.00  0.00    +0.338 A 
ATOM     39  O   UNL     1      -0.384 -11.038   3.284  0.00  0.00    -0.245 OA
ATOM     40  C   UNL     1       1.430  -9.719   2.938  0.00  0.00    +0.096 A 
ATOM     41  C   UNL     1       1.959  -8.634   2.316  0.00  0.00    -0.033 A 
ATOM     42  C   UNL     1       3.401  -8.251   2.521  0.00  0.00    +0.045 C 
ENDBRANCH  30  31
ENDBRANCH  29  30
ENDBRANCH  11  29
TORSDOF 7
