REMARK  Name = ZINC32913758
REMARK  11 active torsions:
REMARK  status: ('A' for Active; 'I' for Inactive)
REMARK    1  A    between atoms: C_1  and  C_2
REMARK    2  A    between atoms: C_2  and  C_3
REMARK    3  A    between atoms: C_4  and  C_33
REMARK    4  A    between atoms: C_6  and  C_8
REMARK    5  A    between atoms: N_10  and  N_11
REMARK    6  A    between atoms: C_12  and  C_14
REMARK    7  A    between atoms: C_14  and  S_15
REMARK    8  A    between atoms: S_15  and  C_16
REMARK    9  A    between atoms: C_19  and  C_27
REMARK   10  A    between atoms: N_20  and  C_21
REMARK   11  A    between atoms: C_27  and  C_28
REMARK                            x       y       z     vdW  Elec       q    Type
REMARK                         _______ _______ _______ _____ _____    ______ ____
ROOT
ATOM      1  S   UNL     1      -2.802   1.692   0.022  0.00  0.00    -0.076 S 
ENDROOT
BRANCH   1   2
ATOM      2  C   UNL     1      -1.118   2.210   0.019  0.00  0.00    +0.197 A 
ATOM      3  N   UNL     1      -0.682   3.448   0.027  0.00  0.00    -0.122 NA
ATOM      4  N   UNL     1       0.603   3.460   0.015  0.00  0.00    -0.133 NA
ATOM      5  C   UNL     1       1.063   2.241   0.004  0.00  0.00    +0.143 A 
ATOM      6  N   UNL     1      -0.017   1.398   0.010  0.00  0.00    -0.274 N 
BRANCH   6   7
ATOM      7  C   UNL     1       0.002  -0.004   0.002  0.00  0.00    +0.050 A 
ATOM      8  C   UNL     1       0.503  -0.687  -1.098  0.00  0.00    +0.026 A 
ATOM      9  C   UNL     1       0.525  -2.068  -1.101  0.00  0.00    +0.002 A 
ATOM     10  C   UNL     1       0.039  -2.771  -0.014  0.00  0.00    +0.000 A 
ATOM     11  C   UNL     1      -0.466  -2.093   1.081  0.00  0.00    +0.002 A 
ATOM     12  C   UNL     1      -0.486  -0.712   1.092  0.00  0.00    +0.026 A 
ENDBRANCH   6   7
BRANCH   5  13
ATOM     13  C   UNL     1       2.514   1.833  -0.013  0.00  0.00    +0.119 C 
BRANCH  13  14
ATOM     14  C   UNL     1       2.983   1.706  -1.439  0.00  0.00    -0.003 A 
ATOM     15  C   UNL     1       3.534   2.647  -2.244  0.00  0.00    +0.011 A 
ATOM     16  C   UNL     1       3.894   2.300  -3.532  0.00  0.00    +0.008 A 
ATOM     17  C   UNL     1       3.686   1.028  -3.953  0.00  0.00    +0.045 A 
ATOM     18  S   UNL     1       2.966   0.273  -2.504  0.00  0.00    -0.101 S 
ENDBRANCH  13  14
ENDBRANCH   5  13
ENDBRANCH   1   2
BRANCH   1  19
ATOM     19  C   UNL     1      -3.627   3.303   0.034  0.00  0.00    +0.174 C 
BRANCH  19  21
ATOM     20  N   UNL     1      -5.943   4.171   0.048  0.00  0.00    -0.233 N 
ATOM     21  C   UNL     1      -5.120   3.103   0.039  0.00  0.00    +0.239 C 
ATOM     22  O   UNL     1      -5.582   1.982   0.034  0.00  0.00    -0.273 OA
ATOM     23  H   UNL     1      -5.524   5.188   0.052  0.00  0.00    +0.173 HD
BRANCH  20  26
ATOM     24  C   UNL     1      -8.154   5.052   0.061  0.00  0.00    +0.267 C 
ATOM     25  O   UNL     1      -7.691   6.178   0.066  0.00  0.00    -0.268 OA
ATOM     26  N   UNL     1      -7.332   3.985   0.052  0.00  0.00    -0.230 N 
ATOM     27  H   UNL     1      -7.750   2.967   0.048  0.00  0.00    +0.173 HD
BRANCH  24  31
ATOM     28  C   UNL     1     -12.136   4.008   0.068  0.00  0.00    -0.007 A 
ATOM     29  C   UNL     1     -11.909   5.348   0.076  0.00  0.00    -0.040 A 
ATOM     30  C   UNL     1     -10.616   5.808   0.075  0.00  0.00    +0.024 A 
ATOM     31  C   UNL     1      -9.607   4.858   0.066  0.00  0.00    +0.076 A 
ATOM     32  S   UNL     1     -10.538   3.336   0.052  0.00  0.00    -0.088 S 
ATOM     33  C   UNL     1     -13.063   6.316   0.087  0.00  0.00    +0.044 C 
BRANCH  28  35
ATOM     34  C   UNL     1     -13.908   3.046  -1.375  0.00  0.00    +0.009 C 
ATOM     35  C   UNL     1     -13.457   3.282   0.067  0.00  0.00    +0.039 C 
ENDBRANCH  28  35
ENDBRANCH  24  31
ENDBRANCH  20  26
ENDBRANCH  19  21
ENDBRANCH   1  19
TORSDOF 9
