REMARK  Name = ZINC40010353
REMARK  8 active torsions:
REMARK  status: ('A' for Active; 'I' for Inactive)
REMARK    1  A    between atoms: C_1  and  C_2
REMARK    2  A    between atoms: C_2  and  C_3
REMARK    3  A    between atoms: C_10  and  O_31
REMARK    4  A    between atoms: C_11  and  O_29
REMARK    5  A    between atoms: C_14  and  C_16
REMARK    6  A    between atoms: C_22  and  C_28
REMARK    7  A    between atoms: O_29  and  C_30
REMARK    8  A    between atoms: O_31  and  C_32
REMARK                            x       y       z     vdW  Elec       q    Type
REMARK                         _______ _______ _______ _____ _____    ______ ____
ROOT
ATOM      1  C   UNL     1      -1.412  -0.526   0.013  0.00  0.00    +0.216 C 
ATOM      2  O   UNL     1      -2.344   0.250   0.026  0.00  0.00    -0.276 OA
ATOM      3  N   UNL     1      -1.640  -1.854   0.008  0.00  0.00    -0.293 N 
ATOM      4  C   UNL     1      -0.530  -2.822  -0.002  0.00  0.00    +0.113 C 
ATOM      5  C   UNL     1      -0.585  -3.612   1.305  0.00  0.00    +0.054 C 
ATOM      6  C   UNL     1      -1.985  -4.095   1.581  0.00  0.00    -0.037 A 
ATOM      7  C   UNL     1      -2.135  -5.157   2.465  0.00  0.00    +0.053 A 
ATOM      8  C   UNL     1      -3.391  -5.646   2.772  0.00  0.00    +0.162 A 
ATOM      9  C   UNL     1      -4.516  -5.066   2.192  0.00  0.00    +0.162 A 
ATOM     10  C   UNL     1      -4.363  -4.011   1.311  0.00  0.00    +0.055 A 
ATOM     11  C   UNL     1      -3.098  -3.529   1.001  0.00  0.00    -0.019 A 
ATOM     12  C   UNL     1      -3.004  -2.394   0.018  0.00  0.00    +0.122 C 
ENDROOT
BRANCH  12  13
ATOM     13  C   UNL     1      -3.359  -2.906  -1.379  0.00  0.00    +0.123 C 
ATOM     14  C   UNL     1      -4.734  -3.540  -1.307  0.00  0.00    -0.003 C 
ATOM     15  C   UNL     1      -5.700  -3.034  -2.126  0.00  0.00    -0.007 A 
ATOM     16  C   UNL     1      -7.054  -3.588  -2.120  0.00  0.00    +0.010 A 
ATOM     17  C   UNL     1      -7.984  -3.053  -2.953  0.00  0.00    +0.004 A 
ATOM     18  C   UNL     1      -7.671  -1.994  -3.807  0.00  0.00    -0.049 A 
ATOM     19  C   UNL     1      -6.433  -1.436  -3.859  0.00  0.00    +0.027 A 
ATOM     20  C   UNL     1      -5.398  -1.917  -3.037  0.00  0.00    +0.041 A 
ATOM     21  N   UNL     1      -4.188  -1.361  -3.096  0.00  0.00    -0.284 N 
ATOM     22  C   UNL     1      -3.171  -1.764  -2.353  0.00  0.00    +0.226 C 
ATOM     23  O   UNL     1      -2.089  -1.218  -2.453  0.00  0.00    -0.275 OA
ATOM     24  C   UNL     1      -8.749  -1.448  -4.706  0.00  0.00    +0.044 C 
ATOM     25  H   UNL     1      -4.046  -0.628  -3.715  0.00  0.00    +0.155 HD
ENDBRANCH  12  13
BRANCH   1  27
ATOM     26  C   UNL     1      -0.019   1.526   0.010  0.00  0.00    +0.013 C 
ATOM     27  C   UNL     1       0.002  -0.004   0.002  0.00  0.00    +0.092 C 
ENDBRANCH   1  27
BRANCH   9  28
ATOM     28  O   UNL     1      -5.758  -5.535   2.489  0.00  0.00    -0.491 OA
ATOM     29  C   UNL     1      -6.864  -4.889   1.855  0.00  0.00    +0.277 C 
ENDBRANCH   9  28
BRANCH   8  30
ATOM     30  O   UNL     1      -3.527  -6.687   3.635  0.00  0.00    -0.491 OA
ATOM     31  C   UNL     1      -2.328  -7.230   4.191  0.00  0.00    +0.277 C 
ENDBRANCH   8  30
TORSDOF 4
