REMARK  Name = ZINC11912847
REMARK  7 active torsions:
REMARK  status: ('A' for Active; 'I' for Inactive)
REMARK    1  A    between atoms: C_1  and  S_2
REMARK    2  A    between atoms: S_2  and  C_3
REMARK    3  A    between atoms: C_8  and  C_18
REMARK    4  A    between atoms: C_9  and  C_13
REMARK    5  A    between atoms: C_18  and  N_51
REMARK    6  A    between atoms: C_19  and  C_20
REMARK    7  A    between atoms: C_19  and  N_51
REMARK                            x       y       z     vdW  Elec       q    Type
REMARK                         _______ _______ _______ _____ _____    ______ ____
ROOT
ATOM      1  C   UNL     1      -0.116  -4.867  -1.024  0.00  0.00    +0.010 A 
ATOM      2  C   UNL     1      -0.351  -4.206  -2.236  0.00  0.00    +0.015 A 
ATOM      3  C   UNL     1      -0.383  -2.848  -2.294  0.00  0.00    +0.011 A 
ATOM      4  C   UNL     1      -0.177  -2.092  -1.128  0.00  0.00    +0.001 A 
ATOM      5  C   UNL     1      -0.204  -0.683  -1.161  0.00  0.00    +0.014 A 
ATOM      6  C   UNL     1       0.002  -0.004   0.002  0.00  0.00    -0.037 A 
ATOM      7  C   UNL     1       0.240  -0.712   1.193  0.00  0.00    +0.080 A 
ATOM      8  N   UNL     1       0.259  -2.034   1.217  0.00  0.00    -0.246 NA
ATOM      9  C   UNL     1       0.062  -2.750   0.105  0.00  0.00    +0.073 A 
ATOM     10  C   UNL     1       0.090  -4.153   0.139  0.00  0.00    +0.043 A 
ENDROOT
BRANCH   7  11
ATOM     11  C   UNL     1       0.468   0.036   2.444  0.00  0.00    +0.038 A 
ATOM     12  C   UNL     1       0.090  -0.284   3.723  0.00  0.00    +0.017 A 
ATOM     13  C   UNL     1       0.420   0.576   4.745  0.00  0.00    +0.008 A 
ATOM     14  C   UNL     1       1.099   1.718   4.456  0.00  0.00    +0.046 A 
ATOM     15  S   UNL     1       1.300   1.597   2.686  0.00  0.00    -0.095 S 
ENDBRANCH   7  11
BRANCH   1  17
ATOM     16  C   UNL     1      -0.394  -7.112  -2.703  0.00  0.00    +0.090 C 
ATOM     17  S   UNL     1      -0.081  -6.628  -0.983  0.00  0.00    -0.129 S 
ENDBRANCH   1  17
BRANCH   6  18
ATOM     18  C   UNL     1      -0.018   1.503   0.010  0.00  0.00    -0.044 C 
BRANCH  18  19
ATOM     19  N   UNL     1       1.369   2.005  -0.000  0.00  0.00    +0.384 N 
ATOM     20  H   UNL     1       1.845   1.667  -0.845  0.00  0.00    -0.085 HD
ATOM     21  H   UNL     1       1.861   1.658   0.832  0.00  0.00    -0.085 HD
BRANCH  19  22
ATOM     22  C   UNL     1       1.379   3.480   0.008  0.00  0.00    -0.034 C 
BRANCH  22  23
ATOM     23  C   UNL     1       2.828   3.971  -0.004  0.00  0.00    +0.194 C 
ATOM     24  C   UNL     1       2.856   5.502   0.100  0.00  0.00    +0.271 C 
ATOM     25  O   UNL     1       4.223   5.928   0.073  0.00  0.00    -0.485 OA
ATOM     26  C   UNL     1       5.019   5.369  -0.879  0.00  0.00    +0.162 A 
ATOM     27  C   UNL     1       6.225   5.974  -1.199  0.00  0.00    +0.049 A 
ATOM     28  C   UNL     1       7.046   5.416  -2.161  0.00  0.00    +0.004 A 
ATOM     29  C   UNL     1       6.668   4.254  -2.806  0.00  0.00    +0.004 A 
ATOM     30  C   UNL     1       5.467   3.646  -2.493  0.00  0.00    +0.049 A 
ATOM     31  C   UNL     1       4.638   4.201  -1.529  0.00  0.00    +0.162 A 
ATOM     32  O   UNL     1       3.456   3.593  -1.233  0.00  0.00    -0.484 OA
ENDBRANCH  22  23
ENDBRANCH  19  22
ENDBRANCH  18  19
ENDBRANCH   6  18
TORSDOF 6
