REMARK  Name = ZINC55502855
REMARK  8 active torsions:
REMARK  status: ('A' for Active; 'I' for Inactive)
REMARK    1  A    between atoms: C_1  and  C_2
REMARK    2  A    between atoms: C_5  and  C_7
REMARK    3  A    between atoms: C_7  and  C_8
REMARK    4  A    between atoms: C_14  and  C_25
REMARK    5  A    between atoms: C_15  and  C_19
REMARK    6  A    between atoms: C_19  and  O_21
REMARK    7  A    between atoms: O_21  and  C_22
REMARK    8  A    between atoms: C_22  and  C_23
REMARK                            x       y       z     vdW  Elec       q    Type
REMARK                         _______ _______ _______ _____ _____    ______ ____
ROOT
ATOM      1  C   UNL     1      -1.359  -3.290   2.682  0.00  0.00    +0.117 A 
ATOM      2  N   UNL     1      -1.568  -4.128   3.727  0.00  0.00    -0.310 N 
ATOM      3  H   UNL     1      -0.805  -4.497   4.199  0.00  0.00    +0.170 HD
ATOM      4  C   UNL     1      -2.812  -4.459   4.123  0.00  0.00    +0.260 A 
ATOM      5  O   UNL     1      -2.989  -5.213   5.064  0.00  0.00    -0.267 OA
ATOM      6  C   UNL     1      -3.960  -3.883   3.385  0.00  0.00    +0.076 A 
ATOM      7  C   UNL     1      -5.327  -4.068   3.597  0.00  0.00    -0.015 A 
ATOM      8  C   UNL     1      -6.231  -3.435   2.793  0.00  0.00    +0.102 A 
ATOM      9  S   UNL     1      -5.187  -2.524   1.668  0.00  0.00    -0.062 S 
ATOM     10  C   UNL     1      -3.612  -3.025   2.316  0.00  0.00    +0.116 A 
ATOM     11  N   UNL     1      -2.348  -2.761   2.013  0.00  0.00    -0.226 NA
ATOM     12  C   UNL     1      -5.805  -4.964   4.711  0.00  0.00    +0.046 C 
ENDROOT
BRANCH   8  13
ATOM     13  C   UNL     1      -7.694  -3.490   2.841  0.00  0.00    +0.347 C 
ATOM     14  O   UNL     1      -8.249  -4.170   3.684  0.00  0.00    -0.244 OA
BRANCH  13  15
ATOM     15  O   UNL     1      -8.425  -2.788   1.952  0.00  0.00    -0.457 OA
BRANCH  15  16
ATOM     16  C   UNL     1      -9.846  -2.888   2.058  0.00  0.00    +0.259 C 
BRANCH  16  17
ATOM     17  C   UNL     1     -10.490  -2.042   0.990  0.00  0.00    +0.006 C 
ATOM     18  C   UNL     1     -11.488  -2.520   0.288  0.00  0.00    +0.007 C 
ENDBRANCH  16  17
ENDBRANCH  15  16
ENDBRANCH  13  15
ENDBRANCH   8  13
BRANCH   1  19
ATOM     19  C   UNL     1       0.055  -2.955   2.284  0.00  0.00    +0.137 C 
BRANCH  19  24
ATOM     20  C   UNL     1      -0.018   1.503   0.010  0.00  0.00    +0.066 C 
ATOM     21  C   UNL     1       0.002  -0.004   0.002  0.00  0.00    +0.046 A 
ATOM     22  C   UNL     1       0.006  -0.708  -1.159  0.00  0.00    +0.070 A 
ATOM     23  S   UNL     1       0.032  -2.379  -0.531  0.00  0.00    -0.080 S 
ATOM     24  C   UNL     1       0.036  -2.009   1.111  0.00  0.00    +0.086 A 
ATOM     25  N   UNL     1       0.023  -0.699   1.122  0.00  0.00    -0.249 NA
ENDBRANCH  19  24
ENDBRANCH   1  19
TORSDOF 6
