REMARK  Name = ZINC64034922
REMARK  7 active torsions:
REMARK  status: ('A' for Active; 'I' for Inactive)
REMARK    1  A    between atoms: C_1  and  N_2
REMARK    2  A    between atoms: N_2  and  C_3
REMARK    3  A    between atoms: N_2  and  C_4
REMARK    4  A    between atoms: C_7  and  C_11
REMARK    5  A    between atoms: N_13  and  N_14
REMARK    6  A    between atoms: C_15  and  C_17
REMARK    7  A    between atoms: C_17  and  C_18
REMARK                            x       y       z     vdW  Elec       q    Type
REMARK                         _______ _______ _______ _____ _____    ______ ____
ROOT
ATOM      1  N   UNL     1      -1.172  -3.836  -6.693  0.00  0.00    -0.234 N 
ATOM      2  C   UNL     1      -2.339  -4.181  -7.271  0.00  0.00    +0.233 C 
ATOM      3  O   UNL     1      -3.389  -3.892  -6.738  0.00  0.00    -0.274 OA
ATOM      4  H   UNL     1      -0.332  -4.067  -7.120  0.00  0.00    +0.173 HD
ENDROOT
BRANCH   1   7
ATOM      5  C   UNL     1      -0.004  -2.797  -4.897  0.00  0.00    +0.260 C 
ATOM      6  O   UNL     1       1.049  -3.087  -5.432  0.00  0.00    -0.269 OA
ATOM      7  N   UNL     1      -1.171  -3.142  -5.476  0.00  0.00    -0.230 N 
ATOM      8  H   UNL     1      -2.011  -2.911  -5.049  0.00  0.00    +0.173 HD
BRANCH   5  12
ATOM      9  C   UNL     1       0.000  -0.694  -1.207  0.00  0.00    +0.065 A 
ATOM     10  C   UNL     1       1.205  -1.026  -1.819  0.00  0.00    +0.027 A 
ATOM     11  C   UNL     1       1.206  -1.708  -3.015  0.00  0.00    +0.015 A 
ATOM     12  C   UNL     1      -0.003  -2.067  -3.616  0.00  0.00    +0.041 A 
ATOM     13  C   UNL     1      -1.213  -1.732  -3.000  0.00  0.00    +0.053 A 
ATOM     14  C   UNL     1      -1.209  -1.054  -1.800  0.00  0.00    +0.145 A 
ATOM     15  F   UNL     1      -2.377  -0.735  -1.201  0.00  0.00    -0.204 F 
BRANCH   9  17
ATOM     16  C   UNL     1      -0.018   1.461   0.010  0.00  0.00    +0.129 C 
ATOM     17  N   UNL     1       0.002  -0.004   0.002  0.00  0.00    -0.334 N 
ATOM     18  C   UNL     1       0.024  -0.743   1.267  0.00  0.00    +0.129 C 
ENDBRANCH   9  17
ENDBRANCH   5  12
ENDBRANCH   1   7
BRANCH   2  19
ATOM     19  C   UNL     1      -2.340  -4.927  -8.581  0.00  0.00    +0.132 C 
BRANCH  19  20
ATOM     20  C   UNL     1      -3.760  -5.191  -9.008  0.00  0.00    -0.038 A 
ATOM     21  C   UNL     1      -4.395  -6.362  -8.598  0.00  0.00    +0.005 A 
ATOM     22  C   UNL     1      -5.677  -6.630  -8.967  0.00  0.00    +0.009 A 
ATOM     23  C   UNL     1      -6.375  -5.714  -9.773  0.00  0.00    -0.018 A 
ATOM     24  C   UNL     1      -7.700  -5.957 -10.174  0.00  0.00    +0.008 A 
ATOM     25  C   UNL     1      -8.345  -5.047 -10.954  0.00  0.00    +0.001 A 
ATOM     26  C   UNL     1      -7.710  -3.876 -11.364  0.00  0.00    +0.001 A 
ATOM     27  C   UNL     1      -6.428  -3.608 -10.996  0.00  0.00    +0.008 A 
ATOM     28  C   UNL     1      -5.730  -4.523 -10.190  0.00  0.00    -0.018 A 
ATOM     29  C   UNL     1      -4.407  -4.279  -9.785  0.00  0.00    +0.012 A 
ENDBRANCH  19  20
ENDBRANCH   2  19
TORSDOF 5
