REMARK  Name = ZINC27754100
REMARK  5 active torsions:
REMARK  status: ('A' for Active; 'I' for Inactive)
REMARK    1  A    between atoms: C_6  and  C_7
REMARK    2  A    between atoms: C_7  and  O_31
REMARK    3  A    between atoms: C_8  and  C_25
REMARK    4  A    between atoms: C_10  and  C_16
REMARK    5  A    between atoms: C_25  and  C_27
REMARK                            x       y       z     vdW  Elec       q    Type
REMARK                         _______ _______ _______ _____ _____    ______ ____
ROOT
ATOM      1  C   UNL     1      -2.481  -5.042   2.097  0.00  0.00    +0.172 C 
ATOM      2  C   UNL     1      -1.448  -3.923   1.926  0.00  0.00    +0.144 C 
ATOM      3  C   UNL     1      -1.714  -3.213   0.595  0.00  0.00    +0.120 C 
ATOM      4  N   UNL     1      -1.700  -4.199  -0.487  0.00  0.00    -0.292 N 
ATOM      5  C   UNL     1      -2.053  -5.475  -0.273  0.00  0.00    +0.302 C 
ATOM      6  O   UNL     1      -2.034  -6.251  -1.208  0.00  0.00    -0.253 OA
ATOM      7  N   UNL     1      -2.426  -5.929   0.933  0.00  0.00    -0.267 N 
ATOM      8  H   UNL     1      -1.396  -3.898  -1.501  0.00  0.00    +0.151 HD
ATOM      9  H   UNL     1      -2.693  -6.991   1.038  0.00  0.00    +0.153 HD
ENDROOT
BRANCH   3  10
ATOM     10  C   UNL     1      -0.642  -2.182   0.351  0.00  0.00    -0.023 A 
ATOM     11  C   UNL     1       0.548  -2.553  -0.247  0.00  0.00    +0.009 A 
ATOM     12  C   UNL     1       1.535  -1.612  -0.472  0.00  0.00    +0.050 A 
ATOM     13  C   UNL     1       1.333  -0.292  -0.100  0.00  0.00    +0.166 A 
ATOM     14  C   UNL     1       0.133   0.081   0.502  0.00  0.00    +0.167 A 
ATOM     15  C   UNL     1      -0.851  -0.868   0.725  0.00  0.00    +0.055 A 
ATOM     16  O   UNL     1       0.178   1.419   0.770  0.00  0.00    -0.453 OA
ATOM     17  C   UNL     1       1.571   1.779   0.700  0.00  0.00    +0.466 C 
ATOM     18  O   UNL     1       2.129   0.811  -0.208  0.00  0.00    -0.453 OA
ENDBRANCH   3  10
BRANCH   1  24
ATOM     19  C   UNL     1      -4.327  -4.012   3.437  0.00  0.00    +0.009 A 
ATOM     20  C   UNL     1      -5.589  -3.458   3.540  0.00  0.00    +0.020 A 
ATOM     21  C   UNL     1      -6.388  -3.343   2.416  0.00  0.00    +0.041 A 
ATOM     22  C   UNL     1      -5.921  -3.779   1.189  0.00  0.00    +0.020 A 
ATOM     23  C   UNL     1      -4.657  -4.329   1.086  0.00  0.00    +0.009 A 
ATOM     24  C   UNL     1      -3.859  -4.443   2.209  0.00  0.00    +0.003 A 
ATOM     25 CL   UNL     1      -7.975  -2.653   2.546  0.00  0.00    -0.084 Cl
ENDBRANCH   1  24
BRANCH   2  26
ATOM     26  C   UNL     1      -0.061  -4.512   1.917  0.00  0.00    +0.245 C 
ATOM     27  O   UNL     1       0.246  -5.321   1.075  0.00  0.00    -0.287 OA
BRANCH  26  28
ATOM     28  C   UNL     1       0.943  -4.092   2.959  0.00  0.00    +0.451 C 
ATOM     29  F   UNL     1       2.181  -4.679   2.678  0.00  0.00    -0.163 F 
ATOM     30  F   UNL     1       1.074  -2.699   2.945  0.00  0.00    -0.163 F 
ATOM     31  F   UNL     1       0.506  -4.506   4.222  0.00  0.00    -0.163 F 
ENDBRANCH  26  28
ENDBRANCH   2  26
BRANCH   1  32
ATOM     32  O   UNL     1      -2.187  -5.788   3.280  0.00  0.00    -0.367 OA
ATOM     33  H   UNL     1      -1.218  -6.300   3.380  0.00  0.00    +0.212 HD
ENDBRANCH   1  32
TORSDOF 5
