REMARK  Name = ZINC63514350
REMARK  9 active torsions:
REMARK  status: ('A' for Active; 'I' for Inactive)
REMARK    1  A    between atoms: C_1  and  C_2
REMARK    2  A    between atoms: C_4  and  C_13
REMARK    3  A    between atoms: C_13  and  C_14
REMARK    4  A    between atoms: C_14  and  N_15
REMARK    5  A    between atoms: C_16  and  C_18
REMARK    6  A    between atoms: C_20  and  S_26
REMARK    7  A    between atoms: S_26  and  N_29
REMARK    8  A    between atoms: N_29  and  C_30
REMARK    9  A    between atoms: N_29  and  C_31
REMARK                            x       y       z     vdW  Elec       q    Type
REMARK                         _______ _______ _______ _____ _____    ______ ____
ROOT
ATOM      1  N   UNL     1      -0.499   0.261  -4.305  0.00  0.00    -0.311 N 
ATOM      2  C   UNL     1       0.491  -0.387  -4.951  0.00  0.00    +0.246 C 
ATOM      3  O   UNL     1       1.353  -0.966  -4.319  0.00  0.00    -0.270 OA
ATOM      4  H   UNL     1      -1.186   0.723  -4.809  0.00  0.00    +0.149 HD
ENDROOT
BRANCH   2   5
ATOM      5  C   UNL     1       0.529  -0.392  -6.428  0.00  0.00    +0.057 A 
ATOM      6  C   UNL     1      -0.456   0.278  -7.157  0.00  0.00    +0.044 A 
ATOM      7  C   UNL     1      -0.415   0.270  -8.535  0.00  0.00    +0.124 A 
ATOM      8  C   UNL     1       0.600  -0.401  -9.197  0.00  0.00    +0.069 A 
ATOM      9  C   UNL     1       1.580  -1.068  -8.482  0.00  0.00    +0.042 A 
ATOM     10  C   UNL     1       1.554  -1.062  -7.101  0.00  0.00    +0.055 A 
ATOM     11 CL   UNL     1       2.788  -1.891  -6.204  0.00  0.00    -0.083 Cl
ATOM     12 CL   UNL     1       0.644  -0.407 -10.933  0.00  0.00    -0.081 Cl
BRANCH   7  13
ATOM     13  S   UNL     1      -1.657   1.114  -9.456  0.00  0.00    +0.062 S 
ATOM     14  O   UNL     1      -2.540   1.698  -8.507  0.00  0.00    -0.153 OA
ATOM     15  O   UNL     1      -0.980   1.883 -10.440  0.00  0.00    -0.153 OA
BRANCH  13  16
ATOM     16  N   UNL     1      -2.529  -0.034 -10.269  0.00  0.00    -0.183 NA
ATOM     17  C   UNL     1      -3.608  -0.754  -9.588  0.00  0.00    +0.131 C 
ATOM     18  C   UNL     1      -2.222  -0.331 -11.671  0.00  0.00    +0.131 C 
ENDBRANCH  13  16
ENDBRANCH   7  13
ENDBRANCH   2   5
BRANCH   1  19
ATOM     19  C   UNL     1      -0.536   0.265  -2.840  0.00  0.00    +0.109 C 
BRANCH  19  20
ATOM     20  C   UNL     1      -1.752   1.064  -2.364  0.00  0.00    +0.052 C 
BRANCH  20  23
ATOM     21  C   UNL     1      -2.823   3.250  -0.223  0.00  0.00    +0.035 C 
ATOM     22  C   UNL     1      -2.821   1.740   0.023  0.00  0.00    +0.103 C 
ATOM     23  C   UNL     1      -1.790   1.069  -0.858  0.00  0.00    -0.037 C 
ATOM     24  C   UNL     1      -0.911   0.474  -0.020  0.00  0.00    +0.001 A 
ATOM     25  C   UNL     1       0.298  -0.324  -0.247  0.00  0.00    +0.010 A 
ATOM     26  C   UNL     1       0.992  -0.799   0.810  0.00  0.00    +0.002 A 
ATOM     27  C   UNL     1       0.601  -0.558   2.133  0.00  0.00    +0.022 A 
ATOM     28  C   UNL     1      -0.497   0.165   2.449  0.00  0.00    +0.064 A 
ATOM     29  C   UNL     1      -1.326   0.730   1.379  0.00  0.00    +0.062 A 
ATOM     30  N   UNL     1      -2.420   1.453   1.405  0.00  0.00    -0.377 N 
ATOM     31 CL   UNL     1      -0.922   0.424   4.112  0.00  0.00    -0.081 Cl
ATOM     32  H   UNL     1      -2.885   1.750   2.203  0.00  0.00    +0.160 HD
ENDBRANCH  20  23
ENDBRANCH  19  20
ENDBRANCH   1  19
TORSDOF 6
