REMARK  Name = ZINC04386908
REMARK  7 active torsions:
REMARK  status: ('A' for Active; 'I' for Inactive)
REMARK    1  A    between atoms: C_1  and  C_2
REMARK    2  A    between atoms: C_6  and  N_8
REMARK    3  A    between atoms: C_9  and  C_11
REMARK    4  A    between atoms: C_12  and  C_32
REMARK    5  A    between atoms: C_16  and  C_18
REMARK    6  A    between atoms: C_21  and  O_24
REMARK    7  A    between atoms: C_28  and  C_31
REMARK                            x       y       z     vdW  Elec       q    Type
REMARK                         _______ _______ _______ _____ _____    ______ ____
ROOT
ATOM      1  C   UNL     1      -3.341   3.491   1.461  0.00  0.00    +0.043 C 
ATOM      2  C   UNL     1      -4.315   2.593   1.239  0.00  0.00    +0.014 C 
ATOM      3  N   UNL     1      -4.542   2.116  -0.023  0.00  0.00    -0.321 N 
ATOM      4  C   UNL     1      -4.089   2.800  -1.119  0.00  0.00    +0.016 C 
ATOM      5  C   UNL     1      -3.100   3.709  -0.997  0.00  0.00    +0.024 C 
ATOM      6  C   UNL     1      -2.473   3.991   0.345  0.00  0.00    +0.090 C 
ATOM      7  C   UNL     1      -2.624   4.417  -2.115  0.00  0.00    +0.162 C 
ATOM      8  O   UNL     1      -1.741   5.239  -1.969  0.00  0.00    -0.292 OA
ATOM      9  C   UNL     1      -3.188   4.175  -3.488  0.00  0.00    +0.083 C 
ATOM     10  C   UNL     1      -3.698   2.732  -3.570  0.00  0.00    -0.001 C 
ATOM     11  C   UNL     1      -4.724   2.516  -2.457  0.00  0.00    +0.055 C 
ATOM     12  C   UNL     1      -4.352   2.495  -4.933  0.00  0.00    +0.008 C 
ATOM     13  C   UNL     1      -5.162   2.106   2.387  0.00  0.00    +0.061 C 
ATOM     14  H   UNL     1      -5.094   1.174  -0.164  0.00  0.00    +0.152 HD
ENDROOT
BRANCH   6  15
ATOM     15  C   UNL     1      -1.131   3.308   0.418  0.00  0.00    -0.035 A 
ATOM     16  C   UNL     1      -1.051   1.932   0.313  0.00  0.00    +0.008 A 
ATOM     17  C   UNL     1       0.176   1.303   0.385  0.00  0.00    +0.046 A 
ATOM     18  C   UNL     1       1.331   2.054   0.551  0.00  0.00    +0.117 A 
ATOM     19  C   UNL     1       1.248   3.436   0.650  0.00  0.00    +0.046 A 
ATOM     20  C   UNL     1       0.018   4.059   0.583  0.00  0.00    +0.008 A 
BRANCH  18  21
ATOM     21  O   UNL     1       2.540   1.438   0.616  0.00  0.00    -0.507 OA
ATOM     22  H   UNL     1       3.455   2.035   0.747  0.00  0.00    +0.292 HD
ENDBRANCH  18  21
ENDBRANCH   6  15
BRANCH   1  24
ATOM     23  N   UNL     1      -2.090   4.792   3.034  0.00  0.00    -0.267 N 
ATOM     24  C   UNL     1      -3.131   3.976   2.775  0.00  0.00    +0.248 C 
ATOM     25  O   UNL     1      -3.892   3.656   3.671  0.00  0.00    -0.270 OA
ATOM     26  H   UNL     1      -1.455   5.151   2.211  0.00  0.00    +0.157 HD
BRANCH  23  32
ATOM     27  C   UNL     1      -3.397   4.753   7.641  0.00  0.00    +0.065 C 
ATOM     28  C   UNL     1      -2.426   5.178   6.570  0.00  0.00    +0.040 A 
ATOM     29  C   UNL     1      -1.316   5.925   6.914  0.00  0.00    +0.023 A 
ATOM     30  C   UNL     1      -0.425   6.313   5.923  0.00  0.00    +0.005 A 
ATOM     31  C   UNL     1      -0.682   5.934   4.617  0.00  0.00    +0.044 A 
ATOM     32  C   UNL     1      -1.819   5.181   4.344  0.00  0.00    +0.125 A 
ATOM     33  N   UNL     1      -2.648   4.835   5.316  0.00  0.00    -0.237 NA
ENDBRANCH  23  32
ENDBRANCH   1  24
TORSDOF 4
