REMARK  Name = ZINC03359436
REMARK  10 active torsions:
REMARK  status: ('A' for Active; 'I' for Inactive)
REMARK    1  A    between atoms: C_1  and  C_2
REMARK    2  A    between atoms: C_2  and  N_3
REMARK    3  A    between atoms: N_3  and  C_4
REMARK    4  A    between atoms: N_3  and  C_27
REMARK    5  A    between atoms: C_7  and  N_10
REMARK    6  A    between atoms: C_11  and  C_13
REMARK    7  A    between atoms: C_13  and  N_14
REMARK    8  A    between atoms: C_20  and  C_23
REMARK    9  A    between atoms: C_27  and  C_28
REMARK   10  A    between atoms: C_27  and  C_29
REMARK                            x       y       z     vdW  Elec       q    Type
REMARK                         _______ _______ _______ _____ _____    ______ ____
ROOT
ATOM      1  N   UNL     1       0.062   0.842   0.046  0.00  0.00    -0.284 N 
ATOM      2  C   UNL     1       1.198   1.568   0.071  0.00  0.00    +0.235 C 
ATOM      3  O   UNL     1       1.145   2.778   0.003  0.00  0.00    -0.274 OA
ATOM      4  H   UNL     1       0.106  -0.127   0.033  0.00  0.00    +0.155 HD
ENDROOT
BRANCH   1   8
ATOM      5  C   UNL     1      -3.640   2.762   0.005  0.00  0.00    +0.030 A 
ATOM      6  C   UNL     1      -2.559   3.323  -0.663  0.00  0.00    +0.025 A 
ATOM      7  C   UNL     1      -1.334   2.687  -0.650  0.00  0.00    +0.025 A 
ATOM      8  C   UNL     1      -1.182   1.487   0.032  0.00  0.00    +0.034 A 
ATOM      9  C   UNL     1      -2.263   0.924   0.696  0.00  0.00    +0.025 A 
ATOM     10  C   UNL     1      -3.488   1.562   0.687  0.00  0.00    +0.025 A 
BRANCH   5  11
ATOM     11  N   UNL     1      -4.882   3.406  -0.008  0.00  0.00    -0.328 N 
BRANCH  11  12
ATOM     12  C   UNL     1      -5.072   4.613  -0.817  0.00  0.00    +0.067 C 
ATOM     13  C   UNL     1      -6.088   4.329  -1.926  0.00  0.00    +0.027 C 
ATOM     14  C   UNL     1      -5.590   5.746   0.071  0.00  0.00    +0.027 C 
ENDBRANCH  11  12
BRANCH  11  16
ATOM     15  C   UNL     1      -5.967   3.504   2.181  0.00  0.00    +0.024 C 
ATOM     16  C   UNL     1      -5.992   2.875   0.786  0.00  0.00    +0.102 C 
ENDBRANCH  11  16
ENDBRANCH   5  11
ENDBRANCH   1   8
BRANCH   2  17
ATOM     17  C   UNL     1       2.532   0.876   0.185  0.00  0.00    +0.214 C 
BRANCH  17  18
ATOM     18  N   UNL     1       3.602   1.877   0.191  0.00  0.00    -0.215 N 
ATOM     19  C   UNL     1       4.092   2.455   1.307  0.00  0.00    +0.247 C 
ATOM     20  O   UNL     1       3.745   2.253   2.451  0.00  0.00    -0.273 OA
ATOM     21  C   UNL     1       5.165   3.407   0.831  0.00  0.00    +0.113 C 
ATOM     22  C   UNL     1       6.520   3.012   1.409  0.00  0.00    +0.035 C 
ATOM     23  C   UNL     1       7.597   3.970   0.892  0.00  0.00    +0.006 C 
ATOM     24  C   UNL     1       7.245   5.401   1.304  0.00  0.00    -0.014 C 
ATOM     25  C   UNL     1       5.896   5.790   0.697  0.00  0.00    +0.006 C 
ATOM     26  C   UNL     1       4.812   4.840   1.213  0.00  0.00    +0.035 C 
ATOM     27  C   UNL     1       8.327   6.357   0.799  0.00  0.00    +0.007 C 
ATOM     28  N   UNL     1       5.162   3.247  -0.629  0.00  0.00    -0.285 N 
ATOM     29  C   UNL     1       4.218   2.327  -0.908  0.00  0.00    +0.310 C 
ATOM     30  O   UNL     1       3.953   1.951  -2.034  0.00  0.00    -0.252 OA
ATOM     31  H   UNL     1       5.729   3.708  -1.265  0.00  0.00    +0.151 HD
ENDBRANCH  17  18
ENDBRANCH   2  17
TORSDOF 6
