REMARK  Name = ZINC18097045
REMARK  6 active torsions:
REMARK  status: ('A' for Active; 'I' for Inactive)
REMARK    1  A    between atoms: C_1  and  C_2
REMARK    2  A    between atoms: C_9  and  O_29
REMARK    3  A    between atoms: C_11  and  O_28
REMARK    4  A    between atoms: C_18  and  O_26
REMARK    5  A    between atoms: C_20  and  O_25
REMARK    6  A    between atoms: O_26  and  C_27
REMARK                            x       y       z     vdW  Elec       q    Type
REMARK                         _______ _______ _______ _____ _____    ______ ____
ROOT
ATOM      1  C   UNL     1      -0.019   1.526   0.010  0.00  0.00    +0.052 C 
ATOM      2  C   UNL     1       0.002  -0.004   0.002  0.00  0.00    +0.177 C 
ATOM      3  C   UNL     1      -1.427  -0.533   0.136  0.00  0.00    +0.071 C 
ATOM      4  C   UNL     1      -1.584  -1.777  -0.700  0.00  0.00    -0.020 C 
ATOM      5  C   UNL     1      -1.096  -2.939  -0.261  0.00  0.00    +0.045 C 
ATOM      6  C   UNL     1      -1.244  -4.147  -1.071  0.00  0.00    +0.187 C 
ATOM      7  O   UNL     1      -1.817  -4.096  -2.139  0.00  0.00    -0.290 OA
ATOM      8  C   UNL     1      -0.683  -5.457  -0.577  0.00  0.00    +0.213 C 
ATOM      9  C   UNL     1       0.845  -5.405  -0.627  0.00  0.00    +0.151 C 
ATOM     10  C   UNL     1       1.385  -4.975   0.738  0.00  0.00    +0.035 C 
ATOM     11  C   UNL     1       2.440  -3.883   0.551  0.00  0.00    +0.007 C 
ATOM     12  C   UNL     1       2.050  -2.648   1.365  0.00  0.00    +0.036 C 
ATOM     13  C   UNL     1       3.272  -1.809   1.631  0.00  0.00    -0.026 A 
ATOM     14  C   UNL     1       4.487  -2.418   1.849  0.00  0.00    +0.050 A 
ATOM     15  C   UNL     1       5.622  -1.654   2.097  0.00  0.00    +0.124 A 
ATOM     16  C   UNL     1       5.538  -0.269   2.132  0.00  0.00    +0.091 A 
ATOM     17  C   UNL     1       4.323   0.356   1.916  0.00  0.00    +0.135 A 
ATOM     18  C   UNL     1       3.176  -0.414   1.656  0.00  0.00    +0.104 A 
ATOM     19  C   UNL     1       1.889   0.249   1.404  0.00  0.00    +0.343 C 
ATOM     20  O   UNL     1       1.810   1.460   1.476  0.00  0.00    -0.245 OA
ATOM     21  O   UNL     1       0.794  -0.475   1.095  0.00  0.00    -0.458 OA
ENDROOT
BRANCH  17  22
ATOM     22  O   UNL     1       4.238   1.710   1.956  0.00  0.00    -0.506 OA
ATOM     23  H   UNL     1       4.386   2.139   1.102  0.00  0.00    +0.292 HD
ENDBRANCH  17  22
BRANCH  15  24
ATOM     24  O   UNL     1       6.816  -2.264   2.308  0.00  0.00    -0.495 OA
ATOM     25  C   UNL     1       7.941  -1.419   2.557  0.00  0.00    +0.277 C 
ENDBRANCH  15  24
BRANCH   9  26
ATOM     26  O   UNL     1       1.356  -6.698  -0.956  0.00  0.00    -0.389 OA
ATOM     27  H   UNL     1       1.053  -7.035  -1.811  0.00  0.00    +0.210 HD
ENDBRANCH   9  26
BRANCH   8  28
ATOM     28  O   UNL     1      -1.152  -6.520  -1.409  0.00  0.00    -0.381 OA
ATOM     29  H   UNL     1      -2.115  -6.611  -1.426  0.00  0.00    +0.210 HD
ENDBRANCH   8  28
TORSDOF 4
