REMARK  Name = ZINC29477719
REMARK  9 active torsions:
REMARK  status: ('A' for Active; 'I' for Inactive)
REMARK    1  A    between atoms: C_4  and  C_7
REMARK    2  A    between atoms: C_7  and  C_8
REMARK    3  A    between atoms: C_8  and  C_10
REMARK    4  A    between atoms: C_8  and  N_16
REMARK    5  A    between atoms: C_17  and  C_19
REMARK    6  A    between atoms: C_19  and  N_20
REMARK    7  A    between atoms: C_23  and  C_26
REMARK    8  A    between atoms: C_26  and  C_28
REMARK    9  A    between atoms: C_26  and  O_34
REMARK                            x       y       z     vdW  Elec       q    Type
REMARK                         _______ _______ _______ _____ _____    ______ ____
ROOT
ATOM      1  N   UNL     1      -2.993   2.776  -2.054  0.00  0.00    -0.310 N 
ATOM      2  C   UNL     1      -2.949   2.664  -3.396  0.00  0.00    +0.197 C 
ATOM      3  O   UNL     1      -2.461   3.552  -4.063  0.00  0.00    -0.278 OA
ATOM      4  H   UNL     1      -3.435   1.970  -1.449  0.00  0.00    +0.149 HD
ENDROOT
BRANCH   1   5
ATOM      5  C   UNL     1      -2.453   3.970  -1.400  0.00  0.00    +0.107 C 
BRANCH   5   6
ATOM      6  C   UNL     1      -3.503   5.051  -1.381  0.00  0.00    -0.027 A 
ATOM      7  C   UNL     1      -4.823   4.727  -1.127  0.00  0.00    +0.005 A 
ATOM      8  C   UNL     1      -5.786   5.719  -1.105  0.00  0.00    +0.000 A 
ATOM      9  C   UNL     1      -5.430   7.033  -1.346  0.00  0.00    +0.000 A 
ATOM     10  C   UNL     1      -4.111   7.356  -1.604  0.00  0.00    +0.000 A 
ATOM     11  C   UNL     1      -3.148   6.365  -1.622  0.00  0.00    +0.005 A 
ENDBRANCH   5   6
BRANCH   5  12
ATOM     12  C   UNL     1      -2.047   3.627   0.035  0.00  0.00    +0.062 C 
BRANCH  12  16
ATOM     13  C   UNL     1       1.172   0.820  -0.028  0.00  0.00    +0.000 A 
ATOM     14  C   UNL     1      -0.136   0.372  -0.011  0.00  0.00    +0.000 A 
ATOM     15  C   UNL     1      -1.178   1.280   0.003  0.00  0.00    +0.004 A 
ATOM     16  C   UNL     1      -0.912   2.637   0.013  0.00  0.00    -0.045 A 
ATOM     17  C   UNL     1       0.396   3.085  -0.004  0.00  0.00    +0.004 A 
ATOM     18  C   UNL     1       1.438   2.176  -0.024  0.00  0.00    +0.000 A 
ENDBRANCH  12  16
ENDBRANCH   5  12
ENDBRANCH   1   5
BRANCH   2  19
ATOM     19  C   UNL     1      -3.504   1.435  -4.069  0.00  0.00    +0.019 C 
BRANCH  19  20
ATOM     20  N   UNL     1      -3.475   1.618  -5.526  0.00  0.00    +0.385 N 
ATOM     21  C   UNL     1      -3.769   0.358  -6.221  0.00  0.00    -0.078 C 
ATOM     22  C   UNL     1      -3.588   0.551  -7.728  0.00  0.00    -0.012 C 
ATOM     23  C   UNL     1      -4.529   1.657  -8.214  0.00  0.00    +0.019 C 
ATOM     24  C   UNL     1      -4.234   2.944  -7.440  0.00  0.00    -0.012 C 
ATOM     25  C   UNL     1      -4.397   2.682  -5.941  0.00  0.00    -0.078 C 
ATOM     26  H   UNL     1      -2.458   1.927  -5.809  0.00  0.00    -0.081 HD
BRANCH  23  27
ATOM     27  C   UNL     1      -4.309   1.896  -9.709  0.00  0.00    +0.147 C 
BRANCH  27  28
ATOM     28  C   UNL     1      -4.717   0.667 -10.480  0.00  0.00    -0.019 A 
ATOM     29  C   UNL     1      -3.857  -0.412 -10.566  0.00  0.00    +0.006 A 
ATOM     30  C   UNL     1      -4.233  -1.541 -11.270  0.00  0.00    +0.000 A 
ATOM     31  C   UNL     1      -5.465  -1.587 -11.895  0.00  0.00    +0.000 A 
ATOM     32  C   UNL     1      -6.323  -0.506 -11.813  0.00  0.00    +0.000 A 
ATOM     33  C   UNL     1      -5.949   0.621 -11.105  0.00  0.00    +0.006 A 
ENDBRANCH  27  28
BRANCH  27  34
ATOM     34  O   UNL     1      -2.927   2.172  -9.948  0.00  0.00    -0.387 OA
ATOM     35  H   UNL     1      -2.576   2.371 -10.971  0.00  0.00    +0.210 HD
ENDBRANCH  27  34
ENDBRANCH  23  27
ENDBRANCH  19  20
ENDBRANCH   2  19
TORSDOF 9
