REMARK  Name = ZINC39711066
REMARK  13 active torsions:
REMARK  status: ('A' for Active; 'I' for Inactive)
REMARK    1  A    between atoms: C_1  and  C_2
REMARK    2  A    between atoms: C_4  and  C_40
REMARK    3  A    between atoms: C_9  and  C_14
REMARK    4  A    between atoms: C_14  and  C_16
REMARK    5  A    between atoms: C_14  and  N_26
REMARK    6  A    between atoms: N_21  and  C_22
REMARK    7  A    between atoms: C_22  and  C_23
REMARK    8  A    between atoms: C_22  and  C_24
REMARK    9  A    between atoms: C_22  and  C_25
REMARK   10  A    between atoms: N_26  and  C_27
REMARK   11  A    between atoms: N_26  and  C_33
REMARK   12  A    between atoms: C_27  and  C_28
REMARK   13  A    between atoms: C_33  and  C_34
REMARK                            x       y       z     vdW  Elec       q    Type
REMARK                         _______ _______ _______ _____ _____    ______ ____
ROOT
ATOM      1  C   UNL     1       1.372  -4.971   3.086  0.00  0.00    -0.010 C 
ENDROOT
BRANCH   1  10
ATOM      2  C   UNL     1      -2.843  -6.280  -2.529  0.00  0.00    +0.044 C 
ATOM      3  C   UNL     1      -2.593  -5.877  -1.098  0.00  0.00    -0.050 A 
ATOM      4  C   UNL     1      -3.621  -6.004  -0.163  0.00  0.00    +0.008 A 
ATOM      5  C   UNL     1      -3.470  -5.662   1.143  0.00  0.00    -0.028 A 
ATOM      6  C   UNL     1      -2.244  -5.155   1.611  0.00  0.00    +0.043 A 
ATOM      7  N   UNL     1      -2.107  -4.823   2.895  0.00  0.00    -0.284 N 
ATOM      8  C   UNL     1      -0.984  -4.342   3.401  0.00  0.00    +0.223 C 
ATOM      9  O   UNL     1      -0.919  -4.057   4.582  0.00  0.00    -0.275 OA
ATOM     10  C   UNL     1       0.219  -4.149   2.506  0.00  0.00    +0.088 C 
ATOM     11  C   UNL     1       0.069  -4.525   1.045  0.00  0.00    -0.006 C 
ATOM     12  C   UNL     1      -1.141  -5.011   0.646  0.00  0.00    -0.007 A 
ATOM     13  C   UNL     1      -1.371  -5.404  -0.745  0.00  0.00    +0.012 A 
ATOM     14  C   UNL     1      -4.626  -5.825   2.097  0.00  0.00    +0.046 C 
ATOM     15  H   UNL     1      -2.868  -4.940   3.486  0.00  0.00    +0.155 HD
ENDBRANCH   1  10
BRANCH   1  16
ATOM     16  C   UNL     1       1.783  -4.389   4.440  0.00  0.00    +0.183 C 
ATOM     17  N   UNL     1       0.716  -4.588   5.439  0.00  0.00    -0.229 N 
ATOM     18  N   UNL     1       0.320  -3.306   5.837  0.00  0.00    -0.064 NA
ATOM     19  N   UNL     1       0.946  -2.418   5.266  0.00  0.00    -0.061 NA
ATOM     20  N   UNL     1       1.898  -2.920   4.364  0.00  0.00    -0.211 N 
ATOM     21  H   UNL     1       0.361  -5.434   5.755  0.00  0.00    +0.172 HD
BRANCH  20  22
ATOM     22  C   UNL     1       2.815  -2.149   3.521  0.00  0.00    +0.047 C 
ATOM     23  C   UNL     1       2.610  -2.537   2.056  0.00  0.00    +0.033 C 
ATOM     24  C   UNL     1       2.535  -0.655   3.697  0.00  0.00    +0.033 C 
ATOM     25  C   UNL     1       4.258  -2.448   3.932  0.00  0.00    +0.033 C 
ENDBRANCH  20  22
ENDBRANCH   1  16
BRANCH   1  26
ATOM     26  N   UNL     1       0.941  -6.364   3.262  0.00  0.00    +0.391 N 
ATOM     27  H   UNL     1       1.531  -6.815   3.944  0.00  0.00    -0.080 HD
BRANCH  26  28
ATOM     28  C   UNL     1       1.042  -7.074   1.980  0.00  0.00    -0.002 C 
BRANCH  28  29
ATOM     29  C   UNL     1       2.493  -7.219   1.600  0.00  0.00    +0.089 A 
ATOM     30  C   UNL     1       3.268  -8.291   1.848  0.00  0.00    +0.042 A 
ATOM     31  C   UNL     1       4.548  -8.001   1.323  0.00  0.00    +0.041 A 
ATOM     32  C   UNL     1       4.480  -6.770   0.786  0.00  0.00    +0.195 A 
ATOM     33  O   UNL     1       3.231  -6.304   0.951  0.00  0.00    -0.470 OA
ENDBRANCH  28  29
ENDBRANCH  26  28
BRANCH  26  34
ATOM     34  C   UNL     1      -0.453  -6.389   3.727  0.00  0.00    -0.046 C 
BRANCH  34  35
ATOM     35  C   UNL     1      -0.798  -7.795   4.224  0.00  0.00    +0.102 C 
ATOM     36  C   UNL     1      -2.294  -7.863   4.602  0.00  0.00    +0.032 C 
ATOM     37  C   UNL     1      -2.271  -8.744   5.881  0.00  0.00    +0.030 C 
ATOM     38  C   UNL     1      -0.925  -8.309   6.513  0.00  0.00    +0.160 C 
ATOM     39  O   UNL     1      -0.039  -8.094   5.401  0.00  0.00    -0.378 OA
ENDBRANCH  34  35
ENDBRANCH  26  34
ENDBRANCH   1  26
TORSDOF 8
