REMARK  Name = ZINC12603740
REMARK  11 active torsions:
REMARK  status: ('A' for Active; 'I' for Inactive)
REMARK    1  A    between atoms: C_1  and  C_2
REMARK    2  A    between atoms: C_2  and  N_3
REMARK    3  A    between atoms: C_7  and  S_25
REMARK    4  A    between atoms: C_11  and  S_12
REMARK    5  A    between atoms: S_12  and  C_13
REMARK    6  A    between atoms: C_13  and  C_14
REMARK    7  A    between atoms: C_16  and  O_23
REMARK    8  A    between atoms: C_17  and  O_21
REMARK    9  A    between atoms: O_21  and  C_22
REMARK   10  A    between atoms: O_23  and  C_24
REMARK   11  A    between atoms: S_25  and  N_28
REMARK                            x       y       z     vdW  Elec       q    Type
REMARK                         _______ _______ _______ _____ _____    ______ ____
ROOT
ATOM      1  N   UNL     1      -4.203   3.707   2.432  0.00  0.00    -0.319 N 
ATOM      2  C   UNL     1      -5.281   4.310   1.805  0.00  0.00    +0.070 A 
ATOM      3  C   UNL     1      -6.425   4.948   2.261  0.00  0.00    +0.030 A 
ATOM      4  C   UNL     1      -7.334   5.457   1.356  0.00  0.00    +0.030 A 
ATOM      5  C   UNL     1      -7.111   5.337  -0.007  0.00  0.00    +0.107 A 
ATOM      6  C   UNL     1      -5.981   4.707  -0.478  0.00  0.00    +0.058 A 
ATOM      7  C   UNL     1      -5.050   4.186   0.425  0.00  0.00    +0.092 A 
ATOM      8  N   UNL     1      -3.868   3.533   0.274  0.00  0.00    -0.222 NA
ATOM      9  C   UNL     1      -3.371   3.246   1.452  0.00  0.00    +0.170 A 
ENDROOT
BRANCH   5  10
ATOM     10  S   UNL     1      -8.284   5.994  -1.147  0.00  0.00    +0.056 S 
ATOM     11  O   UNL     1      -8.118   5.274  -2.360  0.00  0.00    -0.153 OA
ATOM     12  O   UNL     1      -9.526   6.056  -0.460  0.00  0.00    -0.153 OA
BRANCH  10  13
ATOM     13  N   UNL     1      -7.838   7.558  -1.460  0.00  0.00    -0.204 NA
ATOM     14  H   UNL     1      -7.052   7.934  -1.032  0.00  0.00    +0.144 HD
ATOM     15  H   UNL     1      -8.363   8.099  -2.071  0.00  0.00    +0.144 HD
ENDBRANCH  10  13
ENDBRANCH   5  10
BRANCH   1  17
ATOM     16  C   UNL     1      -3.219   4.806   4.383  0.00  0.00    +0.027 C 
ATOM     17  C   UNL     1      -3.994   3.588   3.877  0.00  0.00    +0.121 C 
ENDBRANCH   1  17
BRANCH   9  18
ATOM     18  S   UNL     1      -1.852   2.397   1.730  0.00  0.00    -0.083 S 
BRANCH  18  19
ATOM     19  C   UNL     1      -1.333   2.113   0.020  0.00  0.00    +0.113 C 
BRANCH  19  20
ATOM     20  C   UNL     1      -0.017   1.379   0.010  0.00  0.00    -0.020 A 
ATOM     21  C   UNL     1       1.170   2.089   0.002  0.00  0.00    +0.055 A 
ATOM     22  C   UNL     1       2.380   1.416  -0.013  0.00  0.00    +0.162 A 
ATOM     23  C   UNL     1       2.400   0.024  -0.021  0.00  0.00    +0.163 A 
ATOM     24  C   UNL     1       1.208  -0.682  -0.014  0.00  0.00    +0.065 A 
ATOM     25  C   UNL     1       0.002  -0.004   0.002  0.00  0.00    +0.026 A 
ATOM     26 BR   UNL     1      -1.624  -0.970   0.012  0.00  0.00    -0.050 Br
BRANCH  23  27
ATOM     27  O   UNL     1       3.586  -0.641  -0.036  0.00  0.00    -0.491 OA
ATOM     28  C   UNL     1       3.529  -2.068  -0.043  0.00  0.00    +0.277 C 
ENDBRANCH  23  27
BRANCH  22  29
ATOM     29  O   UNL     1       3.548   2.114  -0.021  0.00  0.00    -0.491 OA
ATOM     30  C   UNL     1       3.451   3.539  -0.012  0.00  0.00    +0.277 C 
ENDBRANCH  22  29
ENDBRANCH  19  20
ENDBRANCH  18  19
ENDBRANCH   9  18
TORSDOF 8
