REMARK  Name = ZINC20577433
REMARK  5 active torsions:
REMARK  status: ('A' for Active; 'I' for Inactive)
REMARK    1  A    between atoms: C_1  and  C_2
REMARK    2  A    between atoms: C_2  and  C_3
REMARK    3  A    between atoms: C_6  and  N_9
REMARK    4  A    between atoms: N_23  and  C_26
REMARK    5  A    between atoms: C_26  and  C_27
REMARK                            x       y       z     vdW  Elec       q    Type
REMARK                         _______ _______ _______ _____ _____    ______ ____
ROOT
ATOM      1  N   UNL     1      -0.349   6.044  -1.052  0.00  0.00    -0.234 N 
ATOM      2  C   UNL     1      -1.633   6.305  -0.812  0.00  0.00    +0.243 C 
ATOM      3  O   UNL     1      -2.425   6.456  -1.717  0.00  0.00    -0.273 OA
ATOM      4  C   UNL     1      -2.067   6.408   0.643  0.00  0.00    +0.265 C 
ATOM      5  S   UNL     1      -0.424   6.550   1.476  0.00  0.00    +0.013 S 
ATOM      6  O   UNL     1      -0.366   5.646   2.570  0.00  0.00    -0.171 OA
ATOM      7  O   UNL     1      -0.107   7.921   1.671  0.00  0.00    -0.171 OA
ATOM      8  C   UNL     1       0.561   5.886   0.077  0.00  0.00    +0.263 C 
ATOM      9  C   UNL     1       0.958   4.464   0.330  0.00  0.00    +0.028 A 
ATOM     10  C   UNL     1       0.255   3.301   0.549  0.00  0.00    +0.010 A 
ATOM     11  C   UNL     1       0.930   2.110   0.751  0.00  0.00    +0.001 A 
ATOM     12  C   UNL     1       2.313   2.094   0.745  0.00  0.00    +0.002 A 
ATOM     13  C   UNL     1       3.022   3.256   0.525  0.00  0.00    +0.024 A 
ATOM     14  C   UNL     1       2.351   4.458   0.314  0.00  0.00    +0.044 A 
ATOM     15  N   UNL     1       2.838   5.745   0.071  0.00  0.00    -0.263 N 
ATOM     16  C   UNL     1       1.844   6.644  -0.080  0.00  0.00    +0.271 C 
ATOM     17  O   UNL     1       1.964   7.831  -0.300  0.00  0.00    -0.271 OA
ENDROOT
BRANCH   1  21
ATOM     18  C   UNL     1       1.045   5.689  -4.962  0.00  0.00    -0.048 A 
ATOM     19  C   UNL     1       0.673   4.559  -4.257  0.00  0.00    +0.005 A 
ATOM     20  C   UNL     1       0.211   4.673  -2.961  0.00  0.00    +0.024 A 
ATOM     21  C   UNL     1       0.119   5.925  -2.366  0.00  0.00    +0.039 A 
ATOM     22  C   UNL     1       0.489   7.058  -3.079  0.00  0.00    +0.024 A 
ATOM     23  C   UNL     1       0.956   6.936  -4.372  0.00  0.00    +0.005 A 
BRANCH  18  25
ATOM     24  C   UNL     1       0.372   5.653  -7.348  0.00  0.00    +0.009 C 
ATOM     25  C   UNL     1       1.550   5.560  -6.377  0.00  0.00    +0.032 C 
ENDBRANCH  18  25
ENDBRANCH   1  21
BRANCH  15  26
ATOM     26  C   UNL     1       4.262   6.079  -0.008  0.00  0.00    +0.149 C 
BRANCH  26  27
ATOM     27  C   UNL     1       4.733   5.938  -1.433  0.00  0.00    -0.030 A 
ATOM     28  C   UNL     1       5.234   4.729  -1.878  0.00  0.00    +0.008 A 
ATOM     29  C   UNL     1       5.661   4.598  -3.186  0.00  0.00    +0.038 A 
ATOM     30  C   UNL     1       5.597   5.680  -4.047  0.00  0.00    +0.123 A 
ATOM     31  C   UNL     1       5.100   6.892  -3.598  0.00  0.00    +0.038 A 
ATOM     32  C   UNL     1       4.668   7.020  -2.292  0.00  0.00    +0.008 A 
ATOM     33  F   UNL     1       6.019   5.554  -5.324  0.00  0.00    -0.205 F 
ENDBRANCH  26  27
ENDBRANCH  15  26
TORSDOF 4
