REMARK  Name = ZINC10386019
REMARK  11 active torsions:
REMARK  status: ('A' for Active; 'I' for Inactive)
REMARK    1  A    between atoms: C_1  and  N_2
REMARK    2  A    between atoms: N_2  and  C_3
REMARK    3  A    between atoms: N_2  and  S_4
REMARK    4  A    between atoms: S_4  and  C_7
REMARK    5  A    between atoms: C_10  and  C_13
REMARK    6  A    between atoms: N_15  and  C_16
REMARK    7  A    between atoms: C_16  and  C_17
REMARK    8  A    between atoms: C_20  and  S_22
REMARK    9  A    between atoms: S_22  and  C_23
REMARK   10  A    between atoms: C_23  and  C_24
REMARK   11  A    between atoms: C_23  and  C_30
REMARK                            x       y       z     vdW  Elec       q    Type
REMARK                         _______ _______ _______ _____ _____    ______ ____
ROOT
ATOM      1  C   UNL     1       1.299  -2.612   0.738  0.00  0.00    +0.235 A 
ATOM      2  N   UNL     1       2.454  -2.037   0.568  0.00  0.00    -0.110 NA
ATOM      3  N   UNL     1       2.285  -0.774   0.391  0.00  0.00    -0.101 NA
ATOM      4  C   UNL     1       1.004  -0.497   0.441  0.00  0.00    +0.278 A 
ATOM      5  O   UNL     1       0.354  -1.654   0.668  0.00  0.00    -0.414 OA
ENDROOT
BRANCH   1   6
ATOM      6  C   UNL     1       1.062  -4.081   0.975  0.00  0.00    +0.202 C 
BRANCH   6   9
ATOM      7  C   UNL     1       0.892  -5.608   2.866  0.00  0.00    +0.244 C 
ATOM      8  O   UNL     1       0.703  -6.515   2.079  0.00  0.00    -0.270 OA
ATOM      9  N   UNL     1       1.083  -4.353   2.414  0.00  0.00    -0.303 N 
ATOM     10  H   UNL     1       1.234  -3.629   3.042  0.00  0.00    +0.150 HD
BRANCH   7  14
ATOM     11  C   UNL     1       0.953  -6.396   7.040  0.00  0.00    +0.105 A 
ATOM     12  C   UNL     1       0.737  -7.430   6.147  0.00  0.00    +0.029 A 
ATOM     13  C   UNL     1       0.716  -7.181   4.790  0.00  0.00    +0.015 A 
ATOM     14  C   UNL     1       0.913  -5.882   4.319  0.00  0.00    +0.037 A 
ATOM     15  C   UNL     1       1.137  -4.844   5.225  0.00  0.00    +0.015 A 
ATOM     16  C   UNL     1       1.150  -5.106   6.579  0.00  0.00    +0.029 A 
BRANCH  11  17
ATOM     17  S   UNL     1       0.978  -6.723   8.771  0.00  0.00    +0.060 S 
ATOM     18  O   UNL     1       0.655  -5.500   9.419  0.00  0.00    -0.153 OA
ATOM     19  O   UNL     1       0.227  -7.912   8.970  0.00  0.00    -0.153 OA
BRANCH  17  21
ATOM     20  C   UNL     1       3.454  -6.005   9.590  0.00  0.00    +0.131 C 
ATOM     21  N   UNL     1       2.543  -7.077   9.180  0.00  0.00    -0.183 NA
ATOM     22  C   UNL     1       3.017  -8.462   9.132  0.00  0.00    +0.131 C 
ENDBRANCH  17  21
ENDBRANCH  11  17
ENDBRANCH   7  14
ENDBRANCH   6   9
ENDBRANCH   1   6
BRANCH   4  23
ATOM     23  S   UNL     1       0.271   1.095   0.255  0.00  0.00    -0.053 S 
BRANCH  23  24
ATOM     24  C   UNL     1       1.756   2.096  -0.004  0.00  0.00    +0.116 C 
BRANCH  24  25
ATOM     25  C   UNL     1       2.417   1.691  -1.296  0.00  0.00    -0.030 A 
ATOM     26  C   UNL     1       1.675   1.624  -2.460  0.00  0.00    +0.005 A 
ATOM     27  C   UNL     1       2.282   1.257  -3.647  0.00  0.00    +0.000 A 
ATOM     28  C   UNL     1       3.629   0.947  -3.667  0.00  0.00    +0.000 A 
ATOM     29  C   UNL     1       4.370   1.009  -2.501  0.00  0.00    +0.000 A 
ATOM     30  C   UNL     1       3.764   1.381  -1.316  0.00  0.00    +0.005 A 
ENDBRANCH  24  25
BRANCH  24  31
ATOM     31  C   UNL     1       1.375   3.553  -0.069  0.00  0.00    -0.030 A 
ATOM     32  C   UNL     1       0.378   3.968  -0.933  0.00  0.00    +0.005 A 
ATOM     33  C   UNL     1       0.025   5.303  -0.990  0.00  0.00    +0.000 A 
ATOM     34  C   UNL     1       0.675   6.225  -0.191  0.00  0.00    +0.000 A 
ATOM     35  C   UNL     1       1.675   5.810   0.669  0.00  0.00    +0.000 A 
ATOM     36  C   UNL     1       2.025   4.474   0.730  0.00  0.00    +0.005 A 
ENDBRANCH  24  31
ENDBRANCH  23  24
ENDBRANCH   4  23
TORSDOF 9
