REMARK  Name = ZINC21257649
REMARK  6 active torsions:
REMARK  status: ('A' for Active; 'I' for Inactive)
REMARK    1  A    between atoms: C_1  and  C_2
REMARK    2  A    between atoms: C_2  and  C_3
REMARK    3  A    between atoms: C_2  and  O_4
REMARK    4  A    between atoms: O_4  and  C_5
REMARK    5  A    between atoms: C_8  and  C_11
REMARK    6  A    between atoms: C_16  and  C_21
REMARK                            x       y       z     vdW  Elec       q    Type
REMARK                         _______ _______ _______ _____ _____    ______ ____
ROOT
ATOM      1  C   UNL     1      -0.086  -1.417   5.936  0.00  0.00    +0.136 C 
ATOM      2  C   UNL     1       1.103  -0.876   6.691  0.00  0.00    +0.036 C 
ATOM      3  C   UNL     1       2.280  -1.503   6.862  0.00  0.00    +0.017 C 
ATOM      4  C   UNL     1       3.394  -0.848   7.660  0.00  0.00    +0.059 C 
ATOM      5  C   UNL     1       3.330   0.670   7.498  0.00  0.00    +0.033 C 
ATOM      6  C   UNL     1       1.960   1.136   8.007  0.00  0.00    +0.088 C 
ATOM      7  C   UNL     1       0.895   0.410   7.241  0.00  0.00    +0.163 C 
ATOM      8  O   UNL     1      -0.185   0.947   7.086  0.00  0.00    -0.292 OA
ATOM      9  N   UNL     1       2.575  -2.737   6.378  0.00  0.00    -0.316 N 
ATOM     10  C   UNL     1       2.313  -3.168   5.083  0.00  0.00    +0.052 A 
ATOM     11  C   UNL     1       3.319  -3.546   4.212  0.00  0.00    +0.025 A 
ATOM     12  C   UNL     1       2.984  -4.079   2.978  0.00  0.00    +0.002 A 
ATOM     13  C   UNL     1       1.656  -4.229   2.621  0.00  0.00    +0.002 A 
ATOM     14  C   UNL     1       0.649  -3.830   3.483  0.00  0.00    +0.025 A 
ATOM     15  C   UNL     1       0.982  -3.280   4.710  0.00  0.00    +0.049 A 
ATOM     16  N   UNL     1       0.005  -2.821   5.593  0.00  0.00    -0.331 N 
ATOM     17  H   UNL     1       3.059  -3.481   7.028  0.00  0.00    +0.152 HD
ATOM     18  H   UNL     1      -0.702  -3.541   6.029  0.00  0.00    +0.147 HD
ENDROOT
BRANCH   5  19
ATOM     19  C   UNL     1       4.423   1.317   8.309  0.00  0.00    -0.025 A 
ATOM     20  C   UNL     1       4.468   1.134   9.679  0.00  0.00    +0.005 A 
ATOM     21  C   UNL     1       5.471   1.727  10.422  0.00  0.00    +0.000 A 
ATOM     22  C   UNL     1       6.429   2.504   9.797  0.00  0.00    +0.001 A 
ATOM     23  C   UNL     1       6.384   2.688   8.428  0.00  0.00    +0.020 A 
ATOM     24  C   UNL     1       5.384   2.090   7.683  0.00  0.00    +0.044 A 
ATOM     25 CL   UNL     1       5.332   2.314   5.962  0.00  0.00    -0.083 Cl
ENDBRANCH   5  19
BRANCH   1  29
ATOM     26  C   UNL     1      -0.538   0.832   2.330  0.00  0.00    +0.121 A 
ATOM     27  C   UNL     1      -1.509   0.900   3.318  0.00  0.00    +0.046 A 
ATOM     28  C   UNL     1      -1.364   0.167   4.480  0.00  0.00    +0.009 A 
ATOM     29  C   UNL     1      -0.246  -0.624   4.665  0.00  0.00    -0.023 A 
ATOM     30  C   UNL     1       0.727  -0.690   3.684  0.00  0.00    +0.009 A 
ATOM     31  C   UNL     1       0.583   0.036   2.517  0.00  0.00    +0.046 A 
BRANCH  26  32
ATOM     32  O   UNL     1      -0.682   1.547   1.184  0.00  0.00    -0.489 OA
BRANCH  32  34
ATOM     33  C   UNL     1      -3.034   1.651   0.639  0.00  0.00    +0.051 C 
ATOM     34  C   UNL     1      -1.802   2.429   1.106  0.00  0.00    +0.167 C 
ATOM     35  C   UNL     1      -1.500   3.551   0.110  0.00  0.00    +0.051 C 
ENDBRANCH  32  34
ENDBRANCH  26  32
ENDBRANCH   1  29
TORSDOF 4
