REMARK  Name = ZINC08915316
REMARK  5 active torsions:
REMARK  status: ('A' for Active; 'I' for Inactive)
REMARK    1  A    between atoms: C_6  and  C_7
REMARK    2  A    between atoms: C_7  and  C_9
REMARK    3  A    between atoms: C_11  and  C_23
REMARK    4  A    between atoms: C_17  and  C_18
REMARK    5  A    between atoms: C_17  and  O_22
REMARK                            x       y       z     vdW  Elec       q    Type
REMARK                         _______ _______ _______ _____ _____    ______ ____
ROOT
ATOM      1  C   UNL     1      -1.895  -1.762  -0.236  0.00  0.00    +0.144 C 
ATOM      2  C   UNL     1      -2.474  -2.806   0.725  0.00  0.00    +0.120 C 
ATOM      3  N   UNL     1      -3.822  -3.169   0.285  0.00  0.00    -0.292 N 
ATOM      4  C   UNL     1      -4.172  -3.114  -1.009  0.00  0.00    +0.302 C 
ATOM      5  O   UNL     1      -5.301  -3.436  -1.323  0.00  0.00    -0.253 OA
ATOM      6  N   UNL     1      -3.325  -2.716  -1.970  0.00  0.00    -0.264 N 
ATOM      7  C   UNL     1      -1.945  -2.324  -1.661  0.00  0.00    +0.243 C 
ATOM      8  H   UNL     1      -4.475  -3.456   0.942  0.00  0.00    +0.151 HD
ATOM      9  H   UNL     1      -3.631  -2.686  -2.890  0.00  0.00    +0.153 HD
ENDROOT
BRANCH   2  10
ATOM     10  C   UNL     1      -2.535  -2.230   2.117  0.00  0.00    -0.025 A 
ATOM     11  C   UNL     1      -3.671  -1.563   2.539  0.00  0.00    +0.007 A 
ATOM     12  C   UNL     1      -3.728  -1.035   3.815  0.00  0.00    +0.022 A 
ATOM     13  C   UNL     1      -2.649  -1.173   4.670  0.00  0.00    +0.059 A 
ATOM     14  C   UNL     1      -1.512  -1.841   4.247  0.00  0.00    +0.060 A 
ATOM     15  C   UNL     1      -1.459  -2.374   2.971  0.00  0.00    +0.027 A 
ATOM     16 CL   UNL     1      -0.158  -2.014   5.319  0.00  0.00    -0.082 Cl
ATOM     17 CL   UNL     1      -2.720  -0.508   6.272  0.00  0.00    -0.082 Cl
ENDBRANCH   2  10
BRANCH   7  18
ATOM     18  C   UNL     1      -1.032  -3.549  -1.759  0.00  0.00    +0.436 C 
ATOM     19  F   UNL     1      -1.465  -4.527  -0.857  0.00  0.00    -0.166 F 
ATOM     20  F   UNL     1      -1.079  -4.061  -3.060  0.00  0.00    -0.166 F 
ATOM     21  F   UNL     1       0.281  -3.178  -1.450  0.00  0.00    -0.166 F 
ENDBRANCH   7  18
BRANCH   1  22
ATOM     22  C   UNL     1      -2.712  -0.498  -0.162  0.00  0.00    +0.173 C 
ATOM     23  O   UNL     1      -3.910  -0.560   0.018  0.00  0.00    -0.292 OA
BRANCH  22  29
ATOM     24  C   UNL     1      -2.813   1.986  -0.240  0.00  0.00    +0.013 A 
ATOM     25  C   UNL     1      -2.192   3.209  -0.378  0.00  0.00    +0.020 A 
ATOM     26  C   UNL     1      -0.823   3.276  -0.583  0.00  0.00    +0.041 A 
ATOM     27  C   UNL     1      -0.069   2.116  -0.651  0.00  0.00    +0.020 A 
ATOM     28  C   UNL     1      -0.676   0.886  -0.516  0.00  0.00    +0.013 A 
ATOM     29  C   UNL     1      -2.057   0.811  -0.308  0.00  0.00    +0.018 A 
ATOM     30 CL   UNL     1      -0.050   4.821  -0.755  0.00  0.00    -0.084 Cl
ENDBRANCH  22  29
ENDBRANCH   1  22
BRANCH   7  31
ATOM     31  O   UNL     1      -1.507  -1.325  -2.584  0.00  0.00    -0.364 OA
ATOM     32  H   UNL     1      -1.513  -1.613  -3.507  0.00  0.00    +0.212 HD
ENDBRANCH   7  31
TORSDOF 5
