REMARK  Name = ZINC23597536
REMARK  9 active torsions:
REMARK  status: ('A' for Active; 'I' for Inactive)
REMARK    1  A    between atoms: C_1  and  O_2
REMARK    2  A    between atoms: O_2  and  C_3
REMARK    3  A    between atoms: C_6  and  O_31
REMARK    4  A    between atoms: C_7  and  C_9
REMARK    5  A    between atoms: C_9  and  O_11
REMARK    6  A    between atoms: O_11  and  C_12
REMARK    7  A    between atoms: C_12  and  C_13
REMARK    8  A    between atoms: C_16  and  C_26
REMARK    9  A    between atoms: C_19  and  C_21
REMARK                            x       y       z     vdW  Elec       q    Type
REMARK                         _______ _______ _______ _____ _____    ______ ____
ROOT
ATOM      1  C   UNL     1      -0.185  -6.923  -0.005  0.00  0.00    +0.273 C 
ATOM      2  O   UNL     1       0.808  -6.225  -0.012  0.00  0.00    -0.270 OA
ATOM      3  N   UNL     1      -0.066  -8.265  -0.007  0.00  0.00    -0.182 N 
ATOM      4  C   UNL     1       1.203  -9.011  -0.012  0.00  0.00    +0.144 C 
ATOM      5  C   UNL     1       0.755 -10.486  -0.012  0.00  0.00    +0.088 C 
ATOM      6  C   UNL     1      -0.755 -10.410  -0.007  0.00  0.00    +0.075 C 
ATOM      7  N   UNL     1      -1.123  -9.172   0.001  0.00  0.00    -0.180 NA
ENDROOT
BRANCH   6   8
ATOM      8  C   UNL     1      -1.661 -11.563  -0.006  0.00  0.00    +0.035 A 
ATOM      9  C   UNL     1      -3.045 -11.585  -0.008  0.00  0.00    +0.017 A 
ATOM     10  C   UNL     1      -3.679 -12.806  -0.006  0.00  0.00    +0.008 A 
ATOM     11  C   UNL     1      -2.934 -13.942  -0.004  0.00  0.00    +0.046 A 
ATOM     12  S   UNL     1      -1.267 -13.304  -0.010  0.00  0.00    -0.095 S 
ENDBRANCH   6   8
BRANCH   4  13
ATOM     13  C   UNL     1       2.007  -8.698   1.224  0.00  0.00    +0.013 A 
ATOM     14  C   UNL     1       3.346  -8.530   1.351  0.00  0.00    +0.013 A 
ATOM     15  C   UNL     1       3.870  -8.244   2.598  0.00  0.00    +0.008 A 
ATOM     16  C   UNL     1       3.030  -8.141   3.656  0.00  0.00    +0.045 A 
ATOM     17  S   UNL     1       1.442  -8.446   2.899  0.00  0.00    -0.100 S 
ENDBRANCH   4  13
BRANCH   1  18
ATOM     18  C   UNL     1      -1.551  -6.287   0.007  0.00  0.00    +0.330 C 
BRANCH  18  19
ATOM     19  O   UNL     1      -1.416  -4.865   0.007  0.00  0.00    -0.452 OA
BRANCH  19  20
ATOM     20  C   UNL     1      -2.553  -4.142   0.016  0.00  0.00    +0.343 C 
ATOM     21  O   UNL     1      -3.630  -4.704   0.025  0.00  0.00    -0.245 OA
BRANCH  20  26
ATOM     22  C   UNL     1      -1.201  -0.638   0.010  0.00  0.00    +0.121 A 
ATOM     23  C   UNL     1      -2.376   0.105   0.020  0.00  0.00    +0.049 A 
ATOM     24  C   UNL     1      -3.602  -0.529   0.028  0.00  0.00    +0.050 A 
ATOM     25  C   UNL     1      -3.670  -1.914   0.027  0.00  0.00    +0.131 A 
ATOM     26  C   UNL     1      -2.490  -2.669   0.017  0.00  0.00    +0.104 A 
ATOM     27  C   UNL     1      -1.252  -2.019   0.003  0.00  0.00    +0.064 A 
BRANCH  22  29
ATOM     28  C   UNL     1      -0.017   1.425   0.010  0.00  0.00    +0.277 C 
ATOM     29  O   UNL     1       0.002  -0.004   0.002  0.00  0.00    -0.495 OA
ENDBRANCH  22  29
BRANCH  25  30
ATOM     30  O   UNL     1      -4.876  -2.536   0.036  0.00  0.00    -0.506 OA
ATOM     31  H   UNL     1      -5.233  -2.715  -0.845  0.00  0.00    +0.292 HD
ENDBRANCH  25  30
ENDBRANCH  20  26
ENDBRANCH  19  20
ENDBRANCH  18  19
ENDBRANCH   1  18
TORSDOF 8
