REMARK  Name = ZINC09542249
REMARK  4 active torsions:
REMARK  status: ('A' for Active; 'I' for Inactive)
REMARK    1  A    between atoms: C_3  and  C_8
REMARK    2  A    between atoms: C_11  and  C_25
REMARK    3  A    between atoms: C_14  and  C_16
REMARK    4  A    between atoms: C_30  and  O_31
REMARK                            x       y       z     vdW  Elec       q    Type
REMARK                         _______ _______ _______ _____ _____    ______ ____
ROOT
ATOM      1  C   UNL     1       3.672   2.186  -0.021  0.00  0.00    +0.081 C 
ATOM      2  N   UNL     1       4.712   1.393   0.644  0.00  0.00    +0.401 N 
ATOM      3  C   UNL     1       4.386   1.284   2.075  0.00  0.00    -0.028 C 
ATOM      4  C   UNL     1       4.549   2.667   2.712  0.00  0.00    +0.044 C 
ATOM      5  C   UNL     1       3.848   3.692   1.864  0.00  0.00    +0.040 C 
ATOM      6  N   UNL     1       3.474   3.458   0.662  0.00  0.00    -0.299 NA
ATOM      7  H   UNL     1       4.748   0.472   0.234  0.00  0.00    -0.081 HD
ATOM      8  H   UNL     1       5.605   1.849   0.534  0.00  0.00    -0.081 HD
ENDROOT
BRANCH   5   9
ATOM      9  C   UNL     1       3.579   5.022   2.442  0.00  0.00    -0.001 A 
ATOM     10  C   UNL     1       3.978   5.312   3.749  0.00  0.00    +0.013 A 
ATOM     11  C   UNL     1       3.726   6.556   4.286  0.00  0.00    +0.050 A 
ATOM     12  C   UNL     1       3.075   7.523   3.533  0.00  0.00    +0.166 A 
ATOM     13  C   UNL     1       2.674   7.240   2.228  0.00  0.00    +0.167 A 
ATOM     14  C   UNL     1       2.929   5.997   1.681  0.00  0.00    +0.059 A 
ATOM     15  O   UNL     1       2.063   8.347   1.710  0.00  0.00    -0.453 OA
ATOM     16  C   UNL     1       1.731   9.168   2.845  0.00  0.00    +0.466 C 
ATOM     17  O   UNL     1       2.716   8.805   3.830  0.00  0.00    -0.453 OA
ENDBRANCH   5   9
BRANCH   1  20
ATOM     18  C   UNL     1      -0.017   1.377   0.010  0.00  0.00    +0.003 A 
ATOM     19  C   UNL     1       1.171   2.086   0.002  0.00  0.00    +0.004 A 
ATOM     20  C   UNL     1       2.378   1.413  -0.013  0.00  0.00    -0.038 A 
ATOM     21  C   UNL     1       2.399   0.030  -0.021  0.00  0.00    +0.042 A 
ATOM     22  C   UNL     1       1.211  -0.679  -0.013  0.00  0.00    +0.124 A 
ATOM     23  C   UNL     1       0.002  -0.004   0.002  0.00  0.00    +0.038 A 
ATOM     24  F   UNL     1       1.230  -2.030  -0.022  0.00  0.00    -0.205 F 
ENDBRANCH   1  20
BRANCH   3  25
ATOM     25  C   UNL     1       5.324   0.306   2.736  0.00  0.00    -0.018 A 
ATOM     26  C   UNL     1       6.573   0.072   2.194  0.00  0.00    +0.020 A 
ATOM     27  C   UNL     1       7.434  -0.825   2.800  0.00  0.00    +0.018 A 
ATOM     28  C   UNL     1       7.046  -1.491   3.949  0.00  0.00    +0.019 A 
ATOM     29  C   UNL     1       5.798  -1.260   4.494  0.00  0.00    +0.047 A 
ATOM     30  C   UNL     1       4.935  -0.356   3.891  0.00  0.00    +0.119 A 
ATOM     31 BR   UNL     1       9.143  -1.143   2.056  0.00  0.00    -0.050 Br
BRANCH  30  32
ATOM     32  O   UNL     1       3.709  -0.124   4.429  0.00  0.00    -0.507 OA
ATOM     33  H   UNL     1       3.016  -0.711   4.096  0.00  0.00    +0.292 HD
ENDBRANCH  30  32
ENDBRANCH   3  25
TORSDOF 4
