REMARK  Name = ZINC67095327
REMARK  14 active torsions:
REMARK  status: ('A' for Active; 'I' for Inactive)
REMARK    1  A    between atoms: C_1  and  C_2
REMARK    2  A    between atoms: C_2  and  C_3
REMARK    3  A    between atoms: C_2  and  C_4
REMARK    4  A    between atoms: C_4  and  C_5
REMARK    5  A    between atoms: C_5  and  C_7
REMARK    6  A    between atoms: C_5  and  N_23
REMARK    7  A    between atoms: C_7  and  N_8
REMARK    8  A    between atoms: N_8  and  C_9
REMARK    9  A    between atoms: C_12  and  S_19
REMARK   10  A    between atoms: C_14  and  S_15
REMARK   11  A    between atoms: S_15  and  C_18
REMARK   12  A    between atoms: S_19  and  N_22
REMARK   13  A    between atoms: N_23  and  C_24
REMARK   14  A    between atoms: N_23  and  C_25
REMARK                            x       y       z     vdW  Elec       q    Type
REMARK                         _______ _______ _______ _____ _____    ______ ____
ROOT
ATOM      1  C   UNL     1      -4.021  -5.294   0.230  0.00  0.00    +0.052 A 
ATOM      2  C   UNL     1      -5.321  -4.813   0.323  0.00  0.00    +0.027 A 
ATOM      3  C   UNL     1      -6.387  -5.674   0.155  0.00  0.00    +0.030 A 
ATOM      4  C   UNL     1      -6.162  -7.014  -0.105  0.00  0.00    +0.107 A 
ATOM      5  C   UNL     1      -4.869  -7.496  -0.198  0.00  0.00    +0.057 A 
ATOM      6  C   UNL     1      -3.798  -6.639  -0.036  0.00  0.00    +0.110 A 
ENDROOT
BRANCH   6   7
ATOM      7  S   UNL     1      -2.151  -7.253  -0.162  0.00  0.00    -0.004 S 
ATOM      8  O   UNL     1      -1.470  -6.695   0.953  0.00  0.00    -0.170 OA
ATOM      9  O   UNL     1      -2.297  -8.660  -0.292  0.00  0.00    -0.170 OA
ATOM     10  C   UNL     1      -1.507  -6.547  -1.704  0.00  0.00    +0.200 C 
ENDBRANCH   6   7
BRANCH   4  11
ATOM     11  S   UNL     1      -7.526  -8.109  -0.319  0.00  0.00    +0.056 S 
ATOM     12  O   UNL     1      -7.052  -9.413  -0.011  0.00  0.00    -0.153 OA
ATOM     13  O   UNL     1      -8.629  -7.520   0.356  0.00  0.00    -0.153 OA
BRANCH  11  14
ATOM     14  N   UNL     1      -7.904  -8.112  -1.931  0.00  0.00    -0.204 NA
ATOM     15  H   UNL     1      -8.286  -8.905  -2.338  0.00  0.00    +0.144 HD
ATOM     16  H   UNL     1      -7.742  -7.321  -2.468  0.00  0.00    +0.144 HD
ENDBRANCH  11  14
ENDBRANCH   4  11
BRANCH   1  17
ATOM     17  N   UNL     1      -2.939  -4.426   0.400  0.00  0.00    -0.344 N 
ATOM     18  H   UNL     1      -2.037  -4.734   0.220  0.00  0.00    +0.146 HD
BRANCH  17  19
ATOM     19  C   UNL     1      -3.168  -3.050   0.848  0.00  0.00    +0.086 C 
BRANCH  19  20
ATOM     20  C   UNL     1      -1.848  -2.277   0.815  0.00  0.00    -0.052 C 
BRANCH  20  21
ATOM     21  N   UNL     1      -1.467  -2.019  -0.580  0.00  0.00    +0.379 N 
ATOM     22  C   UNL     1      -1.311  -3.295  -1.290  0.00  0.00    -0.096 C 
ATOM     23  C   UNL     1      -2.512  -1.220  -1.234  0.00  0.00    -0.096 C 
ATOM     24  H   UNL     1      -0.594  -1.513  -0.602  0.00  0.00    -0.082 HD
ENDBRANCH  20  21
BRANCH  20  25
ATOM     25  C   UNL     1      -2.018  -0.947   1.552  0.00  0.00    -0.011 C 
BRANCH  25  27
ATOM     26  C   UNL     1      -0.861   1.151   2.260  0.00  0.00    +0.007 C 
ATOM     27  C   UNL     1      -0.672  -0.221   1.611  0.00  0.00    -0.019 C 
ATOM     28  C   UNL     1       0.316  -1.045   2.438  0.00  0.00    +0.007 C 
ENDBRANCH  25  27
ENDBRANCH  20  25
ENDBRANCH  19  20
ENDBRANCH  17  19
ENDBRANCH   1  17
TORSDOF 9
