REMARK  Name = ZINC08589887
REMARK  10 active torsions:
REMARK  status: ('A' for Active; 'I' for Inactive)
REMARK    1  A    between atoms: C_1  and  C_2
REMARK    2  A    between atoms: C_7  and  C_8
REMARK    3  A    between atoms: N_10  and  C_11
REMARK    4  A    between atoms: C_12  and  C_25
REMARK    5  A    between atoms: C_17  and  C_21
REMARK    6  A    between atoms: C_21  and  C_22
REMARK    7  A    between atoms: C_21  and  C_23
REMARK    8  A    between atoms: C_21  and  C_24
REMARK    9  A    between atoms: N_27  and  C_28
REMARK   10  A    between atoms: C_28  and  C_29
REMARK                            x       y       z     vdW  Elec       q    Type
REMARK                         _______ _______ _______ _____ _____    ______ ____
ROOT
ATOM      1  C   UNL     1       5.279  -0.719   4.038  0.00  0.00    +0.085 A 
ATOM      2  C   UNL     1       4.852   0.471   3.467  0.00  0.00    +0.069 A 
ATOM      3  C   UNL     1       4.933   1.673   4.278  0.00  0.00    -0.023 A 
ATOM      4  C   UNL     1       5.431   1.496   5.521  0.00  0.00    -0.004 A 
ATOM      5  S   UNL     1       5.789  -0.235   5.622  0.00  0.00    -0.077 S 
ATOM      6  C   UNL     1       5.632   2.543   6.572  0.00  0.00    +0.046 C 
ATOM      7  C   UNL     1       5.537   3.923   5.904  0.00  0.00    -0.000 C 
ATOM      8  C   UNL     1       4.291   3.956   5.014  0.00  0.00    +0.009 C 
ATOM      9  C   UNL     1       4.497   3.052   3.797  0.00  0.00    +0.037 C 
ENDROOT
BRANCH   1  12
ATOM     10  C   UNL     1       5.752  -3.033   4.194  0.00  0.00    +0.249 C 
ATOM     11  O   UNL     1       6.148  -2.866   5.331  0.00  0.00    -0.270 OA
ATOM     12  N   UNL     1       5.296  -1.986   3.478  0.00  0.00    -0.275 N 
ATOM     13  H   UNL     1       4.980  -2.120   2.571  0.00  0.00    +0.156 HD
BRANCH  10  20
ATOM     14  C   UNL     1       6.970  -5.222   5.642  0.00  0.00    +0.044 C 
ATOM     15  C   UNL     1       6.355  -5.448   4.285  0.00  0.00    -0.038 A 
ATOM     16  C   UNL     1       6.368  -6.708   3.722  0.00  0.00    +0.004 A 
ATOM     17  C   UNL     1       5.804  -6.918   2.477  0.00  0.00    +0.000 A 
ATOM     18  C   UNL     1       5.222  -5.868   1.788  0.00  0.00    +0.001 A 
ATOM     19  C   UNL     1       5.197  -4.605   2.342  0.00  0.00    +0.013 A 
ATOM     20  C   UNL     1       5.770  -4.385   3.596  0.00  0.00    +0.040 A 
ENDBRANCH  10  20
ENDBRANCH   1  12
BRANCH   7  21
ATOM     21  C   UNL     1       5.429   5.007   6.979  0.00  0.00    -0.035 C 
ATOM     22  C   UNL     1       6.667   4.960   7.877  0.00  0.00    +0.011 C 
ATOM     23  C   UNL     1       5.335   6.380   6.310  0.00  0.00    +0.011 C 
ATOM     24  C   UNL     1       4.176   4.764   7.823  0.00  0.00    +0.011 C 
ENDBRANCH   7  21
BRANCH   2  25
ATOM     25  C   UNL     1       4.332   0.513   2.096  0.00  0.00    +0.247 C 
ATOM     26  O   UNL     1       5.089   0.710   1.164  0.00  0.00    -0.270 OA
ATOM     27  N   UNL     1       3.015   0.333   1.869  0.00  0.00    -0.304 N 
ATOM     28  H   UNL     1       2.412   0.176   2.613  0.00  0.00    +0.149 HD
BRANCH  27  29
ATOM     29  C   UNL     1       2.496   0.374   0.500  0.00  0.00    +0.179 C 
BRANCH  29  30
ATOM     30  C   UNL     1       1.006   0.146   0.521  0.00  0.00    +0.122 A 
ATOM     31  C   UNL     1       0.066   1.102   0.627  0.00  0.00    +0.046 A 
ATOM     32  C   UNL     1      -1.188   0.447   0.607  0.00  0.00    +0.041 A 
ATOM     33  C   UNL     1      -0.938  -0.870   0.489  0.00  0.00    +0.195 A 
ATOM     34  O   UNL     1       0.393  -1.046   0.438  0.00  0.00    -0.466 OA
ENDBRANCH  29  30
ENDBRANCH  27  29
ENDBRANCH   2  25
TORSDOF 6
