REMARK  Name = ZINC00632747
REMARK  3 active torsions:
REMARK  status: ('A' for Active; 'I' for Inactive)
REMARK    1  A    between atoms: C_3  and  C_9
REMARK    2  A    between atoms: C_22  and  N_26
REMARK    3  A    between atoms: C_23  and  C_24
REMARK                            x       y       z     vdW  Elec       q    Type
REMARK                         _______ _______ _______ _____ _____    ______ ____
ROOT
ATOM      1  C   UNL     1      -2.513   0.979   0.019  0.00  0.00    +0.106 C 
ATOM      2  C   UNL     1      -2.580   0.119   1.252  0.00  0.00    +0.090 A 
ATOM      3  C   UNL     1      -2.881   0.704   2.497  0.00  0.00    +0.262 A 
ATOM      4  O   UNL     1      -3.088   1.903   2.577  0.00  0.00    -0.267 OA
ATOM      5  N   UNL     1      -2.939  -0.070   3.598  0.00  0.00    -0.275 N 
ATOM      6  H   UNL     1      -3.153   0.342   4.484  0.00  0.00    +0.173 HD
ATOM      7  C   UNL     1      -2.711  -1.393   3.513  0.00  0.00    +0.329 A 
ATOM      8  O   UNL     1      -2.768  -2.077   4.517  0.00  0.00    -0.247 OA
ATOM      9  N   UNL     1      -2.421  -1.972   2.333  0.00  0.00    -0.278 N 
ATOM     10  H   UNL     1      -2.255  -2.957   2.292  0.00  0.00    +0.173 HD
ATOM     11  C   UNL     1      -2.352  -1.219   1.185  0.00  0.00    +0.214 A 
ATOM     12  O   UNL     1      -2.060  -1.820   0.016  0.00  0.00    -0.425 OA
ATOM     13  C   UNL     1      -2.357  -1.213  -1.147  0.00  0.00    +0.200 C 
ATOM     14  C   UNL     1      -2.584   0.121  -1.214  0.00  0.00    +0.098 C 
ENDROOT
BRANCH   1  17
ATOM     15  C   UNL     1       1.175   1.783   0.000  0.00  0.00    +0.020 A 
ATOM     16  C   UNL     1      -0.013   1.076   0.008  0.00  0.00    +0.007 A 
ATOM     17  C   UNL     1      -1.219   1.750   0.017  0.00  0.00    -0.016 A 
ATOM     18  C   UNL     1      -1.238   3.134   0.031  0.00  0.00    +0.046 A 
ATOM     19  C   UNL     1      -0.050   3.842   0.023  0.00  0.00    +0.040 A 
ATOM     20  C   UNL     1       1.157   3.166   0.008  0.00  0.00    +0.042 A 
ATOM     21 CL   UNL     1       2.649   4.054  -0.003  0.00  0.00    -0.083 Cl
ATOM     22 CL   UNL     1      -2.753   3.981   0.049  0.00  0.00    -0.083 Cl
ENDBRANCH   1  17
BRANCH  13  23
ATOM     23  N   UNL     1      -2.431  -1.963  -2.294  0.00  0.00    -0.328 N 
ATOM     24  H   UNL     1      -2.644  -1.538  -3.139  0.00  0.00    +0.145 HD
ATOM     25  H   UNL     1      -2.270  -2.919  -2.259  0.00  0.00    +0.145 HD
ENDBRANCH  13  23
BRANCH  14  26
ATOM     26  C   UNL     1      -2.897   0.721  -2.476  0.00  0.00    +0.101 C 
ATOM     27  N   UNL     1      -3.145   1.198  -3.477  0.00  0.00    -0.191 NA
ENDBRANCH  14  26
TORSDOF 3
