REMARK  Name = ZINC02645900
REMARK  6 active torsions:
REMARK  status: ('A' for Active; 'I' for Inactive)
REMARK    1  A    between atoms: C_7  and  C_11
REMARK    2  A    between atoms: C_11  and  C_12
REMARK    3  A    between atoms: C_12  and  C_14
REMARK    4  A    between atoms: C_12  and  N_27
REMARK    5  A    between atoms: N_19  and  C_22
REMARK    6  A    between atoms: C_28  and  C_30
REMARK                            x       y       z     vdW  Elec       q    Type
REMARK                         _______ _______ _______ _____ _____    ______ ____
ROOT
ATOM      1  C   UNL     1      -4.990   1.630   0.034  0.00  0.00    +0.164 C 
ENDROOT
BRANCH   1   2
ATOM      2  C   UNL     1      -5.222   0.797  -1.200  0.00  0.00    +0.236 C 
ATOM      3  O   UNL     1      -4.277   0.338  -1.807  0.00  0.00    -0.274 OA
ATOM      4  N   UNL     1      -6.478   0.561  -1.629  0.00  0.00    -0.297 N 
ATOM      5  C   UNL     1      -7.637   1.103  -0.904  0.00  0.00    +0.127 C 
ATOM      6  C   UNL     1      -8.537   1.835  -1.912  0.00  0.00    +0.125 C 
ATOM      7  N   UNL     1      -8.866   0.925  -3.017  0.00  0.00    -0.314 N 
ATOM      8  C   UNL     1      -7.661   0.530  -3.760  0.00  0.00    +0.125 C 
ATOM      9  C   UNL     1      -6.725  -0.250  -2.831  0.00  0.00    +0.127 C 
BRANCH   7  10
ATOM     10  C   UNL     1      -9.810   1.492  -3.865  0.00  0.00    +0.099 A 
ATOM     11  C   UNL     1     -11.025   1.931  -3.348  0.00  0.00    +0.042 A 
ATOM     12  C   UNL     1     -11.956   2.494  -4.203  0.00  0.00    +0.005 A 
ATOM     13  C   UNL     1     -11.639   2.598  -5.552  0.00  0.00    +0.018 A 
ATOM     14  C   UNL     1     -10.415   2.141  -5.996  0.00  0.00    +0.084 A 
ATOM     15  N   UNL     1      -9.474   1.589  -5.184  0.00  0.00    -0.350 N 
ATOM     16  H   UNL     1      -8.567   1.265  -5.541  0.00  0.00    +0.166 HD
ENDBRANCH   7  10
ENDBRANCH   1   2
BRANCH   1  17
ATOM     17  N   UNL     1      -3.616   2.137   0.030  0.00  0.00    -0.299 N 
ATOM     18  C   UNL     1      -2.580   1.276   0.021  0.00  0.00    +0.251 C 
ATOM     19  O   UNL     1      -2.786   0.076   0.015  0.00  0.00    -0.270 OA
ATOM     20  H   UNL     1      -3.452   3.093   0.035  0.00  0.00    +0.150 HD
BRANCH  18  21
ATOM     21  C   UNL     1      -1.205   1.783   0.017  0.00  0.00    +0.074 A 
ATOM     22  C   UNL     1      -0.013   1.076   0.008  0.00  0.00    +0.021 A 
ATOM     23  C   UNL     1       1.149   1.808   0.001  0.00  0.00    +0.008 A 
ATOM     24  C   UNL     1       1.077   3.165   0.008  0.00  0.00    +0.046 A 
ATOM     25  S   UNL     1      -0.629   3.471   0.026  0.00  0.00    -0.092 S 
ENDBRANCH  18  21
ENDBRANCH   1  17
BRANCH   1  26
ATOM     26  C   UNL     1      -5.214   0.770   1.280  0.00  0.00    +0.069 C 
BRANCH  26  33
ATOM     27  C   UNL     1      -8.261   3.502   3.566  0.00  0.00    +0.001 A 
ATOM     28  C   UNL     1      -7.704   4.120   4.677  0.00  0.00    +0.002 A 
ATOM     29  C   UNL     1      -6.387   3.902   5.017  0.00  0.00    +0.026 A 
ATOM     30  C   UNL     1      -5.602   3.062   4.235  0.00  0.00    +0.047 A 
ATOM     31  C   UNL     1      -6.170   2.439   3.108  0.00  0.00    +0.003 A 
ATOM     32  C   UNL     1      -7.509   2.669   2.786  0.00  0.00    +0.010 A 
ATOM     33  C   UNL     1      -5.103   1.632   2.511  0.00  0.00    -0.020 A 
ATOM     34  C   UNL     1      -4.007   1.810   3.265  0.00  0.00    +0.087 A 
ATOM     35  N   UNL     1      -4.286   2.661   4.300  0.00  0.00    -0.360 N 
ATOM     36  H   UNL     1      -3.652   2.940   4.978  0.00  0.00    +0.165 HD
ENDBRANCH  26  33
ENDBRANCH   1  26
TORSDOF 6
