REMARK  Name = ZINC08758491
REMARK  6 active torsions:
REMARK  status: ('A' for Active; 'I' for Inactive)
REMARK    1  A    between atoms: C_5  and  N_7
REMARK    2  A    between atoms: C_8  and  C_10
REMARK    3  A    between atoms: C_10  and  O_11
REMARK    4  A    between atoms: O_11  and  C_12
REMARK    5  A    between atoms: C_12  and  C_14
REMARK    6  A    between atoms: C_19  and  N_20
REMARK                            x       y       z     vdW  Elec       q    Type
REMARK                         _______ _______ _______ _____ _____    ______ ____
ROOT
ATOM      1  O   UNL     1       2.414   5.195   0.126  0.00  0.00    -0.452 OA
ENDROOT
BRANCH   1   2
ATOM      2  C   UNL     1       2.416   3.851   0.028  0.00  0.00    +0.341 C 
ATOM      3  O   UNL     1       3.468   3.250  -0.067  0.00  0.00    -0.245 OA
BRANCH   2   4
ATOM      4  C   UNL     1       1.143   3.110   0.038  0.00  0.00    +0.081 A 
ATOM      5  C   UNL     1      -0.073   3.800   0.037  0.00  0.00    +0.032 A 
ATOM      6  C   UNL     1      -1.260   3.101   0.046  0.00  0.00    +0.019 A 
ATOM      7  C   UNL     1      -1.256   1.714   0.051  0.00  0.00    +0.017 A 
ATOM      8  C   UNL     1      -0.065   1.018   0.058  0.00  0.00    +0.024 A 
ATOM      9  C   UNL     1       1.143   1.706   0.048  0.00  0.00    +0.039 A 
ATOM     10 BR   UNL     1      -2.903   4.037   0.044  0.00  0.00    -0.050 Br
BRANCH   9  11
ATOM     11  N   UNL     1       2.343   1.008   0.049  0.00  0.00    -0.357 N 
ATOM     12  H   UNL     1       2.378   0.103  -0.299  0.00  0.00    +0.142 HD
ATOM     13  H   UNL     1       3.147   1.425   0.397  0.00  0.00    +0.142 HD
ENDBRANCH   9  11
ENDBRANCH   2   4
ENDBRANCH   1   2
BRANCH   1  14
ATOM     14  C   UNL     1       3.705   5.859   0.110  0.00  0.00    +0.328 C 
BRANCH  14  16
ATOM     15  N   UNL     1       4.572   8.172   0.234  0.00  0.00    -0.282 N 
ATOM     16  C   UNL     1       3.505   7.348   0.227  0.00  0.00    +0.255 C 
ATOM     17  O   UNL     1       2.385   7.805   0.316  0.00  0.00    -0.272 OA
ATOM     18  H   UNL     1       5.461   7.816   0.082  0.00  0.00    +0.155 HD
BRANCH  15  23
ATOM     19  C   UNL     1       3.119  11.347   1.389  0.00  0.00    +0.002 A 
ATOM     20  C   UNL     1       4.047  12.251   0.907  0.00  0.00    +0.001 A 
ATOM     21  C   UNL     1       5.150  11.805   0.202  0.00  0.00    +0.017 A 
ATOM     22  C   UNL     1       5.327  10.453  -0.023  0.00  0.00    +0.039 A 
ATOM     23  C   UNL     1       4.396   9.542   0.460  0.00  0.00    +0.048 A 
ATOM     24  C   UNL     1       3.288   9.995   1.164  0.00  0.00    +0.024 A 
ATOM     25 BR   UNL     1       6.834   9.844  -0.989  0.00  0.00    -0.048 Br
ENDBRANCH  15  23
ENDBRANCH  14  16
ENDBRANCH   1  14
TORSDOF 6
