REMARK  Name = ZINC21530914
REMARK  11 active torsions:
REMARK  status: ('A' for Active; 'I' for Inactive)
REMARK    1  A    between atoms: C_1  and  C_2
REMARK    2  A    between atoms: C_2  and  O_3
REMARK    3  A    between atoms: O_3  and  C_4
REMARK    4  A    between atoms: C_7  and  C_10
REMARK    5  A    between atoms: C_10  and  C_11
REMARK    6  A    between atoms: C_11  and  N_12
REMARK    7  A    between atoms: C_13  and  C_15
REMARK    8  A    between atoms: C_21  and  C_26
REMARK    9  A    between atoms: C_21  and  C_27
REMARK   10  A    between atoms: N_22  and  C_25
REMARK   11  A    between atoms: N_29  and  C_30
REMARK                            x       y       z     vdW  Elec       q    Type
REMARK                         _______ _______ _______ _____ _____    ______ ____
ROOT
ATOM      1  C   UNL     1      -0.016  -0.164   0.114  0.00  0.00    +0.148 A 
ATOM      2  C   UNL     1      -0.051   1.241   0.264  0.00  0.00    +0.067 A 
ATOM      3  C   UNL     1       1.242   1.635   0.215  0.00  0.00    +0.124 A 
ATOM      4  N   UNL     1       2.012   0.504   0.041  0.00  0.00    -0.256 N 
ATOM      5  N   UNL     1       1.253  -0.520  -0.013  0.00  0.00    -0.166 NA
ATOM      6  C   UNL     1       3.474   0.592  -0.053  0.00  0.00    +0.179 C 
ATOM      7  C   UNL     1       3.859   1.936  -0.670  0.00  0.00    +0.130 C 
ATOM      8  N   UNL     1       3.159   3.058  -0.058  0.00  0.00    -0.284 N 
ATOM      9  C   UNL     1       1.858   2.969   0.314  0.00  0.00    +0.265 C 
ATOM     10  O   UNL     1       1.234   3.937   0.706  0.00  0.00    -0.268 OA
ATOM     11  C   UNL     1       3.879   4.314   0.163  0.00  0.00    +0.133 C 
ATOM     12  C   UNL     1       3.531   1.905  -2.164  0.00  0.00    +0.044 C 
ENDROOT
BRANCH   1  14
ATOM     13  N   UNL     1      -1.003  -2.398  -0.052  0.00  0.00    -0.310 N 
ATOM     14  C   UNL     1      -1.182  -1.071   0.100  0.00  0.00    +0.264 C 
ATOM     15  O   UNL     1      -2.304  -0.619   0.225  0.00  0.00    -0.268 OA
ATOM     16  H   UNL     1       0.012  -2.806  -0.166  0.00  0.00    +0.149 HD
BRANCH  13  17
ATOM     17  C   UNL     1      -2.160  -3.296  -0.066  0.00  0.00    +0.109 C 
BRANCH  17  18
ATOM     18  C   UNL     1      -1.683  -4.738  -0.251  0.00  0.00    +0.054 C 
BRANCH  18  22
ATOM     19  C   UNL     1      -5.057  -7.360  -0.292  0.00  0.00    +0.121 A 
ATOM     20  C   UNL     1      -4.591  -6.809  -1.476  0.00  0.00    +0.046 A 
ATOM     21  C   UNL     1      -3.500  -5.962  -1.461  0.00  0.00    +0.007 A 
ATOM     22  C   UNL     1      -2.873  -5.663  -0.265  0.00  0.00    -0.046 A 
ATOM     23  C   UNL     1      -3.331  -6.216   0.916  0.00  0.00    +0.007 A 
ATOM     24  C   UNL     1      -4.426  -7.059   0.906  0.00  0.00    +0.046 A 
BRANCH  19  25
ATOM     25  O   UNL     1      -6.130  -8.194  -0.305  0.00  0.00    -0.492 OA
BRANCH  25  27
ATOM     26  C   UNL     1      -7.766  -9.634   0.739  0.00  0.00    +0.048 C 
ATOM     27  C   UNL     1      -6.555  -8.725   0.952  0.00  0.00    +0.225 C 
ENDBRANCH  25  27
ENDBRANCH  19  25
ENDBRANCH  18  22
ENDBRANCH  17  18
ENDBRANCH  13  17
ENDBRANCH   1  14
BRANCH   7  28
ATOM     28  C   UNL     1       5.342   2.141  -0.503  0.00  0.00    +0.238 C 
ATOM     29  O   UNL     1       6.085   2.002  -1.452  0.00  0.00    -0.273 OA
ATOM     30  N   UNL     1       5.844   2.479   0.701  0.00  0.00    -0.311 N 
ATOM     31  H   UNL     1       5.184   2.522   1.580  0.00  0.00    +0.149 HD
BRANCH  30  32
ATOM     32  C   UNL     1       7.269   2.789   0.840  0.00  0.00    +0.073 C 
ATOM     33  C   UNL     1       8.058   1.470   0.967  0.00  0.00    +0.022 C 
ATOM     34  C   UNL     1       9.493   1.733   0.600  0.00  0.00    +0.002 C 
ATOM     35  C   UNL     1      10.369   2.042   1.829  0.00  0.00    +0.000 C 
ATOM     36  C   UNL     1       9.671   2.969   2.843  0.00  0.00    +0.000 C 
ATOM     37  C   UNL     1       8.922   4.090   2.176  0.00  0.00    +0.002 C 
ATOM     38  C   UNL     1       7.453   3.658   1.993  0.00  0.00    +0.022 C 
ENDBRANCH  30  32
ENDBRANCH   7  28
TORSDOF 8
