REMARK  Name = ZINC02444799
REMARK  10 active torsions:
REMARK  status: ('A' for Active; 'I' for Inactive)
REMARK    1  A    between atoms: C_1  and  C_2
REMARK    2  A    between atoms: C_6  and  N_9
REMARK    3  A    between atoms: C_7  and  C_8
REMARK    4  A    between atoms: C_14  and  C_15
REMARK    5  A    between atoms: C_14  and  N_62
REMARK    6  A    between atoms: N_17  and  C_18
REMARK    7  A    between atoms: C_20  and  C_32
REMARK    8  A    between atoms: C_27  and  C_28
REMARK    9  A    between atoms: C_28  and  O_30
REMARK   10  A    between atoms: O_30  and  C_31
REMARK                            x       y       z     vdW  Elec       q    Type
REMARK                         _______ _______ _______ _____ _____    ______ ____
ROOT
ATOM      1  C   UNL     1       3.823   3.424   2.029  0.00  0.00    +0.201 C 
ATOM      2  O   UNL     1       3.010   3.873   2.810  0.00  0.00    -0.278 OA
ATOM      3  N   UNL     1       4.591   4.259   1.303  0.00  0.00    -0.285 N 
ATOM      4  H   UNL     1       5.183   3.904   0.621  0.00  0.00    +0.155 HD
ENDROOT
BRANCH   3   5
ATOM      5  C   UNL     1       4.537   5.630   1.530  0.00  0.00    +0.073 A 
ATOM      6  C   UNL     1       3.354   6.489   1.422  0.00  0.00    +0.025 A 
ATOM      7  C   UNL     1       2.018   6.249   1.089  0.00  0.00    -0.040 A 
ATOM      8  C   UNL     1       1.126   7.283   1.075  0.00  0.00    +0.004 A 
ATOM      9  C   UNL     1       1.535   8.572   1.390  0.00  0.00    +0.002 A 
ATOM     10  C   UNL     1       2.846   8.832   1.722  0.00  0.00    +0.026 A 
ATOM     11  C   UNL     1       3.775   7.793   1.743  0.00  0.00    +0.049 A 
ATOM     12  N   UNL     1       5.119   7.747   2.028  0.00  0.00    -0.348 N 
ATOM     13  H   UNL     1       5.661   8.511   2.281  0.00  0.00    +0.166 HD
ATOM     14  C   UNL     1       5.583   6.446   1.908  0.00  0.00    +0.147 A 
ATOM     15  C   UNL     1       1.563   4.854   0.746  0.00  0.00    +0.044 C 
BRANCH  14  16
ATOM     16  C   UNL     1       6.918   6.023   2.132  0.00  0.00    +0.357 C 
ATOM     17  O   UNL     1       7.238   4.871   1.904  0.00  0.00    -0.243 OA
BRANCH  16  18
ATOM     18  O   UNL     1       7.834   6.897   2.599  0.00  0.00    -0.463 OA
ATOM     19  C   UNL     1       9.159   6.403   2.802  0.00  0.00    +0.280 C 
ENDBRANCH  16  18
ENDBRANCH  14  16
ENDBRANCH   3   5
BRANCH   1  20
ATOM     20  C   UNL     1       3.973   1.933   1.872  0.00  0.00    +0.019 C 
BRANCH  20  26
ATOM     21  N   UNL     1       0.955  -0.684   3.246  0.00  0.00    -0.333 N 
ATOM     22  C   UNL     1       0.606   0.731   3.058  0.00  0.00    +0.086 C 
ATOM     23  C   UNL     1       1.627   1.386   2.126  0.00  0.00    -0.059 C 
ATOM     24  C   UNL     1       3.321  -0.166   2.890  0.00  0.00    -0.059 C 
ATOM     25  C   UNL     1       2.300  -0.821   3.823  0.00  0.00    +0.086 C 
ATOM     26  N   UNL     1       2.971   1.261   2.728  0.00  0.00    +0.387 N 
ATOM     27  H   UNL     1       2.966   1.711   3.651  0.00  0.00    -0.081 HD
BRANCH  21  33
ATOM     28  C   UNL     1      -2.407  -4.232   3.758  0.00  0.00    +0.044 C 
ATOM     29  C   UNL     1      -1.642  -3.057   4.309  0.00  0.00    -0.046 A 
ATOM     30  C   UNL     1      -1.882  -2.621   5.600  0.00  0.00    +0.004 A 
ATOM     31  C   UNL     1      -1.182  -1.543   6.110  0.00  0.00    +0.002 A 
ATOM     32  C   UNL     1      -0.240  -0.899   5.332  0.00  0.00    +0.023 A 
ATOM     33  C   UNL     1       0.003  -1.334   4.036  0.00  0.00    +0.033 A 
ATOM     34  C   UNL     1      -0.706  -2.414   3.524  0.00  0.00    -0.027 A 
ATOM     35  C   UNL     1      -0.450  -2.886   2.116  0.00  0.00    +0.046 C 
ENDBRANCH  21  33
ENDBRANCH  20  26
ENDBRANCH   1  20
TORSDOF 6
