REMARK  Name = ZINC33674498
REMARK  8 active torsions:
REMARK  status: ('A' for Active; 'I' for Inactive)
REMARK    1  A    between atoms: C_1  and  C_2
REMARK    2  A    between atoms: C_4  and  C_10
REMARK    3  A    between atoms: C_6  and  C_9
REMARK    4  A    between atoms: C_7  and  O_8
REMARK    5  A    between atoms: N_18  and  C_21
REMARK    6  A    between atoms: C_27  and  C_29
REMARK    7  A    between atoms: C_27  and  C_40
REMARK    8  A    between atoms: C_29  and  C_30
REMARK                            x       y       z     vdW  Elec       q    Type
REMARK                         _______ _______ _______ _____ _____    ______ ____
ROOT
ATOM      1  C   UNL     1       5.686  -0.153  -2.670  0.00  0.00    -0.027 C 
ATOM      2  C   UNL     1       6.863   0.716  -2.853  0.00  0.00    +0.077 C 
ATOM      3  C   UNL     1       6.871   1.528  -1.501  0.00  0.00    +0.086 C 
ATOM      4  C   UNL     1       7.953   2.490  -1.879  0.00  0.00    +0.225 C 
ATOM      5  O   UNL     1       8.044   3.654  -1.553  0.00  0.00    -0.275 OA
ATOM      6  N   UNL     1       8.818   1.784  -2.668  0.00  0.00    -0.239 N 
ATOM      7  C   UNL     1       8.277   0.609  -3.128  0.00  0.00    +0.225 C 
ATOM      8  O   UNL     1       8.858  -0.316  -3.652  0.00  0.00    -0.275 OA
ATOM      9  C   UNL     1       5.409   1.936  -1.475  0.00  0.00    +0.052 C 
ATOM     10  N   UNL     1       4.667   0.802  -2.106  0.00  0.00    +0.396 N 
ATOM     11  H   UNL     1       4.022   1.171  -2.918  0.00  0.00    -0.083 HD
ATOM     12  H   UNL     1       4.052   0.282  -1.357  0.00  0.00    -0.083 HD
ENDROOT
BRANCH   1  16
ATOM     13  C   UNL     1       5.515  -3.923  -5.954  0.00  0.00    +0.047 C 
ATOM     14  C   UNL     1       5.141  -2.518  -5.561  0.00  0.00    -0.009 A 
ATOM     15  C   UNL     1       5.566  -2.002  -4.351  0.00  0.00    +0.009 A 
ATOM     16  C   UNL     1       5.221  -0.713  -3.989  0.00  0.00    -0.060 A 
ATOM     17  C   UNL     1       4.448   0.062  -4.834  0.00  0.00    +0.009 A 
ATOM     18  C   UNL     1       4.026  -0.447  -6.047  0.00  0.00    -0.009 A 
ATOM     19  C   UNL     1       4.369  -1.741  -6.412  0.00  0.00    +0.123 A 
ATOM     20  C   UNL     1       3.187   0.400  -6.969  0.00  0.00    +0.047 C 
BRANCH  19  21
ATOM     21  O   UNL     1       3.950  -2.246  -7.602  0.00  0.00    -0.506 OA
ATOM     22  H   UNL     1       3.338  -1.629  -8.277  0.00  0.00    +0.292 HD
ENDBRANCH  19  21
ENDBRANCH   1  16
BRANCH   6  23
ATOM     23  C   UNL     1      10.176   2.232  -2.987  0.00  0.00    +0.084 C 
ATOM     24  C   UNL     1      10.319   2.389  -4.502  0.00  0.00    +0.023 C 
ATOM     25  C   UNL     1      11.737   2.857  -4.835  0.00  0.00    +0.002 C 
ATOM     26  C   UNL     1      12.746   1.823  -4.333  0.00  0.00    +0.000 C 
ATOM     27  C   UNL     1      12.604   1.665  -2.818  0.00  0.00    +0.002 C 
ATOM     28  C   UNL     1      11.186   1.197  -2.485  0.00  0.00    +0.023 C 
ENDBRANCH   6  23
BRANCH   9  29
ATOM     29  C   UNL     1       5.205   3.200  -2.270  0.00  0.00    +0.347 C 
ATOM     30  O   UNL     1       6.117   3.980  -2.408  0.00  0.00    -0.248 OA
ATOM     31  O   UNL     1       4.011   3.458  -2.826  0.00  0.00    -0.248 OA
ENDBRANCH   9  29
BRANCH   9  32
ATOM     32  C   UNL     1       4.940   2.137  -0.033  0.00  0.00    +0.037 C 
BRANCH  32  33
ATOM     33  C   UNL     1       3.454   2.390  -0.018  0.00  0.00    -0.023 A 
ATOM     34  C   UNL     1       2.848   3.587  -0.005  0.00  0.00    +0.087 A 
ATOM     35  N   UNL     1       1.490   3.423   0.007  0.00  0.00    -0.360 N 
ATOM     36  H   UNL     1       0.829   4.302   0.018  0.00  0.00    +0.165 HD
ATOM     37  C   UNL     1       1.181   2.081   0.002  0.00  0.00    +0.047 A 
ATOM     38  C   UNL     1       2.398   1.375  -0.013  0.00  0.00    +0.003 A 
ATOM     39  C   UNL     1       2.394  -0.021  -0.021  0.00  0.00    +0.010 A 
ATOM     40  C   UNL     1       1.205  -0.696  -0.013  0.00  0.00    +0.001 A 
ATOM     41  C   UNL     1       0.002  -0.004   0.002  0.00  0.00    +0.002 A 
ATOM     42  C   UNL     1      -0.017   1.374   0.010  0.00  0.00    +0.026 A 
ENDBRANCH  32  33
ENDBRANCH   9  32
TORSDOF 6
