REMARK  Name = ZINC23620090
REMARK  8 active torsions:
REMARK  status: ('A' for Active; 'I' for Inactive)
REMARK    1  A    between atoms: C_1  and  C_2
REMARK    2  A    between atoms: C_4  and  C_8
REMARK    3  A    between atoms: C_5  and  C_7
REMARK    4  A    between atoms: C_14  and  C_16
REMARK    5  A    between atoms: C_19  and  C_22
REMARK    6  A    between atoms: C_22  and  N_23
REMARK    7  A    between atoms: C_27  and  C_30
REMARK    8  A    between atoms: C_30  and  O_31
REMARK                            x       y       z     vdW  Elec       q    Type
REMARK                         _______ _______ _______ _____ _____    ______ ____
ROOT
ATOM      1  C   UNL     1       3.463   2.403   5.657  0.00  0.00    +0.017 A 
ATOM      2  C   UNL     1       4.819   2.396   5.989  0.00  0.00    +0.012 A 
ATOM      3  C   UNL     1       5.209   2.643   7.289  0.00  0.00    +0.002 A 
ATOM      4  C   UNL     1       4.258   2.887   8.265  0.00  0.00    -0.064 A 
ATOM      5  C   UNL     1       2.913   2.890   7.943  0.00  0.00    +0.002 A 
ATOM      6  C   UNL     1       2.510   2.650   6.646  0.00  0.00    +0.012 A 
ENDROOT
BRANCH   1  13
ATOM      7  C   UNL     1       1.329   1.919   2.722  0.00  0.00    +0.082 A 
ATOM      8  C   UNL     1       2.251   1.666   1.715  0.00  0.00    +0.098 A 
ATOM      9  C   UNL     1       3.617   1.668   2.036  0.00  0.00    +0.252 A 
ATOM     10  O   UNL     1       4.457   1.454   1.177  0.00  0.00    -0.268 OA
ATOM     11  N   UNL     1       3.985   1.906   3.312  0.00  0.00    -0.307 N 
ATOM     12  H   UNL     1       5.050   1.908   3.586  0.00  0.00    +0.170 HD
ATOM     13  C   UNL     1       3.039   2.144   4.265  0.00  0.00    +0.141 A 
ATOM     14  N   UNL     1       1.757   2.150   3.972  0.00  0.00    -0.229 NA
BRANCH   7  18
ATOM     15  C   UNL     1      -3.150   1.516   0.302  0.00  0.00    +0.086 C 
ATOM     16  C   UNL     1      -2.079   1.747   1.337  0.00  0.00    +0.103 A 
ATOM     17  C   UNL     1      -0.759   1.596   1.140  0.00  0.00    +0.054 A 
ATOM     18  C   UNL     1      -0.118   1.930   2.418  0.00  0.00    +0.041 A 
ATOM     19  C   UNL     1      -1.134   2.253   3.266  0.00  0.00    +0.111 A 
ATOM     20  O   UNL     1      -2.292   2.132   2.605  0.00  0.00    -0.464 OA
ATOM     21  C   UNL     1      -0.981   2.668   4.707  0.00  0.00    +0.087 C 
ENDBRANCH   7  18
ENDBRANCH   1  13
BRANCH   4  22
ATOM     22  C   UNL     1       4.691   3.150   9.684  0.00  0.00    -0.043 C 
BRANCH  22  23
ATOM     23  N   UNL     1       4.764   1.879  10.417  0.00  0.00    +0.383 N 
ATOM     24  C   UNL     1       5.455   0.853   9.626  0.00  0.00    -0.078 C 
ATOM     25  C   UNL     1       5.385  -0.490  10.355  0.00  0.00    -0.018 C 
ATOM     26  C   UNL     1       6.041  -0.353  11.732  0.00  0.00    +0.002 C 
ATOM     27  C   UNL     1       5.333   0.754  12.518  0.00  0.00    -0.002 C 
ATOM     28  C   UNL     1       5.405   2.062  11.725  0.00  0.00    -0.073 C 
ATOM     29  H   UNL     1       3.736   1.529  10.594  0.00  0.00    -0.081 HD
BRANCH  27  30
ATOM     30  C   UNL     1       6.021   0.939  13.872  0.00  0.00    +0.157 C 
BRANCH  30  31
ATOM     31  O   UNL     1       5.852  -0.243  14.657  0.00  0.00    -0.395 OA
ATOM     32  H   UNL     1       6.281  -0.297  15.668  0.00  0.00    +0.209 HD
ENDBRANCH  30  31
ENDBRANCH  27  30
ENDBRANCH  22  23
ENDBRANCH   4  22
TORSDOF 6
