REMARK  Name = ZINC33447259
REMARK  6 active torsions:
REMARK  status: ('A' for Active; 'I' for Inactive)
REMARK    1  A    between atoms: C_1  and  C_2
REMARK    2  A    between atoms: C_7  and  C_8
REMARK    3  A    between atoms: N_16  and  C_19
REMARK    4  A    between atoms: C_25  and  C_27
REMARK    5  A    between atoms: C_25  and  C_34
REMARK    6  A    between atoms: C_27  and  C_28
REMARK                            x       y       z     vdW  Elec       q    Type
REMARK                         _______ _______ _______ _____ _____    ______ ____
ROOT
ATOM      1  C   UNL     1       0.058  -0.146   2.604  0.00  0.00    -0.026 C 
ATOM      2  C   UNL     1      -1.355  -0.037   3.169  0.00  0.00    +0.077 C 
ATOM      3  C   UNL     1      -0.947   0.184   4.675  0.00  0.00    +0.086 C 
ATOM      4  C   UNL     1      -2.165   0.712   5.240  0.00  0.00    +0.225 C 
ATOM      5  O   UNL     1      -2.592   0.542   6.362  0.00  0.00    -0.275 OA
ATOM      6  N   UNL     1      -2.734   1.448   4.231  0.00  0.00    -0.239 N 
ATOM      7  C   UNL     1      -2.160   1.212   2.999  0.00  0.00    +0.225 C 
ATOM      8  O   UNL     1      -2.273   1.875   1.991  0.00  0.00    -0.275 OA
ATOM      9  C   UNL     1       0.043  -0.872   4.920  0.00  0.00    +0.052 C 
ATOM     10  N   UNL     1       0.758  -1.024   3.598  0.00  0.00    +0.396 N 
ATOM     11  H   UNL     1       0.708  -1.987   3.299  0.00  0.00    -0.083 HD
ATOM     12  H   UNL     1       1.723  -0.741   3.684  0.00  0.00    -0.083 HD
ENDROOT
BRANCH   1  19
ATOM     13  C   UNL     1       2.463  -0.220   1.005  0.00  0.00    +0.044 C 
ATOM     14  C   UNL     1       1.189  -0.828   0.478  0.00  0.00    -0.049 A 
ATOM     15  C   UNL     1       1.173  -1.426  -0.768  0.00  0.00    +0.003 A 
ATOM     16  C   UNL     1       0.004  -1.984  -1.252  0.00  0.00    +0.000 A 
ATOM     17  C   UNL     1      -1.148  -1.945  -0.489  0.00  0.00    +0.000 A 
ATOM     18  C   UNL     1      -1.131  -1.347   0.757  0.00  0.00    +0.002 A 
ATOM     19  C   UNL     1       0.038  -0.793   1.243  0.00  0.00    -0.058 A 
ENDBRANCH   1  19
BRANCH   6  20
ATOM     20  C   UNL     1      -3.847   2.380   4.435  0.00  0.00    +0.084 C 
ATOM     21  C   UNL     1      -5.042   1.940   3.588  0.00  0.00    +0.023 C 
ATOM     22  C   UNL     1      -6.204   2.912   3.801  0.00  0.00    +0.002 C 
ATOM     23  C   UNL     1      -5.774   4.320   3.384  0.00  0.00    +0.000 C 
ATOM     24  C   UNL     1      -4.578   4.760   4.231  0.00  0.00    +0.002 C 
ATOM     25  C   UNL     1      -3.416   3.787   4.018  0.00  0.00    +0.023 C 
ENDBRANCH   6  20
BRANCH   9  26
ATOM     26  C   UNL     1      -0.643  -2.151   5.325  0.00  0.00    +0.347 C 
ATOM     27  O   UNL     1      -0.501  -3.158   4.653  0.00  0.00    -0.248 OA
ATOM     28  O   UNL     1      -1.339  -2.179   6.326  0.00  0.00    -0.248 OA
ENDBRANCH   9  26
BRANCH   9  29
ATOM     29  C   UNL     1       1.036  -0.433   5.998  0.00  0.00    +0.035 C 
BRANCH  29  30
ATOM     30  C   UNL     1       2.112  -1.478   6.146  0.00  0.00    -0.048 A 
ATOM     31  C   UNL     1       1.947  -2.518   7.041  0.00  0.00    +0.003 A 
ATOM     32  C   UNL     1       2.934  -3.477   7.177  0.00  0.00    +0.000 A 
ATOM     33  C   UNL     1       4.085  -3.395   6.417  0.00  0.00    +0.000 A 
ATOM     34  C   UNL     1       4.250  -2.355   5.521  0.00  0.00    +0.000 A 
ATOM     35  C   UNL     1       3.261  -1.399   5.382  0.00  0.00    +0.003 A 
ENDBRANCH  29  30
ENDBRANCH   9  29
TORSDOF 5
