REMARK  Name = ZINC08879593
REMARK  10 active torsions:
REMARK  status: ('A' for Active; 'I' for Inactive)
REMARK    1  A    between atoms: C_1  and  C_2
REMARK    2  A    between atoms: C_12  and  C_13
REMARK    3  A    between atoms: C_13  and  C_14
REMARK    4  A    between atoms: C_14  and  C_15
REMARK    5  A    between atoms: N_17  and  C_18
REMARK    6  A    between atoms: C_18  and  C_19
REMARK    7  A    between atoms: C_19  and  N_57
REMARK    8  A    between atoms: C_20  and  N_57
REMARK    9  A    between atoms: C_21  and  N_57
REMARK   10  A    between atoms: C_24  and  C_25
REMARK                            x       y       z     vdW  Elec       q    Type
REMARK                         _______ _______ _______ _____ _____    ______ ____
ROOT
ATOM      1  C   UNL     1      -1.280  -0.795   0.011  0.00  0.00    +0.045 C 
ATOM      2  C   UNL     1       0.002  -0.004   0.002  0.00  0.00    -0.030 A 
ATOM      3  C   UNL     1       1.303  -0.679  -0.014  0.00  0.00    +0.022 A 
ATOM      4  C   UNL     1       1.385  -2.072  -0.023  0.00  0.00    +0.024 A 
ATOM      5  C   UNL     1       2.631  -2.679  -0.038  0.00  0.00    +0.029 A 
ATOM      6  C   UNL     1       3.805  -1.902  -0.045  0.00  0.00    +0.139 A 
ATOM      7  C   UNL     1       3.717  -0.517  -0.037  0.00  0.00    +0.093 A 
ATOM      8  C   UNL     1       2.478   0.100  -0.021  0.00  0.00    +0.143 A 
ATOM      9  O   UNL     1       2.387   1.449  -0.013  0.00  0.00    -0.422 OA
ATOM     10  C   UNL     1       1.198   2.071   0.002  0.00  0.00    +0.341 A 
ATOM     11  O   UNL     1       1.167   3.289   0.009  0.00  0.00    -0.245 OA
ATOM     12  C   UNL     1      -0.016   1.353   0.009  0.00  0.00    +0.041 A 
ATOM     13  O   UNL     1       4.851  -2.754  -0.061  0.00  0.00    -0.462 OA
ATOM     14  C   UNL     1       4.438  -4.032  -0.064  0.00  0.00    +0.204 A 
ATOM     15  C   UNL     1       3.087  -4.083  -0.051  0.00  0.00    +0.028 A 
ENDROOT
BRANCH  15  16
ATOM     16  C   UNL     1       2.239  -5.298  -0.051  0.00  0.00    -0.014 A 
ATOM     17  C   UNL     1       1.215  -5.437   0.885  0.00  0.00    +0.008 A 
ATOM     18  C   UNL     1       0.424  -6.568   0.877  0.00  0.00    +0.001 A 
ATOM     19  C   UNL     1       0.654  -7.569  -0.050  0.00  0.00    +0.000 A 
ATOM     20  C   UNL     1       1.672  -7.439  -0.978  0.00  0.00    +0.001 A 
ATOM     21  C   UNL     1       2.465  -6.310  -0.983  0.00  0.00    +0.008 A 
ENDBRANCH  15  16
BRANCH  12  22
ATOM     22  C   UNL     1      -1.330   2.091   0.020  0.00  0.00    +0.052 C 
BRANCH  22  23
ATOM     23  C   UNL     1      -1.768   2.333   1.466  0.00  0.00    +0.100 C 
BRANCH  23  24
ATOM     24  C   UNL     1      -3.082   3.071   1.476  0.00  0.00    +0.213 C 
ATOM     25  O   UNL     1      -3.616   3.373   0.430  0.00  0.00    -0.276 OA
ATOM     26  N   UNL     1      -3.664   3.394   2.648  0.00  0.00    -0.317 N 
ATOM     27  H   UNL     1      -3.237   3.152   3.484  0.00  0.00    +0.149 HD
BRANCH  26  28
ATOM     28  C   UNL     1      -4.942   4.111   2.658  0.00  0.00    +0.085 C 
BRANCH  28  29
ATOM     29  C   UNL     1      -5.379   4.353   4.104  0.00  0.00    -0.061 C 
BRANCH  29  32
ATOM     30  C   UNL     1      -7.736   4.240   3.557  0.00  0.00    -0.097 C 
ATOM     31  C   UNL     1      -6.996   5.530   5.468  0.00  0.00    -0.097 C 
ATOM     32  N   UNL     1      -6.657   5.096   4.097  0.00  0.00    +0.377 N 
ATOM     33  H   UNL     1      -6.559   5.924   3.499  0.00  0.00    -0.083 HD
ENDBRANCH  29  32
ENDBRANCH  28  29
ENDBRANCH  26  28
ENDBRANCH  23  24
ENDBRANCH  22  23
ENDBRANCH  12  22
TORSDOF 7
