REMARK  Name = ZINC08645133
REMARK  5 active torsions:
REMARK  status: ('A' for Active; 'I' for Inactive)
REMARK    1  A    between atoms: C_1  and  C_2
REMARK    2  A    between atoms: C_9  and  C_14
REMARK    3  A    between atoms: C_14  and  N_15
REMARK    4  A    between atoms: C_18  and  C_22
REMARK    5  A    between atoms: C_18  and  C_23
REMARK                            x       y       z     vdW  Elec       q    Type
REMARK                         _______ _______ _______ _____ _____    ______ ____
ROOT
ATOM      1  N   UNL     1       3.911   2.734   1.350  0.00  0.00    -0.220 N 
ATOM      2  C   UNL     1       4.622   2.001   2.229  0.00  0.00    +0.251 C 
ATOM      3  O   UNL     1       5.038   0.873   2.075  0.00  0.00    -0.272 OA
ATOM      4  C   UNL     1       4.795   2.882   3.451  0.00  0.00    +0.136 C 
ATOM      5  N   UNL     1       4.095   4.125   3.083  0.00  0.00    -0.281 N 
ATOM      6  C   UNL     1       3.618   3.944   1.839  0.00  0.00    +0.310 C 
ATOM      7  O   UNL     1       2.987   4.785   1.228  0.00  0.00    -0.252 OA
ATOM      8  C   UNL     1       6.277   3.155   3.712  0.00  0.00    +0.047 C 
ATOM      9  H   UNL     1       4.000   4.920   3.631  0.00  0.00    +0.152 HD
ENDROOT
BRANCH   4  10
ATOM     10  C   UNL     1       4.151   2.248   4.657  0.00  0.00    -0.008 A 
ATOM     11  C   UNL     1       3.111   2.865   5.281  0.00  0.00    +0.007 A 
ATOM     12  C   UNL     1       2.499   2.292   6.394  0.00  0.00    +0.001 A 
ATOM     13  C   UNL     1       2.931   1.102   6.896  0.00  0.00    +0.008 A 
ATOM     14  C   UNL     1       4.006   0.438   6.281  0.00  0.00    -0.018 A 
ATOM     15  C   UNL     1       4.624   1.018   5.146  0.00  0.00    -0.012 A 
ATOM     16  C   UNL     1       5.700   0.354   4.532  0.00  0.00    +0.009 A 
ATOM     17  C   UNL     1       6.132  -0.835   5.034  0.00  0.00    +0.001 A 
ATOM     18  C   UNL     1       5.523  -1.406   6.151  0.00  0.00    +0.001 A 
ATOM     19  C   UNL     1       4.480  -0.791   6.771  0.00  0.00    +0.008 A 
ENDBRANCH   4  10
BRANCH   1  20
ATOM     20  C   UNL     1       3.514   2.266   0.020  0.00  0.00    +0.154 C 
BRANCH  20  29
ATOM     21  C   UNL     1      -0.664  -0.005  -4.640  0.00  0.00    +0.045 C 
ATOM     22  C   UNL     1       0.070   0.437  -3.400  0.00  0.00    -0.029 A 
ATOM     23  C   UNL     1      -0.535   0.310  -2.167  0.00  0.00    +0.051 A 
ATOM     24  C   UNL     1       0.137   0.710  -1.020  0.00  0.00    +0.140 A 
ATOM     25  C   UNL     1       1.429   1.253  -1.129  0.00  0.00    +0.024 A 
ATOM     26  C   UNL     1       2.029   1.381  -2.386  0.00  0.00    +0.032 A 
ATOM     27  C   UNL     1       1.346   0.973  -3.511  0.00  0.00    +0.045 A 
ATOM     28 CL   UNL     1       2.084   1.130  -5.074  0.00  0.00    -0.083 Cl
ATOM     29  C   UNL     1       2.128   1.678   0.088  0.00  0.00    -0.012 A 
ATOM     30  C   UNL     1       1.492   1.527   1.277  0.00  0.00    +0.098 A 
ATOM     31  C   UNL     1       0.193   0.974   1.313  0.00  0.00    +0.338 A 
ATOM     32  O   UNL     1      -0.367   0.845   2.387  0.00  0.00    -0.245 OA
ATOM     33  O   UNL     1      -0.440   0.588   0.195  0.00  0.00    -0.422 OA
ENDBRANCH  20  29
ENDBRANCH   1  20
TORSDOF 3
