REMARK  Name = ZINC55166497
REMARK  5 active torsions:
REMARK  status: ('A' for Active; 'I' for Inactive)
REMARK    1  A    between atoms: C_1  and  C_2
REMARK    2  A    between atoms: C_8  and  C_22
REMARK    3  A    between atoms: C_8  and  C_23
REMARK    4  A    between atoms: C_10  and  N_12
REMARK    5  A    between atoms: C_13  and  C_15
REMARK                            x       y       z     vdW  Elec       q    Type
REMARK                         _______ _______ _______ _____ _____    ______ ____
ROOT
ATOM      1  N   UNL     1      -2.496  -3.308   0.956  0.00  0.00    -0.302 N 
ATOM      2  C   UNL     1      -3.661  -2.739   0.591  0.00  0.00    +0.284 C 
ATOM      3  O   UNL     1      -3.801  -2.309  -0.538  0.00  0.00    -0.267 OA
ATOM      4  H   UNL     1      -2.384  -3.651   1.856  0.00  0.00    +0.150 HD
ENDROOT
BRANCH   1  14
ATOM      5  C   UNL     1      -0.018   1.503   0.010  0.00  0.00    +0.086 C 
ATOM      6  C   UNL     1       0.002  -0.004   0.002  0.00  0.00    +0.103 A 
ATOM      7  C   UNL     1      -1.081  -0.806   0.003  0.00  0.00    +0.050 A 
ATOM      8  C   UNL     1      -0.602  -2.129  -0.007  0.00  0.00    +0.014 A 
ATOM      9  C   UNL     1       0.745  -2.064  -0.014  0.00  0.00    +0.111 A 
ATOM     10  O   UNL     1       1.104  -0.775  -0.013  0.00  0.00    -0.464 OA
ATOM     11  C   UNL     1       1.646  -3.276  -0.028  0.00  0.00    +0.081 C 
ATOM     12  C   UNL     1       0.815  -4.493  -0.450  0.00  0.00    -0.026 C 
ATOM     13  C   UNL     1      -0.462  -4.558   0.393  0.00  0.00    +0.034 C 
ATOM     14  C   UNL     1      -1.397  -3.409  -0.008  0.00  0.00    +0.107 C 
ATOM     15  C   UNL     1       1.633  -5.768  -0.235  0.00  0.00    +0.011 C 
ATOM     16  C   UNL     1       0.444  -4.369  -1.929  0.00  0.00    +0.011 C 
ENDBRANCH   1  14
BRANCH   2  17
ATOM     17  C   UNL     1      -4.771  -2.637   1.563  0.00  0.00    +0.238 A 
ATOM     18  N   UNL     1      -5.977  -2.099   1.319  0.00  0.00    -0.190 NA
ATOM     19  C   UNL     1      -6.720  -2.172   2.398  0.00  0.00    +0.209 A 
ATOM     20  N   UNL     1      -5.992  -2.768   3.370  0.00  0.00    -0.246 N 
ATOM     21  H   UNL     1      -6.279  -2.958   4.277  0.00  0.00    +0.192 HD
ATOM     22  N   UNL     1      -4.740  -3.064   2.807  0.00  0.00    -0.146 NA
ATOM     23  N   UNL     1      -8.020  -1.718   2.521  0.00  0.00    -0.328 N 
ATOM     24  H   UNL     1      -8.462  -1.301   1.765  0.00  0.00    +0.145 HD
ATOM     25  H   UNL     1      -8.491  -1.816   3.364  0.00  0.00    +0.145 HD
ENDBRANCH   2  17
TORSDOF 2
