REMARK  Name = ZINC09589886
REMARK  12 active torsions:
REMARK  status: ('A' for Active; 'I' for Inactive)
REMARK    1  A    between atoms: C_1  and  C_2
REMARK    2  A    between atoms: C_2  and  O_3
REMARK    3  A    between atoms: O_3  and  C_4
REMARK    4  A    between atoms: C_9  and  O_10
REMARK    5  A    between atoms: O_10  and  C_11
REMARK    6  A    between atoms: C_11  and  C_12
REMARK    7  A    between atoms: N_17  and  C_20
REMARK    8  A    between atoms: C_20  and  C_21
REMARK    9  A    between atoms: C_24  and  C_27
REMARK   10  A    between atoms: N_29  and  C_30
REMARK   11  A    between atoms: C_35  and  C_40
REMARK   12  A    between atoms: C_37  and  C_39
REMARK                            x       y       z     vdW  Elec       q    Type
REMARK                         _______ _______ _______ _____ _____    ______ ____
ROOT
ATOM      1  C   UNL     1      -1.398   5.005   2.401  0.00  0.00    +0.163 A 
ATOM      2  C   UNL     1      -2.013   5.628   3.468  0.00  0.00    +0.064 A 
ATOM      3  C   UNL     1      -2.579   4.855   4.483  0.00  0.00    +0.067 A 
ATOM      4  C   UNL     1      -2.526   3.451   4.415  0.00  0.00    +0.059 A 
ATOM      5  C   UNL     1      -1.911   2.838   3.337  0.00  0.00    +0.076 A 
ATOM      6  C   UNL     1      -1.351   3.611   2.332  0.00  0.00    +0.164 A 
ATOM      7  N   UNL     1      -3.098   2.711   5.441  0.00  0.00    -0.307 N 
ATOM      8  H   UNL     1      -3.069   1.611   5.409  0.00  0.00    +0.170 HD
ATOM      9  C   UNL     1      -3.691   3.325   6.479  0.00  0.00    +0.330 A 
ATOM     10  O   UNL     1      -4.180   2.642   7.358  0.00  0.00    -0.246 OA
ATOM     11  N   UNL     1      -3.766   4.661   6.588  0.00  0.00    -0.260 N 
ATOM     12  C   UNL     1      -3.240   5.471   5.644  0.00  0.00    +0.264 A 
ATOM     13  O   UNL     1      -3.313   6.681   5.751  0.00  0.00    -0.267 OA
ENDROOT
BRANCH   1  14
ATOM     14  O   UNL     1      -0.840   5.751   1.410  0.00  0.00    -0.489 OA
BRANCH  14  16
ATOM     15  C   UNL     1      -0.246   7.837   0.343  0.00  0.00    +0.048 C 
ATOM     16  C   UNL     1      -0.923   7.172   1.542  0.00  0.00    +0.226 C 
ENDBRANCH  14  16
ENDBRANCH   1  14
BRANCH   6  17
ATOM     17  O   UNL     1      -0.748   3.008   1.275  0.00  0.00    -0.489 OA
BRANCH  17  18
ATOM     18  C   UNL     1      -0.729   1.579   1.267  0.00  0.00    +0.226 C 
ATOM     19  C   UNL     1      -0.013   1.086   0.008  0.00  0.00    +0.048 C 
ENDBRANCH  17  18
ENDBRANCH   6  17
BRANCH  11  20
ATOM     20  C   UNL     1      -4.430   5.251   7.752  0.00  0.00    +0.133 C 
BRANCH  20  21
ATOM     21  C   UNL     1      -3.405   5.469   8.867  0.00  0.00    +0.009 C 
ATOM     22  C   UNL     1      -2.876   4.115   9.346  0.00  0.00    +0.006 C 
ATOM     23  C   UNL     1      -1.851   4.334  10.461  0.00  0.00    +0.013 C 
ATOM     24  C   UNL     1      -2.517   5.063  11.630  0.00  0.00    +0.075 C 
ATOM     25  C   UNL     1      -3.046   6.417  11.151  0.00  0.00    +0.013 C 
ATOM     26  C   UNL     1      -4.071   6.198  10.036  0.00  0.00    +0.006 C 
BRANCH  24  27
ATOM     27  C   UNL     1      -1.508   5.278  12.728  0.00  0.00    +0.216 C 
ATOM     28  O   UNL     1      -1.238   6.403  13.092  0.00  0.00    -0.276 OA
ATOM     29  N   UNL     1      -0.905   4.220  13.305  0.00  0.00    -0.312 N 
ATOM     30  H   UNL     1      -1.149   3.200  12.975  0.00  0.00    +0.149 HD
BRANCH  29  31
ATOM     31  C   UNL     1       0.076   4.429  14.373  0.00  0.00    +0.076 C 
ATOM     32  C   UNL     1      -0.649   4.561  15.714  0.00  0.00    +0.022 C 
ATOM     33  C   UNL     1       0.376   4.779  16.829  0.00  0.00    +0.002 C 
ATOM     34  C   UNL     1       1.333   3.586  16.882  0.00  0.00    +0.003 C 
ATOM     35  C   UNL     1       2.058   3.454  15.542  0.00  0.00    -0.009 C 
ATOM     36  C   UNL     1       1.034   3.236  14.427  0.00  0.00    +0.009 C 
ATOM     37  C   UNL     1       1.759   3.104  13.086  0.00  0.00    +0.009 C 
ATOM     38  C   UNL     1       3.015   2.262  15.595  0.00  0.00    +0.008 C 
ENDBRANCH  29  31
ENDBRANCH  24  27
ENDBRANCH  20  21
ENDBRANCH  11  20
TORSDOF 8
