REMARK  Name = ZINC02520055
REMARK  9 active torsions:
REMARK  status: ('A' for Active; 'I' for Inactive)
REMARK    1  A    between atoms: C_1  and  C_2
REMARK    2  A    between atoms: C_5  and  C_8
REMARK    3  A    between atoms: C_8  and  O_10
REMARK    4  A    between atoms: O_10  and  C_11
REMARK    5  A    between atoms: C_14  and  C_17
REMARK    6  A    between atoms: N_18  and  N_19
REMARK    7  A    between atoms: C_20  and  C_22
REMARK    8  A    between atoms: C_22  and  N_23
REMARK    9  A    between atoms: C_24  and  C_26
REMARK                            x       y       z     vdW  Elec       q    Type
REMARK                         _______ _______ _______ _____ _____    ______ ____
ROOT
ATOM      1  C   UNL     1       6.004   0.819  -0.080  0.00  0.00    +0.138 C 
ATOM      2  N   UNL     1       4.784   0.385   0.013  0.00  0.00    -0.188 NA
ENDROOT
BRANCH   1   6
ATOM      3  C   UNL     1       9.239  -1.931  -0.104  0.00  0.00    +0.132 A 
ATOM      4  C   UNL     1       9.488  -0.568  -0.194  0.00  0.00    +0.047 A 
ATOM      5  C   UNL     1       8.441   0.328  -0.187  0.00  0.00    +0.013 A 
ATOM      6  C   UNL     1       7.127  -0.136  -0.088  0.00  0.00    -0.005 A 
ATOM      7  C   UNL     1       6.881  -1.509   0.009  0.00  0.00    +0.013 A 
ATOM      8  C   UNL     1       7.934  -2.398  -0.005  0.00  0.00    +0.047 A 
BRANCH   3   9
ATOM      9  O   UNL     1      10.274  -2.811  -0.112  0.00  0.00    -0.422 OA
BRANCH   9  10
ATOM     10  C   UNL     1      11.079  -2.819   0.968  0.00  0.00    +0.344 C 
ATOM     11  O   UNL     1      10.804  -2.137   1.935  0.00  0.00    -0.245 OA
BRANCH  10  16
ATOM     12  C   UNL     1      15.819  -6.080   1.001  0.00  0.00    +0.044 C 
ATOM     13  C   UNL     1      14.577  -5.225   0.992  0.00  0.00    -0.050 A 
ATOM     14  C   UNL     1      14.267  -4.450   2.095  0.00  0.00    +0.004 A 
ATOM     15  C   UNL     1      13.132  -3.666   2.094  0.00  0.00    +0.015 A 
ATOM     16  C   UNL     1      12.296  -3.656   0.976  0.00  0.00    +0.059 A 
ATOM     17  C   UNL     1      12.612  -4.445  -0.131  0.00  0.00    +0.015 A 
ATOM     18  C   UNL     1      13.753  -5.220  -0.119  0.00  0.00    +0.004 A 
ENDBRANCH  10  16
ENDBRANCH   9  10
ENDBRANCH   3   9
ENDBRANCH   1   6
BRANCH   2  19
ATOM     19  N   UNL     1       3.717   1.292   0.021  0.00  0.00    -0.206 N 
ATOM     20  C   UNL     1       2.450   0.842   0.116  0.00  0.00    +0.249 C 
ATOM     21  O   UNL     1       2.234  -0.349   0.196  0.00  0.00    -0.272 OA
ATOM     22  H   UNL     1       3.890   2.245  -0.043  0.00  0.00    +0.177 HD
BRANCH  20  23
ATOM     23  C   UNL     1       1.302   1.818   0.125  0.00  0.00    +0.202 C 
BRANCH  23  24
ATOM     24  N   UNL     1       0.039   1.085   0.236  0.00  0.00    -0.303 N 
ATOM     25  C   UNL     1      -1.130   1.756   0.258  0.00  0.00    +0.246 C 
ATOM     26  O   UNL     1      -1.135   2.970   0.189  0.00  0.00    -0.270 OA
ATOM     27  H   UNL     1       0.043   0.117   0.291  0.00  0.00    +0.150 HD
BRANCH  25  28
ATOM     28  C   UNL     1      -2.405   1.016   0.364  0.00  0.00    +0.055 A 
ATOM     29  C   UNL     1      -2.402  -0.378   0.437  0.00  0.00    +0.014 A 
ATOM     30  C   UNL     1      -3.595  -1.062   0.541  0.00  0.00    +0.001 A 
ATOM     31  C   UNL     1      -4.794  -0.371   0.564  0.00  0.00    +0.001 A 
ATOM     32  C   UNL     1      -4.806   1.009   0.486  0.00  0.00    +0.021 A 
ATOM     33  C   UNL     1      -3.618   1.708   0.386  0.00  0.00    +0.053 A 
ATOM     34 CL   UNL     1      -3.633   3.441   0.289  0.00  0.00    -0.083 Cl
ENDBRANCH  25  28
ENDBRANCH  23  24
ENDBRANCH  20  23
ENDBRANCH   2  19
TORSDOF 8
