REMARK  Name = ZINC02381587
REMARK  4 active torsions:
REMARK  status: ('A' for Active; 'I' for Inactive)
REMARK    1  A    between atoms: C_1  and  O_2
REMARK    2  A    between atoms: O_2  and  C_3
REMARK    3  A    between atoms: C_6  and  C_9
REMARK    4  A    between atoms: C_12  and  C_21
REMARK                            x       y       z     vdW  Elec       q    Type
REMARK                         _______ _______ _______ _____ _____    ______ ____
ROOT
ATOM      1  C   UNL     1       2.505  -2.503  -4.381  0.00  0.00    +0.143 C 
ATOM      2  C   UNL     1       1.491  -3.390  -5.115  0.00  0.00    +0.059 C 
ATOM      3  C   UNL     1       2.219  -4.278  -6.130  0.00  0.00    +0.107 C 
ATOM      4  N   UNL     1       3.147  -5.164  -5.400  0.00  0.00    -0.307 N 
ATOM      5  C   UNL     1       3.890  -4.574  -4.387  0.00  0.00    +0.216 A 
ATOM      6  N   UNL     1       3.608  -3.338  -3.906  0.00  0.00    -0.224 N 
ATOM      7  N   UNL     1       4.551  -3.068  -2.914  0.00  0.00    -0.132 NA
ATOM      8  C   UNL     1       5.337  -4.119  -2.842  0.00  0.00    +0.233 A 
ATOM      9  N   UNL     1       4.927  -5.035  -3.739  0.00  0.00    -0.180 NA
ATOM     10  N   UNL     1       6.420  -4.264  -1.973  0.00  0.00    -0.326 N 
ATOM     11  H   UNL     1       3.232  -6.106  -5.616  0.00  0.00    +0.149 HD
ATOM     12  H   UNL     1       6.643  -3.551  -1.354  0.00  0.00    +0.145 HD
ATOM     13  H   UNL     1       6.948  -5.077  -1.987  0.00  0.00    +0.145 HD
ENDROOT
BRANCH   3  14
ATOM     14  C   UNL     1       1.215  -5.106  -6.890  0.00  0.00    -0.009 A 
ATOM     15  C   UNL     1       0.919  -6.390  -6.470  0.00  0.00    +0.007 A 
ATOM     16  C   UNL     1      -0.002  -7.149  -7.167  0.00  0.00    +0.000 A 
ATOM     17  C   UNL     1      -0.627  -6.627  -8.284  0.00  0.00    +0.001 A 
ATOM     18  C   UNL     1      -0.332  -5.344  -8.704  0.00  0.00    +0.020 A 
ATOM     19  C   UNL     1       0.586  -4.580  -8.004  0.00  0.00    +0.046 A 
ATOM     20 CL   UNL     1       0.953  -2.966  -8.527  0.00  0.00    -0.083 Cl
ENDBRANCH   3  14
BRANCH   1  24
ATOM     21  C   UNL     1       0.606  -0.607  -1.056  0.00  0.00    +0.120 A 
ATOM     22  C   UNL     1       1.173   0.161  -2.062  0.00  0.00    +0.046 A 
ATOM     23  C   UNL     1       1.786  -0.455  -3.136  0.00  0.00    +0.009 A 
ATOM     24  C   UNL     1       1.835  -1.835  -3.209  0.00  0.00    -0.023 A 
ATOM     25  C   UNL     1       1.270  -2.602  -2.207  0.00  0.00    +0.009 A 
ATOM     26  C   UNL     1       0.661  -1.992  -1.128  0.00  0.00    +0.046 A 
BRANCH  21  28
ATOM     27  C   UNL     1      -0.017   1.425   0.010  0.00  0.00    +0.277 C 
ATOM     28  O   UNL     1       0.002  -0.004   0.002  0.00  0.00    -0.495 OA
ENDBRANCH  21  28
ENDBRANCH   1  24
TORSDOF 3
