REMARK  Name = ZINC59795083
REMARK  8 active torsions:
REMARK  status: ('A' for Active; 'I' for Inactive)
REMARK    1  A    between atoms: C_5  and  C_7
REMARK    2  A    between atoms: C_7  and  C_8
REMARK    3  A    between atoms: C_8  and  N_9
REMARK    4  A    between atoms: C_10  and  C_12
REMARK    5  A    between atoms: C_12  and  S_13
REMARK    6  A    between atoms: S_13  and  C_14
REMARK    7  A    between atoms: C_17  and  C_20
REMARK    8  A    between atoms: N_18  and  N_19
REMARK                            x       y       z     vdW  Elec       q    Type
REMARK                         _______ _______ _______ _____ _____    ______ ____
ROOT
ATOM      1  S   UNL     1       1.712  -6.965   4.250  0.00  0.00    -0.075 S 
ENDROOT
BRANCH   1   2
ATOM      2  C   UNL     1       1.720  -8.718   4.073  0.00  0.00    +0.209 A 
ATOM      3  N   UNL     1       1.625  -9.388   2.946  0.00  0.00    -0.121 NA
ATOM      4  N   UNL     1       1.664 -10.652   3.179  0.00  0.00    -0.127 NA
ATOM      5  C   UNL     1       1.786 -10.866   4.468  0.00  0.00    +0.182 A 
ATOM      6  N   UNL     1       1.831  -9.634   5.080  0.00  0.00    -0.224 N 
BRANCH   5   7
ATOM      7  C   UNL     1       1.867 -12.182   5.137  0.00  0.00    +0.021 A 
ATOM      8  C   UNL     1       1.676 -12.280   6.516  0.00  0.00    +0.013 A 
ATOM      9  C   UNL     1       1.752 -13.511   7.134  0.00  0.00    +0.021 A 
ATOM     10  C   UNL     1       2.017 -14.648   6.389  0.00  0.00    +0.041 A 
ATOM     11  C   UNL     1       2.208 -14.556   5.020  0.00  0.00    +0.021 A 
ATOM     12  C   UNL     1       2.128 -13.332   4.390  0.00  0.00    +0.013 A 
ATOM     13 CL   UNL     1       2.111 -16.194   7.173  0.00  0.00    -0.084 Cl
ENDBRANCH   5   7
BRANCH   6  14
ATOM     14  N   UNL     1       1.957  -9.380   6.416  0.00  0.00    -0.295 N 
ATOM     15  H   UNL     1       1.054  -9.327   6.861  0.00  0.00    +0.163 HD
ATOM     16  H   UNL     1       2.540 -10.073   6.862  0.00  0.00    +0.163 HD
ENDBRANCH   6  14
ENDBRANCH   1   2
BRANCH   1  17
ATOM     17  C   UNL     1       1.538  -6.353   2.551  0.00  0.00    +0.173 C 
BRANCH  17  19
ATOM     18  N   UNL     1       1.395  -4.167   1.402  0.00  0.00    -0.314 N 
ATOM     19  C   UNL     1       1.518  -4.846   2.560  0.00  0.00    +0.223 C 
ATOM     20  O   UNL     1       1.612  -4.245   3.609  0.00  0.00    -0.275 OA
ATOM     21  H   UNL     1       1.320  -4.648   0.564  0.00  0.00    +0.149 HD
BRANCH  18  22
ATOM     22  C   UNL     1       1.376  -2.702   1.411  0.00  0.00    +0.109 C 
BRANCH  22  23
ATOM     23  C   UNL     1       1.229  -2.186  -0.022  0.00  0.00    +0.055 C 
BRANCH  23  28
ATOM     24  C   UNL     1      -0.017   1.378   0.010  0.00  0.00    +0.000 A 
ATOM     25  C   UNL     1       1.171   2.086   0.002  0.00  0.00    +0.001 A 
ATOM     26  C   UNL     1       2.377   1.412  -0.013  0.00  0.00    +0.020 A 
ATOM     27  C   UNL     1       2.397   0.029  -0.021  0.00  0.00    +0.044 A 
ATOM     28  C   UNL     1       1.208  -0.679  -0.013  0.00  0.00    -0.028 A 
ATOM     29  C   UNL     1       0.002  -0.004   0.002  0.00  0.00    +0.005 A 
ATOM     30 CL   UNL     1       3.912  -0.818  -0.041  0.00  0.00    -0.083 Cl
ENDBRANCH  23  28
ENDBRANCH  22  23
ENDBRANCH  18  22
ENDBRANCH  17  19
ENDBRANCH   1  17
TORSDOF 8
