REMARK  Name = ZINC39772909
REMARK  15 active torsions:
REMARK  status: ('A' for Active; 'I' for Inactive)
REMARK    1  A    between atoms: C_1  and  C_2
REMARK    2  A    between atoms: C_2  and  N_3
REMARK    3  A    between atoms: C_4  and  C_21
REMARK    4  A    between atoms: C_7  and  S_8
REMARK    5  A    between atoms: S_8  and  C_9
REMARK    6  A    between atoms: C_9  and  C_10
REMARK    7  A    between atoms: C_16  and  C_18
REMARK    8  A    between atoms: C_18  and  C_19
REMARK    9  A    between atoms: C_18  and  C_20
REMARK   10  A    between atoms: C_21  and  C_23
REMARK   11  A    between atoms: C_21  and  N_24
REMARK   12  A    between atoms: C_25  and  C_27
REMARK   13  A    between atoms: C_27  and  C_28
REMARK   14  A    between atoms: C_31  and  O_34
REMARK   15  A    between atoms: O_34  and  C_35
REMARK                            x       y       z     vdW  Elec       q    Type
REMARK                         _______ _______ _______ _____ _____    ______ ____
ROOT
ATOM      1  N   UNL     1       0.688  -0.476  -1.203  0.00  0.00    -0.305 N 
ATOM      2  C   UNL     1       0.126  -0.748  -2.420  0.00  0.00    +0.154 A 
ATOM      3  N   UNL     1       1.084  -1.140  -3.211  0.00  0.00    -0.132 NA
ATOM      4  N   UNL     1       2.205  -1.136  -2.582  0.00  0.00    -0.122 NA
ATOM      5  C   UNL     1       2.021  -0.732  -1.347  0.00  0.00    +0.192 A 
ENDROOT
BRANCH   1   7
ATOM      6  C   UNL     1      -0.019   1.526   0.010  0.00  0.00    +0.027 C 
ATOM      7  C   UNL     1       0.002  -0.004   0.002  0.00  0.00    +0.122 C 
ENDBRANCH   1   7
BRANCH   2   8
ATOM      8  C   UNL     1      -1.332  -0.617  -2.780  0.00  0.00    +0.138 C 
ATOM      9  C   UNL     1      -1.965  -2.007  -2.856  0.00  0.00    +0.036 C 
BRANCH   8  10
ATOM     10  N   UNL     1      -1.456   0.048  -4.080  0.00  0.00    -0.305 N 
ATOM     11  C   UNL     1      -2.583   0.720  -4.388  0.00  0.00    +0.218 C 
ATOM     12  O   UNL     1      -3.494   0.774  -3.590  0.00  0.00    -0.275 OA
ATOM     13  H   UNL     1      -0.727   0.004  -4.718  0.00  0.00    +0.149 HD
BRANCH  11  14
ATOM     14  C   UNL     1      -2.711   1.403  -5.725  0.00  0.00    +0.130 C 
BRANCH  14  15
ATOM     15  C   UNL     1      -4.056   2.077  -5.818  0.00  0.00    -0.038 A 
ATOM     16  C   UNL     1      -5.141   1.384  -6.322  0.00  0.00    +0.007 A 
ATOM     17  C   UNL     1      -6.375   1.999  -6.409  0.00  0.00    +0.046 A 
ATOM     18  C   UNL     1      -6.525   3.313  -5.989  0.00  0.00    +0.120 A 
ATOM     19  C   UNL     1      -5.434   4.006  -5.484  0.00  0.00    +0.046 A 
ATOM     20  C   UNL     1      -4.204   3.385  -5.395  0.00  0.00    +0.007 A 
BRANCH  18  21
ATOM     21  O   UNL     1      -7.737   3.921  -6.074  0.00  0.00    -0.495 OA
ATOM     22  C   UNL     1      -7.817   5.275  -5.624  0.00  0.00    +0.277 C 
ENDBRANCH  18  21
ENDBRANCH  14  15
ENDBRANCH  11  14
ENDBRANCH   8  10
ENDBRANCH   2   8
BRANCH   5  23
ATOM     23  S   UNL     1       3.261  -0.556  -0.107  0.00  0.00    -0.077 S 
BRANCH  23  24
ATOM     24  C   UNL     1       4.792  -1.052  -0.943  0.00  0.00    +0.173 C 
BRANCH  24  25
ATOM     25  C   UNL     1       5.947  -0.946   0.019  0.00  0.00    +0.229 C 
ATOM     26  O   UNL     1       5.756  -0.573   1.157  0.00  0.00    -0.275 OA
ATOM     27  N   UNL     1       7.192  -1.266  -0.386  0.00  0.00    -0.263 N 
ATOM     28  C   UNL     1       8.258  -1.169   0.502  0.00  0.00    +0.188 A 
ATOM     29  N   UNL     1       8.256  -0.794   1.766  0.00  0.00    -0.126 NA
ATOM     30  N   UNL     1       9.316  -0.755   2.453  0.00  0.00    -0.144 NA
ATOM     31  C   UNL     1      10.457  -1.099   1.891  0.00  0.00    +0.106 A 
ATOM     32  S   UNL     1       9.890  -1.506   0.246  0.00  0.00    -0.035 S 
ATOM     33  H   UNL     1       7.345  -1.565  -1.296  0.00  0.00    +0.157 HD
BRANCH  31  34
ATOM     34  C   UNL     1      11.847  -1.142   2.473  0.00  0.00    +0.040 C 
ATOM     35  C   UNL     1      12.242   0.256   2.953  0.00  0.00    +0.014 C 
ATOM     36  C   UNL     1      11.875  -2.114   3.654  0.00  0.00    +0.014 C 
ENDBRANCH  31  34
ENDBRANCH  24  25
ENDBRANCH  23  24
ENDBRANCH   5  23
TORSDOF 10
