REMARK  Name = ZINC39899189
REMARK  11 active torsions:
REMARK  status: ('A' for Active; 'I' for Inactive)
REMARK    1  A    between atoms: C_1  and  O_2
REMARK    2  A    between atoms: O_2  and  C_3
REMARK    3  A    between atoms: C_6  and  C_11
REMARK    4  A    between atoms: C_8  and  O_9
REMARK    5  A    between atoms: O_9  and  C_10
REMARK    6  A    between atoms: C_11  and  C_12
REMARK    7  A    between atoms: C_12  and  N_13
REMARK    8  A    between atoms: C_14  and  C_32
REMARK    9  A    between atoms: C_17  and  C_24
REMARK   10  A    between atoms: C_29  and  O_30
REMARK   11  A    between atoms: C_36  and  O_38
REMARK                            x       y       z     vdW  Elec       q    Type
REMARK                         _______ _______ _______ _____ _____    ______ ____
ROOT
ATOM      1  N   UNL     1       4.640  -3.366  -5.213  0.00  0.00    -0.285 N 
ATOM      2  C   UNL     1       4.763  -4.814  -5.427  0.00  0.00    +0.141 C 
ATOM      3  C   UNL     1       5.503  -4.982  -6.726  0.00  0.00    +0.035 A 
ATOM      4  C   UNL     1       6.043  -5.861  -7.671  0.00  0.00    +0.102 A 
ATOM      5  N   UNL     1       6.586  -5.130  -8.624  0.00  0.00    -0.173 NA
ATOM      6  N   UNL     1       6.444  -3.877  -8.376  0.00  0.00    -0.272 N 
ATOM      7  H   UNL     1       6.765  -3.157  -8.940  0.00  0.00    +0.189 HD
ATOM      8  C   UNL     1       5.772  -3.711  -7.198  0.00  0.00    +0.126 A 
ATOM      9  C   UNL     1       5.224  -2.736  -6.249  0.00  0.00    +0.265 C 
ATOM     10  O   UNL     1       5.290  -1.528  -6.378  0.00  0.00    -0.268 OA
ENDROOT
BRANCH   4  11
ATOM     11  C   UNL     1       6.010  -7.344  -7.611  0.00  0.00    +0.045 A 
ATOM     12  C   UNL     1       5.393  -7.986  -6.540  0.00  0.00    +0.033 A 
ATOM     13  C   UNL     1       5.365  -9.366  -6.489  0.00  0.00    +0.042 A 
ATOM     14  C   UNL     1       5.948 -10.113  -7.498  0.00  0.00    +0.023 A 
ATOM     15  C   UNL     1       6.562  -9.484  -8.565  0.00  0.00    +0.047 A 
ATOM     16  C   UNL     1       6.592  -8.100  -8.631  0.00  0.00    +0.126 A 
ATOM     17 CL   UNL     1       4.596 -10.167  -5.154  0.00  0.00    -0.084 Cl
BRANCH  16  18
ATOM     18  O   UNL     1       7.191  -7.481  -9.682  0.00  0.00    -0.506 OA
ATOM     19  H   UNL     1       8.132  -7.301  -9.549  0.00  0.00    +0.292 HD
ENDBRANCH  16  18
ENDBRANCH   4  11
BRANCH   2  20
ATOM     20  C   UNL     1       5.542  -5.440  -4.300  0.00  0.00    -0.019 A 
ATOM     21  C   UNL     1       6.643  -4.788  -3.775  0.00  0.00    +0.006 A 
ATOM     22  C   UNL     1       7.359  -5.361  -2.740  0.00  0.00    +0.004 A 
ATOM     23  C   UNL     1       6.978  -6.586  -2.229  0.00  0.00    +0.045 A 
ATOM     24  C   UNL     1       5.874  -7.242  -2.754  0.00  0.00    +0.117 A 
ATOM     25  C   UNL     1       5.153  -6.663  -3.788  0.00  0.00    +0.051 A 
BRANCH  24  26
ATOM     26  O   UNL     1       5.496  -8.448  -2.253  0.00  0.00    -0.507 OA
ATOM     27  H   UNL     1       4.866  -8.390  -1.522  0.00  0.00    +0.292 HD
ENDBRANCH  24  26
ENDBRANCH   2  20
BRANCH   1  28
ATOM     28  C   UNL     1       3.989  -2.719  -4.072  0.00  0.00    +0.114 C 
BRANCH  28  29
ATOM     29  C   UNL     1       2.507  -2.501  -4.386  0.00  0.00    +0.054 C 
BRANCH  29  33
ATOM     30  C   UNL     1       0.606  -0.608  -1.056  0.00  0.00    +0.161 A 
ATOM     31  C   UNL     1       1.173   0.159  -2.062  0.00  0.00    +0.049 A 
ATOM     32  C   UNL     1       1.787  -0.456  -3.137  0.00  0.00    +0.007 A 
ATOM     33  C   UNL     1       1.837  -1.836  -3.212  0.00  0.00    -0.042 A 
ATOM     34  C   UNL     1       1.273  -2.606  -2.212  0.00  0.00    +0.053 A 
ATOM     35  C   UNL     1       0.662  -1.996  -1.129  0.00  0.00    +0.162 A 
BRANCH  30  37
ATOM     36  C   UNL     1      -0.017   1.425   0.010  0.00  0.00    +0.277 C 
ATOM     37  O   UNL     1       0.002  -0.004   0.002  0.00  0.00    -0.491 OA
ENDBRANCH  30  37
BRANCH  35  38
ATOM     38  O   UNL     1       0.112  -2.753  -0.142  0.00  0.00    -0.491 OA
ATOM     39  C   UNL     1       0.206  -4.171  -0.283  0.00  0.00    +0.277 C 
ENDBRANCH  35  38
ENDBRANCH  29  33
ENDBRANCH  28  29
ENDBRANCH   1  28
TORSDOF 9
