REMARK  Name = ZINC06732727
REMARK  11 active torsions:
REMARK  status: ('A' for Active; 'I' for Inactive)
REMARK    1  A    between atoms: C_1  and  C_2
REMARK    2  A    between atoms: C_2  and  CA_3
REMARK    3  A    between atoms: CA_3  and  C_5
REMARK    4  A    between atoms: CA_3  and  N_7
REMARK    5  A    between atoms: C_5  and  O_6
REMARK    6  A    between atoms: C_8  and  C_10
REMARK    7  A    between atoms: N_14  and  C_17
REMARK    8  A    between atoms: C_20  and  O_23
REMARK    9  A    between atoms: O_23  and  C_24
REMARK   10  A    between atoms: C_26  and  C_30
REMARK   11  A    between atoms: C_26  and  C_31
REMARK                            x       y       z     vdW  Elec       q    Type
REMARK                         _______ _______ _______ _____ _____    ______ ____
ROOT
ATOM      1  C   UNL     1       1.212   2.039  -0.112  0.00  0.00    +0.102 A 
ATOM      2  C   UNL     1       1.134   3.419   0.015  0.00  0.00    +0.031 A 
ATOM      3  C   UNL     1      -0.137   4.022   0.129  0.00  0.00    +0.038 A 
ATOM      4  C   UNL     1      -1.288   3.253   0.110  0.00  0.00    +0.038 A 
ATOM      5  N   UNL     1      -1.213   1.911  -0.015  0.00  0.00    -0.280 N 
ATOM      6  C   UNL     1      -0.036   1.273  -0.120  0.00  0.00    +0.268 A 
ATOM      7  O   UNL     1      -0.008   0.060  -0.228  0.00  0.00    -0.266 OA
ATOM      8  C   UNL     1      -2.654   3.881   0.220  0.00  0.00    +0.061 C 
ATOM      9  C   UNL     1      -2.585   5.248   0.894  0.00  0.00    -0.023 C 
ATOM     10  C   UNL     1      -1.583   6.133   0.140  0.00  0.00    +0.086 C 
ATOM     11  C   UNL     1      -0.221   5.486   0.276  0.00  0.00    +0.165 C 
ATOM     12  O   UNL     1       0.769   6.151   0.498  0.00  0.00    -0.292 OA
ATOM     13  C   UNL     1      -2.127   5.079   2.344  0.00  0.00    +0.011 C 
ATOM     14  C   UNL     1      -3.967   5.903   0.868  0.00  0.00    +0.011 C 
ENDROOT
BRANCH   5  15
ATOM     15  C   UNL     1      -2.397   1.163  -0.029  0.00  0.00    +0.050 A 
ATOM     16  C   UNL     1      -3.259   1.246  -1.115  0.00  0.00    +0.030 A 
ATOM     17  C   UNL     1      -4.422   0.503  -1.131  0.00  0.00    +0.047 A 
ATOM     18  C   UNL     1      -4.737  -0.318  -0.057  0.00  0.00    +0.120 A 
ATOM     19  C   UNL     1      -3.879  -0.397   1.031  0.00  0.00    +0.047 A 
ATOM     20  C   UNL     1      -2.712   0.341   1.046  0.00  0.00    +0.030 A 
BRANCH  18  21
ATOM     21  O   UNL     1      -5.886  -1.044  -0.071  0.00  0.00    -0.495 OA
ATOM     22  C   UNL     1      -6.721  -0.914  -1.222  0.00  0.00    +0.277 C 
ENDBRANCH  18  21
ENDBRANCH   5  15
BRANCH   1  24
ATOM     23  N   UNL     1       2.577   0.017  -0.242  0.00  0.00    -0.306 N 
ATOM     24  C   UNL     1       2.514   1.364  -0.235  0.00  0.00    +0.250 C 
ATOM     25  O   UNL     1       3.533   2.021  -0.330  0.00  0.00    -0.270 OA
ATOM     26  H   UNL     1       1.760  -0.506  -0.236  0.00  0.00    +0.149 HD
BRANCH  23  27
ATOM     27  CA  UNL     1       3.878  -0.655  -0.260  0.00  0.00    +0.098 C 
BRANCH  27  29
ATOM     28  C   UNL     1       3.364  -1.935   1.823  0.00  0.00    +0.006 C 
ATOM     29  C   UNL     1       3.738  -2.054   0.344  0.00  0.00    +0.021 C 
ENDBRANCH  27  29
BRANCH  27  30
ATOM     30  C   UNL     1       4.373  -0.770  -1.703  0.00  0.00    +0.178 C 
BRANCH  30  31
ATOM     31  O   UNL     1       3.497  -1.624  -2.441  0.00  0.00    -0.393 OA
ATOM     32  H   UNL     1       3.750  -1.743  -3.366  0.00  0.00    +0.209 HD
ENDBRANCH  30  31
ENDBRANCH  27  30
ENDBRANCH  23  27
ENDBRANCH   1  24
TORSDOF 7
