REMARK  Name = ZINC35423392
REMARK  9 active torsions:
REMARK  status: ('A' for Active; 'I' for Inactive)
REMARK    1  A    between atoms: C_1  and  N_2
REMARK    2  A    between atoms: N_2  and  C_3
REMARK    3  A    between atoms: N_2  and  C_28
REMARK    4  A    between atoms: C_3  and  C_4
REMARK    5  A    between atoms: C_4  and  N_5
REMARK    6  A    between atoms: C_6  and  C_8
REMARK    7  A    between atoms: C_11  and  C_13
REMARK    8  A    between atoms: C_13  and  N_14
REMARK    9  A    between atoms: C_28  and  C_29
REMARK                            x       y       z     vdW  Elec       q    Type
REMARK                         _______ _______ _______ _____ _____    ______ ____
ROOT
ATOM      1  C   UNL     1      -5.641  -0.890  -2.314  0.00  0.00    +0.189 A 
ATOM      2  C   UNL     1      -6.564  -0.729  -3.308  0.00  0.00    +0.055 A 
ATOM      3  C   UNL     1      -7.735  -1.372  -2.880  0.00  0.00    +0.047 A 
ATOM      4  C   UNL     1      -7.480  -1.891  -1.659  0.00  0.00    +0.126 A 
ATOM      5  O   UNL     1      -6.216  -1.603  -1.323  0.00  0.00    -0.453 OA
ENDROOT
BRANCH   1   7
ATOM      6  N   UNL     1      -3.452  -0.617  -1.276  0.00  0.00    -0.311 N 
ATOM      7  C   UNL     1      -4.265  -0.382  -2.325  0.00  0.00    +0.279 C 
ATOM      8  O   UNL     1      -3.858   0.252  -3.280  0.00  0.00    -0.267 OA
ATOM      9  H   UNL     1      -3.777  -1.122  -0.514  0.00  0.00    +0.149 HD
BRANCH   6  10
ATOM     10  C   UNL     1      -2.078  -0.110  -1.286  0.00  0.00    +0.086 C 
BRANCH  10  11
ATOM     11  C   UNL     1      -1.376  -0.512   0.012  0.00  0.00    -0.060 C 
BRANCH  11  13
ATOM     12  C   UNL     1      -0.018   1.465   0.010  0.00  0.00    -0.096 C 
ATOM     13  N   UNL     1       0.002  -0.004   0.002  0.00  0.00    +0.382 N 
ATOM     14  H   UNL     1       0.474  -0.330  -0.828  0.00  0.00    -0.082 HD
BRANCH  13  15
ATOM     15  C   UNL     1       0.713  -0.491   1.192  0.00  0.00    -0.043 C 
BRANCH  15  16
ATOM     16  C   UNL     1       2.158  -0.072   1.120  0.00  0.00    -0.064 A 
ATOM     17  C   UNL     1       3.086  -0.894   0.508  0.00  0.00    +0.002 A 
ATOM     18  C   UNL     1       4.413  -0.510   0.442  0.00  0.00    +0.000 A 
ATOM     19  C   UNL     1       4.811   0.696   0.988  0.00  0.00    +0.000 A 
ATOM     20  C   UNL     1       3.883   1.518   1.599  0.00  0.00    +0.000 A 
ATOM     21  C   UNL     1       2.556   1.136   1.661  0.00  0.00    +0.002 A 
ENDBRANCH  15  16
ENDBRANCH  13  15
ENDBRANCH  11  13
ENDBRANCH  10  11
ENDBRANCH   6  10
ENDBRANCH   1   7
BRANCH   4  22
ATOM     22  C   UNL     1      -8.456  -2.670  -0.815  0.00  0.00    +0.201 C 
BRANCH  22  23
ATOM     23  N   UNL     1      -8.344  -4.096  -1.130  0.00  0.00    -0.283 N 
ATOM     24  C   UNL     1      -9.127  -4.643  -2.140  0.00  0.00    +0.161 A 
ATOM     25  C   UNL     1      -9.032  -6.000  -2.453  0.00  0.00    +0.090 A 
ATOM     26  C   UNL     1      -9.825  -6.523  -3.466  0.00  0.00    +0.031 A 
ATOM     27  C   UNL     1     -10.689  -5.668  -4.135  0.00  0.00    +0.022 A 
ATOM     28  C   UNL     1     -10.732  -4.335  -3.774  0.00  0.00    +0.113 A 
ATOM     29  N   UNL     1      -9.969  -3.865  -2.808  0.00  0.00    -0.236 NA
ATOM     30  N   UNL     1      -8.149  -6.829  -1.756  0.00  0.00    -0.309 N 
ATOM     31  C   UNL     1      -7.867  -8.152  -1.856  0.00  0.00    +0.092 A 
ATOM     32  C   UNL     1      -6.924  -8.471  -0.937  0.00  0.00    +0.020 A 
ATOM     33  C   UNL     1      -6.598  -7.309  -0.232  0.00  0.00    +0.033 A 
ATOM     34  C   UNL     1      -7.369  -6.292  -0.752  0.00  0.00    +0.112 A 
ATOM     35  C   UNL     1      -7.478  -4.866  -0.441  0.00  0.00    +0.277 A 
ATOM     36  O   UNL     1      -6.792  -4.378   0.438  0.00  0.00    -0.265 OA
ENDBRANCH  22  23
ENDBRANCH   4  22
TORSDOF 8
