REMARK  Name = ZINC44098636
REMARK  7 active torsions:
REMARK  status: ('A' for Active; 'I' for Inactive)
REMARK    1  A    between atoms: C_1  and  C_2
REMARK    2  A    between atoms: C_3  and  C_12
REMARK    3  A    between atoms: C_12  and  C_14
REMARK    4  A    between atoms: C_19  and  C_22
REMARK    5  A    between atoms: C_25  and  C_27
REMARK    6  A    between atoms: C_27  and  C_28
REMARK    7  A    between atoms: C_27  and  C_29
REMARK                            x       y       z     vdW  Elec       q    Type
REMARK                         _______ _______ _______ _____ _____    ______ ____
ROOT
ATOM      1  C   UNL     1      -0.252   1.323  -2.694  0.00  0.00    +0.287 C 
ATOM      2  O   UNL     1      -0.138   2.042  -1.723  0.00  0.00    -0.266 OA
ATOM      3  N   UNL     1      -0.488   1.861  -3.907  0.00  0.00    -0.295 N 
ATOM      4  C   UNL     1      -0.521   1.014  -5.107  0.00  0.00    +0.109 C 
ATOM      5  C   UNL     1       0.449   1.590  -6.144  0.00  0.00    +0.032 C 
ATOM      6  C   UNL     1       0.103   3.058  -6.400  0.00  0.00    +0.080 C 
ATOM      7  C   UNL     1       0.255   3.854  -5.102  0.00  0.00    +0.032 C 
ATOM      8  C   UNL     1      -0.723   3.304  -4.053  0.00  0.00    +0.109 C 
ENDROOT
BRANCH   6   9
ATOM      9  C   UNL     1       1.034   3.619  -7.444  0.00  0.00    +0.220 A 
ATOM     10  N   UNL     1       2.333   3.686  -7.363  0.00  0.00    -0.112 NA
ATOM     11  N   UNL     1       2.801   4.221  -8.435  0.00  0.00    -0.112 NA
ATOM     12  C   UNL     1       1.817   4.514  -9.237  0.00  0.00    +0.220 A 
ATOM     13  O   UNL     1       0.678   4.135  -8.632  0.00  0.00    -0.424 OA
BRANCH  12  14
ATOM     14  C   UNL     1       1.934   5.154 -10.597  0.00  0.00    +0.071 C 
ATOM     15  C   UNL     1       2.600   6.524 -10.459  0.00  0.00    +0.017 C 
ATOM     16  C   UNL     1       2.782   4.264 -11.508  0.00  0.00    +0.017 C 
ENDBRANCH  12  14
ENDBRANCH   6   9
BRANCH   1  17
ATOM     17  C   UNL     1      -0.129  -0.156  -2.545  0.00  0.00    +0.250 C 
ATOM     18  O   UNL     1       0.936  -0.702  -2.758  0.00  0.00    -0.282 OA
BRANCH  17  21
ATOM     19  C   UNL     1      -1.085  -0.637   0.397  0.00  0.00    +0.064 C 
ATOM     20  C   UNL     1      -1.732  -1.177  -0.852  0.00  0.00    +0.025 A 
ATOM     21  C   UNL     1      -1.289  -0.949  -2.142  0.00  0.00    +0.055 A 
ATOM     22  C   UNL     1      -2.224  -1.668  -3.030  0.00  0.00    +0.011 A 
ATOM     23  C   UNL     1      -2.318  -1.826  -4.409  0.00  0.00    +0.011 A 
ATOM     24  C   UNL     1      -3.340  -2.582  -4.941  0.00  0.00    +0.001 A 
ATOM     25  C   UNL     1      -4.271  -3.183  -4.107  0.00  0.00    +0.002 A 
ATOM     26  C   UNL     1      -4.189  -3.035  -2.740  0.00  0.00    +0.026 A 
ATOM     27  C   UNL     1      -3.164  -2.276  -2.184  0.00  0.00    +0.047 A 
ATOM     28  N   UNL     1      -2.827  -1.958  -0.883  0.00  0.00    -0.358 N 
ATOM     29  H   UNL     1      -3.313  -2.256  -0.099  0.00  0.00    +0.166 HD
ENDBRANCH  17  21
ENDBRANCH   1  17
TORSDOF 4
