REMARK  Name = ZINC39606119
REMARK  10 active torsions:
REMARK  status: ('A' for Active; 'I' for Inactive)
REMARK    1  A    between atoms: C_1  and  C_2
REMARK    2  A    between atoms: C_2  and  C_3
REMARK    3  A    between atoms: C_3  and  C_5
REMARK    4  A    between atoms: C_3  and  C_6
REMARK    5  A    between atoms: C_6  and  N_7
REMARK    6  A    between atoms: C_8  and  C_10
REMARK    7  A    between atoms: C_21  and  C_23
REMARK    8  A    between atoms: C_28  and  O_29
REMARK    9  A    between atoms: O_29  and  C_30
REMARK   10  A    between atoms: C_30  and  C_31
REMARK                            x       y       z     vdW  Elec       q    Type
REMARK                         _______ _______ _______ _____ _____    ______ ____
ROOT
ATOM      1  C   UNL     1       1.842  -4.275  -4.178  0.00  0.00    +0.100 C 
ATOM      2  C   UNL     1       3.311  -3.813  -4.301  0.00  0.00    +0.121 C 
ATOM      3  N   UNL     1       4.107  -4.957  -3.796  0.00  0.00    -0.296 N 
ATOM      4  C   UNL     1       3.406  -6.154  -4.320  0.00  0.00    +0.115 C 
ATOM      5  C   UNL     1       1.908  -5.811  -4.194  0.00  0.00    -0.004 C 
ATOM      6  C   UNL     1       1.138  -6.361  -5.391  0.00  0.00    -0.010 C 
ATOM      7  C   UNL     1       1.169  -7.891  -5.353  0.00  0.00    -0.082 C 
ATOM      8  N   UNL     1       0.568  -8.364  -4.100  0.00  0.00    +0.379 N 
ATOM      9  C   UNL     1       1.369  -7.908  -2.957  0.00  0.00    -0.082 C 
ATOM     10  C   UNL     1       1.346  -6.378  -2.893  0.00  0.00    -0.010 C 
ATOM     11  C   UNL     1       5.218  -4.917  -3.033  0.00  0.00    +0.250 C 
ATOM     12  O   UNL     1       5.620  -3.855  -2.600  0.00  0.00    -0.270 OA
ATOM     13  H   UNL     1      -0.369  -7.999  -4.019  0.00  0.00    -0.086 HD
ATOM     14  H   UNL     1       0.534  -9.372  -4.104  0.00  0.00    -0.086 HD
ENDROOT
BRANCH  11  15
ATOM     15  C   UNL     1       5.944  -6.163  -2.724  0.00  0.00    +0.078 A 
ATOM     16  C   UNL     1       6.018  -7.187  -3.671  0.00  0.00    +0.017 A 
ATOM     17  C   UNL     1       6.699  -8.348  -3.376  0.00  0.00    +0.001 A 
ATOM     18  C   UNL     1       7.311  -8.506  -2.143  0.00  0.00    +0.004 A 
ATOM     19  C   UNL     1       7.246  -7.502  -1.198  0.00  0.00    +0.046 A 
ATOM     20  C   UNL     1       6.570  -6.324  -1.480  0.00  0.00    +0.133 A 
BRANCH  20  21
ATOM     21  O   UNL     1       6.509  -5.334  -0.554  0.00  0.00    -0.491 OA
BRANCH  21  22
ATOM     22  C   UNL     1       7.170  -5.569   0.691  0.00  0.00    +0.226 C 
ATOM     23  C   UNL     1       6.994  -4.351   1.600  0.00  0.00    +0.048 C 
ENDBRANCH  21  22
ENDBRANCH  20  21
ENDBRANCH  11  15
BRANCH   1  25
ATOM     24  N   UNL     1      -0.071  -3.518  -2.805  0.00  0.00    -0.315 N 
ATOM     25  C   UNL     1       1.247  -3.789  -2.881  0.00  0.00    +0.218 C 
ATOM     26  O   UNL     1       1.954  -3.642  -1.907  0.00  0.00    -0.275 OA
ATOM     27  H   UNL     1      -0.636  -3.635  -3.584  0.00  0.00    +0.149 HD
BRANCH  24  28
ATOM     28  C   UNL     1      -0.650  -3.045  -1.544  0.00  0.00    +0.107 C 
BRANCH  28  29
ATOM     29  C   UNL     1      -2.151  -2.814  -1.727  0.00  0.00    +0.003 C 
ATOM     30  C   UNL     1      -2.374  -1.677  -2.727  0.00  0.00    +0.009 C 
BRANCH  29  32
ATOM     31  C   UNL     1      -4.295  -2.332  -0.539  0.00  0.00    +0.004 C 
ATOM     32  C   UNL     1      -2.777  -2.441  -0.382  0.00  0.00    +0.001 C 
ENDBRANCH  29  32
ENDBRANCH  28  29
ENDBRANCH  24  28
ENDBRANCH   1  25
TORSDOF 7
