REMARK  Name = ZINC09695078
REMARK  11 active torsions:
REMARK  status: ('A' for Active; 'I' for Inactive)
REMARK    1  A    between atoms: C_1  and  C_2
REMARK    2  A    between atoms: C_7  and  O_8
REMARK    3  A    between atoms: O_8  and  C_9
REMARK    4  A    between atoms: C_9  and  C_10
REMARK    5  A    between atoms: C_13  and  C_15
REMARK    6  A    between atoms: N_16  and  N_17
REMARK    7  A    between atoms: C_18  and  C_20
REMARK    8  A    between atoms: C_20  and  C_21
REMARK    9  A    between atoms: C_21  and  C_22
REMARK   10  A    between atoms: C_22  and  N_23
REMARK   11  A    between atoms: N_23  and  C_24
REMARK                            x       y       z     vdW  Elec       q    Type
REMARK                         _______ _______ _______ _____ _____    ______ ____
ROOT
ATOM      1  C   UNL     1       1.101   2.062   0.003  0.00  0.00    +0.176 C 
ATOM      2  N   UNL     1      -0.017   1.397   0.010  0.00  0.00    -0.185 NA
ENDROOT
BRANCH   1   6
ATOM      3  C   UNL     1       0.345   5.597   0.030  0.00  0.00    +0.143 A 
ATOM      4  C   UNL     1       1.692   5.667   0.017  0.00  0.00    +0.049 A 
ATOM      5  C   UNL     1       2.174   4.345   0.010  0.00  0.00    +0.051 A 
ATOM      6  C   UNL     1       1.081   3.528   0.011  0.00  0.00    +0.148 A 
ATOM      7  O   UNL     1      -0.021   4.305   0.026  0.00  0.00    -0.455 OA
BRANCH   3   8
ATOM      8  C   UNL     1      -0.595   6.776   0.046  0.00  0.00    +0.303 C 
BRANCH   8   9
ATOM      9  O   UNL     1      -0.905   7.156  -1.296  0.00  0.00    -0.483 OA
BRANCH   9  16
ATOM     10  C   UNL     1       0.248   9.729  -1.462  0.00  0.00    +0.047 C 
ATOM     11  C   UNL     1      -1.238   9.498  -1.548  0.00  0.00    -0.007 A 
ATOM     12  C   UNL     1      -2.096  10.569  -1.714  0.00  0.00    +0.007 A 
ATOM     13  C   UNL     1      -3.460  10.358  -1.792  0.00  0.00    +0.002 A 
ATOM     14  C   UNL     1      -3.970   9.075  -1.704  0.00  0.00    +0.024 A 
ATOM     15  C   UNL     1      -3.116   8.001  -1.544  0.00  0.00    +0.083 A 
ATOM     16  C   UNL     1      -1.746   8.211  -1.460  0.00  0.00    +0.142 A 
ATOM     17 CL   UNL     1      -3.756   6.390  -1.442  0.00  0.00    -0.080 Cl
ENDBRANCH   9  16
ENDBRANCH   8   9
ENDBRANCH   3   8
ENDBRANCH   1   6
BRANCH   2  18
ATOM     18  N   UNL     1       0.002  -0.004   0.002  0.00  0.00    -0.207 N 
ATOM     19  C   UNL     1      -1.156  -0.694   0.009  0.00  0.00    +0.232 C 
ATOM     20  O   UNL     1      -2.215  -0.102   0.023  0.00  0.00    -0.274 OA
ATOM     21  H   UNL     1       0.849  -0.478  -0.009  0.00  0.00    +0.177 HD
BRANCH  19  22
ATOM     22  C   UNL     1      -1.135  -2.201   0.001  0.00  0.00    +0.099 C 
BRANCH  22  23
ATOM     23  C   UNL     1      -2.571  -2.730   0.012  0.00  0.00    +0.028 C 
BRANCH  23  24
ATOM     24  C   UNL     1      -2.550  -4.260   0.004  0.00  0.00    +0.102 C 
BRANCH  24  25
ATOM     25  N   UNL     1      -3.924  -4.767   0.014  0.00  0.00    -0.344 N 
ATOM     26  H   UNL     1      -4.670  -4.147   0.024  0.00  0.00    +0.146 HD
BRANCH  25  27
ATOM     27  C   UNL     1      -4.161  -6.144   0.009  0.00  0.00    +0.027 A 
ATOM     28  C   UNL     1      -3.094  -7.034  -0.012  0.00  0.00    +0.024 A 
ATOM     29  C   UNL     1      -3.331  -8.394  -0.012  0.00  0.00    +0.017 A 
ATOM     30  C   UNL     1      -4.630  -8.871  -0.002  0.00  0.00    +0.018 A 
ATOM     31  C   UNL     1      -5.694  -7.988   0.013  0.00  0.00    +0.017 A 
ATOM     32  C   UNL     1      -5.464  -6.626   0.019  0.00  0.00    +0.024 A 
ATOM     33 BR   UNL     1      -4.950 -10.735  -0.009  0.00  0.00    -0.050 Br
ENDBRANCH  25  27
ENDBRANCH  24  25
ENDBRANCH  23  24
ENDBRANCH  22  23
ENDBRANCH  19  22
ENDBRANCH   2  18
TORSDOF 10
