REMARK  Name = ZINC45525806
REMARK  7 active torsions:
REMARK  status: ('A' for Active; 'I' for Inactive)
REMARK    1  A    between atoms: C_1  and  C_2
REMARK    2  A    between atoms: N_5  and  C_11
REMARK    3  A    between atoms: C_7  and  C_10
REMARK    4  A    between atoms: C_11  and  C_12
REMARK    5  A    between atoms: C_12  and  N_13
REMARK    6  A    between atoms: N_16  and  N_17
REMARK    7  A    between atoms: C_18  and  C_20
REMARK                            x       y       z     vdW  Elec       q    Type
REMARK                         _______ _______ _______ _____ _____    ______ ____
ROOT
ATOM      1  N   UNL     1       4.906  -0.172  -3.706  0.00  0.00    -0.297 N 
ATOM      2  C   UNL     1       6.137   0.314  -3.961  0.00  0.00    +0.316 C 
ATOM      3  O   UNL     1       6.659   1.088  -3.183  0.00  0.00    -0.251 OA
ATOM      4  N   UNL     1       6.790  -0.059  -5.080  0.00  0.00    -0.218 N 
ATOM      5  H   UNL     1       4.490  -0.789  -4.328  0.00  0.00    +0.150 HD
ATOM      6  H   UNL     1       7.676   0.291  -5.264  0.00  0.00    +0.174 HD
ENDROOT
BRANCH   4   7
ATOM      7  N   UNL     1       6.189  -0.951  -5.978  0.00  0.00    -0.228 N 
ATOM      8  C   UNL     1       6.842  -1.324  -7.096  0.00  0.00    +0.276 C 
ATOM      9  O   UNL     1       7.954  -0.885  -7.327  0.00  0.00    -0.267 OA
ATOM     10  H   UNL     1       5.303  -1.300  -5.794  0.00  0.00    +0.173 HD
BRANCH   8  11
ATOM     11  C   UNL     1       6.213  -2.258  -8.036  0.00  0.00    +0.104 A 
ATOM     12  C   UNL     1       6.764  -2.728  -9.209  0.00  0.00    +0.047 A 
ATOM     13  C   UNL     1       5.826  -3.590  -9.787  0.00  0.00    +0.036 A 
ATOM     14  C   UNL     1       4.743  -3.631  -8.974  0.00  0.00    +0.098 A 
ATOM     15  N   UNL     1       4.968  -2.829  -7.903  0.00  0.00    -0.356 N 
ATOM     16  H   UNL     1       4.353  -2.682  -7.168  0.00  0.00    +0.166 HD
ATOM     17 BR   UNL     1       6.033  -4.531 -11.414  0.00  0.00    -0.049 Br
ENDBRANCH   8  11
ENDBRANCH   4   7
BRANCH   1  18
ATOM     18  C   UNL     1       4.197   0.234  -2.490  0.00  0.00    +0.121 C 
BRANCH  18  19
ATOM     19  C   UNL     1       2.832  -0.456  -2.443  0.00  0.00    +0.103 C 
BRANCH  19  23
ATOM     20  C   UNL     1      -0.019   1.526   0.010  0.00  0.00    +0.039 C 
ATOM     21  C   UNL     1       0.002  -0.004   0.002  0.00  0.00    +0.130 C 
ATOM     22  C   UNL     1       0.720  -0.499  -1.256  0.00  0.00    +0.115 C 
ATOM     23  N   UNL     1       2.120  -0.050  -1.224  0.00  0.00    -0.296 NA
ATOM     24  C   UNL     1       2.801  -0.554  -0.023  0.00  0.00    +0.115 C 
ATOM     25  C   UNL     1       2.062  -0.059   1.223  0.00  0.00    +0.130 C 
ATOM     26  O   UNL     1       0.695  -0.479   1.159  0.00  0.00    -0.371 OA
ATOM     27  C   UNL     1       2.719  -0.646   2.474  0.00  0.00    +0.039 C 
ENDBRANCH  19  23
ENDBRANCH  18  19
ENDBRANCH   1  18
TORSDOF 5
