REMARK  Name = ZINC49150142
REMARK  8 active torsions:
REMARK  status: ('A' for Active; 'I' for Inactive)
REMARK    1  A    between atoms: C_1  and  C_2
REMARK    2  A    between atoms: C_2  and  C_3
REMARK    3  A    between atoms: C_4  and  C_21
REMARK    4  A    between atoms: N_8  and  S_9
REMARK    5  A    between atoms: S_9  and  C_12
REMARK    6  A    between atoms: C_13  and  C_20
REMARK    7  A    between atoms: C_14  and  C_19
REMARK    8  A    between atoms: C_17  and  N_18
REMARK                            x       y       z     vdW  Elec       q    Type
REMARK                         _______ _______ _______ _____ _____    ______ ____
ROOT
ATOM      1  S   UNL     1       2.122  -2.018  -6.702  0.00  0.00    +0.103 S 
ATOM      2  O   UNL     1       2.926  -0.932  -7.143  0.00  0.00    -0.146 OA
ATOM      3  O   UNL     1       2.610  -3.351  -6.639  0.00  0.00    -0.146 OA
ENDROOT
BRANCH   1   9
ATOM      4  C   UNL     1       3.318  -1.200  -2.025  0.00  0.00    +0.027 A 
ATOM      5  C   UNL     1       4.543  -1.456  -2.486  0.00  0.00    +0.009 A 
ATOM      6  S   UNL     1       4.234  -1.775  -4.215  0.00  0.00    -0.053 S 
ATOM      7  C   UNL     1       2.463  -1.540  -4.195  0.00  0.00    +0.192 A 
ATOM      8  N   UNL     1       2.246  -1.241  -2.868  0.00  0.00    -0.336 N 
ATOM      9  N   UNL     1       1.602  -1.633  -5.178  0.00  0.00    -0.103 NA
ATOM     10  C   UNL     1       5.851  -1.470  -1.739  0.00  0.00    +0.053 C 
ATOM     11  H   UNL     1       1.351  -1.061  -2.540  0.00  0.00    +0.168 HD
BRANCH   4  13
ATOM     12  C   UNL     1       3.101   0.648  -0.386  0.00  0.00    +0.010 C 
ATOM     13  C   UNL     1       3.117  -0.871  -0.569  0.00  0.00    +0.050 C 
ENDBRANCH   4  13
ENDBRANCH   1   9
BRANCH   1  14
ATOM     14  C   UNL     1       0.703  -2.050  -7.745  0.00  0.00    +0.136 A 
ATOM     15  C   UNL     1       0.327  -0.915  -8.437  0.00  0.00    -0.019 A 
ATOM     16  C   UNL     1      -0.787  -0.939  -9.255  0.00  0.00    -0.046 A 
ATOM     17  C   UNL     1      -1.529  -2.099  -9.384  0.00  0.00    +0.005 A 
ATOM     18  C   UNL     1      -1.159  -3.237  -8.696  0.00  0.00    +0.025 A 
ATOM     19  C   UNL     1      -0.037  -3.218  -7.877  0.00  0.00    +0.052 A 
ATOM     20  C   UNL     1      -1.194   0.302 -10.008  0.00  0.00    +0.044 C 
ATOM     21  C   UNL     1       1.133   0.351  -8.300  0.00  0.00    +0.046 C 
BRANCH  19  22
ATOM     22  N   UNL     1       0.343  -4.369  -7.183  0.00  0.00    -0.356 N 
ATOM     23  H   UNL     1       0.929  -4.300  -6.413  0.00  0.00    +0.142 HD
ATOM     24  H   UNL     1       0.020  -5.237  -7.470  0.00  0.00    +0.142 HD
ENDBRANCH  19  22
ENDBRANCH   1  14
TORSDOF 4
