REMARK  Name = ZINC25229362
REMARK  8 active torsions:
REMARK  status: ('A' for Active; 'I' for Inactive)
REMARK    1  A    between atoms: C_1  and  C_2
REMARK    2  A    between atoms: C_2  and  C_4
REMARK    3  A    between atoms: C_2  and  N_15
REMARK    4  A    between atoms: N_9  and  C_10
REMARK    5  A    between atoms: C_10  and  C_11
REMARK    6  A    between atoms: N_15  and  C_16
REMARK    7  A    between atoms: C_16  and  C_17
REMARK    8  A    between atoms: C_17  and  N_23
REMARK                            x       y       z     vdW  Elec       q    Type
REMARK                         _______ _______ _______ _____ _____    ______ ____
ROOT
ATOM      1  N   UNL     1       1.567   2.883   2.486  0.00  0.00    +0.388 N 
ATOM      2  H   UNL     1       1.178   3.225   3.457  0.00  0.00    -0.085 HD
ATOM      3  H   UNL     1       0.977   3.334   1.675  0.00  0.00    -0.085 HD
ENDROOT
BRANCH   1   5
ATOM      4  C   UNL     1       3.656   3.220   3.719  0.00  0.00    -0.004 C 
ATOM      5  C   UNL     1       2.973   3.288   2.352  0.00  0.00    +0.013 C 
BRANCH   5   6
ATOM      6  C   UNL     1       3.041   4.698   1.825  0.00  0.00    +0.206 C 
ATOM      7  O   UNL     1       2.020   5.306   1.586  0.00  0.00    -0.277 OA
ATOM      8  N   UNL     1       4.238   5.284   1.621  0.00  0.00    -0.242 N 
ATOM      9  C   UNL     1       4.299   6.545   1.150  0.00  0.00    +0.306 C 
ATOM     10  O   UNL     1       3.276   7.155   0.910  0.00  0.00    -0.252 OA
ATOM     11  N   UNL     1       5.496   7.131   0.946  0.00  0.00    -0.291 N 
ATOM     12  H   UNL     1       5.165   4.732   1.838  0.00  0.00    +0.159 HD
ATOM     13  H   UNL     1       6.422   6.579   1.163  0.00  0.00    +0.151 HD
BRANCH  11  14
ATOM     14  C   UNL     1       5.562   8.502   0.434  0.00  0.00    +0.219 C 
BRANCH  14  15
ATOM     15  C   UNL     1       7.027   8.924   0.294  0.00  0.00    +0.405 C 
ATOM     16  F   UNL     1       7.677   8.062  -0.596  0.00  0.00    -0.169 F 
ATOM     17  F   UNL     1       7.090  10.233  -0.195  0.00  0.00    -0.169 F 
ATOM     18  F   UNL     1       7.651   8.862   1.544  0.00  0.00    -0.169 F 
ENDBRANCH  14  15
ENDBRANCH  11  14
ENDBRANCH   5   6
ENDBRANCH   1   5
BRANCH   1  19
ATOM     19  C   UNL     1       1.431   1.422   2.412  0.00  0.00    -0.059 C 
BRANCH  19  20
ATOM     20  C   UNL     1      -0.052   1.046   2.457  0.00  0.00    +0.007 C 
ATOM     21  C   UNL     1      -0.201  -0.464   2.262  0.00  0.00    +0.020 C 
ATOM     22  C   UNL     1       0.547  -1.198   3.378  0.00  0.00    +0.002 C 
ATOM     23  C   UNL     1      -0.040  -0.799   4.733  0.00  0.00    +0.000 C 
ATOM     24  C   UNL     1       0.109   0.712   4.928  0.00  0.00    +0.002 C 
ATOM     25  C   UNL     1      -0.638   1.446   3.813  0.00  0.00    +0.020 C 
BRANCH  20  26
ATOM     26  N   UNL     1      -0.769   1.751   1.386  0.00  0.00    -0.294 NA
ATOM     27  C   UNL     1      -2.208   1.452   1.431  0.00  0.00    +0.113 C 
ATOM     28  C   UNL     1      -2.924   2.250   0.338  0.00  0.00    +0.175 C 
ATOM     29  O   UNL     1      -2.345   1.937  -0.931  0.00  0.00    -0.377 OA
ATOM     30  C   UNL     1      -0.945   2.218  -1.010  0.00  0.00    +0.175 C 
ATOM     31  C   UNL     1      -0.209   1.419   0.068  0.00  0.00    +0.113 C 
ENDBRANCH  20  26
ENDBRANCH  19  20
ENDBRANCH   1  19
TORSDOF 7
