REMARK  Name = ZINC17162161
REMARK  11 active torsions:
REMARK  status: ('A' for Active; 'I' for Inactive)
REMARK    1  A    between atoms: C_1  and  C_2
REMARK    2  A    between atoms: C_2  and  C_3
REMARK    3  A    between atoms: C_2  and  O_4
REMARK    4  A    between atoms: O_4  and  C_5
REMARK    5  A    between atoms: C_8  and  C_11
REMARK    6  A    between atoms: C_11  and  C_13
REMARK    7  A    between atoms: N_17  and  C_29
REMARK    8  A    between atoms: C_18  and  C_20
REMARK    9  A    between atoms: C_23  and  N_26
REMARK   10  A    between atoms: C_29  and  C_30
REMARK   11  A    between atoms: C_30  and  N_31
REMARK                            x       y       z     vdW  Elec       q    Type
REMARK                         _______ _______ _______ _____ _____    ______ ____
ROOT
ATOM      1  C   UNL     1      -1.254   2.735   2.715  0.00  0.00    +0.076 C 
ATOM      2  C   UNL     1      -1.966   1.781   2.071  0.00  0.00    +0.249 C 
ATOM      3  C   UNL     1      -1.317   1.481   0.777  0.00  0.00    +0.288 C 
ATOM      4  O   UNL     1      -1.718   0.667  -0.032  0.00  0.00    -0.266 OA
ATOM      5  N   UNL     1      -0.218   2.242   0.627  0.00  0.00    -0.282 N 
ATOM      6  C   UNL     1      -0.084   3.082   1.823  0.00  0.00    +0.145 C 
ATOM      7  O   UNL     1      -3.092   1.195   2.537  0.00  0.00    -0.282 OA
ENDROOT
BRANCH   6   8
ATOM      8  C   UNL     1      -0.141   4.539   1.442  0.00  0.00    -0.022 A 
ATOM      9  C   UNL     1      -1.159   5.002   0.629  0.00  0.00    +0.008 A 
ATOM     10  C   UNL     1      -1.214   6.339   0.284  0.00  0.00    +0.033 A 
ATOM     11  C   UNL     1      -0.245   7.212   0.743  0.00  0.00    +0.126 A 
ATOM     12  C   UNL     1       0.776   6.748   1.552  0.00  0.00    +0.033 A 
ATOM     13  C   UNL     1       0.828   5.412   1.901  0.00  0.00    +0.008 A 
BRANCH  11  14
ATOM     14  N   UNL     1      -0.301   8.643   0.369  0.00  0.00    +0.056 N 
ATOM     15  O   UNL     1       0.552   9.412   0.774  0.00  0.00    -0.126 OA
ATOM     16  O   UNL     1      -1.200   9.052  -0.344  0.00  0.00    -0.126 OA
ENDBRANCH  11  14
ENDBRANCH   6   8
BRANCH   1  17
ATOM     17  C   UNL     1      -1.556   3.316   4.027  0.00  0.00    +0.195 C 
ATOM     18  O   UNL     1      -2.559   3.988   4.178  0.00  0.00    -0.287 OA
BRANCH  17  22
ATOM     19  C   UNL     1       1.069   2.649   7.299  0.00  0.00    +0.121 A 
ATOM     20  C   UNL     1      -0.094   3.389   7.482  0.00  0.00    +0.046 A 
ATOM     21  C   UNL     1      -0.947   3.608   6.424  0.00  0.00    +0.015 A 
ATOM     22  C   UNL     1      -0.643   3.084   5.164  0.00  0.00    +0.022 A 
ATOM     23  C   UNL     1       0.524   2.336   4.985  0.00  0.00    +0.015 A 
ATOM     24  C   UNL     1       1.375   2.127   6.047  0.00  0.00    +0.046 A 
BRANCH  19  25
ATOM     25  O   UNL     1       1.907   2.436   8.344  0.00  0.00    -0.489 OA
BRANCH  25  27
ATOM     26  C   UNL     1       0.573   2.016  10.316  0.00  0.00    +0.051 C 
ATOM     27  C   UNL     1       1.522   2.984   9.607  0.00  0.00    +0.167 C 
ATOM     28  C   UNL     1       2.767   3.202  10.469  0.00  0.00    +0.051 C 
ENDBRANCH  25  27
ENDBRANCH  19  25
ENDBRANCH  17  22
ENDBRANCH   1  17
BRANCH   5  29
ATOM     29  C   UNL     1       0.688   2.231  -0.524  0.00  0.00    +0.124 C 
BRANCH  29  30
ATOM     30  C   UNL     1       0.209   3.249  -1.561  0.00  0.00    +0.103 C 
BRANCH  30  31
ATOM     31  N   UNL     1       1.118   3.237  -2.715  0.00  0.00    -0.304 NA
ATOM     32  C   UNL     1       1.412   1.861  -3.140  0.00  0.00    +0.065 C 
ATOM     33  C   UNL     1       2.421   1.890  -4.290  0.00  0.00    -0.067 C 
ATOM     34  N   UNL     1       1.869   2.675  -5.403  0.00  0.00    +0.381 N 
ATOM     35  C   UNL     1       1.576   4.051  -4.978  0.00  0.00    -0.067 C 
ATOM     36  C   UNL     1       0.566   4.022  -3.828  0.00  0.00    +0.065 C 
ATOM     37  H   UNL     1       2.599   2.707  -6.226  0.00  0.00    -0.086 HD
ATOM     38  H   UNL     1       0.939   2.208  -5.756  0.00  0.00    -0.086 HD
ENDBRANCH  30  31
ENDBRANCH  29  30
ENDBRANCH   5  29
TORSDOF 9
