REMARK  Name = ZINC38796893
REMARK  11 active torsions:
REMARK  status: ('A' for Active; 'I' for Inactive)
REMARK    1  A    between atoms: C_1  and  C_2
REMARK    2  A    between atoms: C_2  and  O_3
REMARK    3  A    between atoms: O_3  and  C_4
REMARK    4  A    between atoms: C_4  and  C_6
REMARK    5  A    between atoms: C_10  and  C_14
REMARK    6  A    between atoms: C_14  and  N_15
REMARK    7  A    between atoms: N_15  and  C_16
REMARK    8  A    between atoms: N_15  and  C_17
REMARK    9  A    between atoms: C_17  and  C_18
REMARK   10  A    between atoms: N_20  and  C_21
REMARK   11  A    between atoms: C_29  and  C_31
REMARK                            x       y       z     vdW  Elec       q    Type
REMARK                         _______ _______ _______ _____ _____    ______ ____
ROOT
ATOM      1  C   UNL     1       1.485  -2.347  -2.509  0.00  0.00    +0.094 C 
ATOM      2  C   UNL     1       1.661  -3.656  -2.815  0.00  0.00    +0.114 C 
ATOM      3  C   UNL     1       2.395  -3.752  -4.091  0.00  0.00    +0.230 C 
ATOM      4  N   UNL     1       2.662  -4.960  -4.555  0.00  0.00    -0.198 NA
ATOM      5  C   UNL     1       2.290  -6.055  -3.910  0.00  0.00    +0.140 C 
ATOM      6  N   UNL     1       1.637  -6.069  -2.776  0.00  0.00    -0.160 NA
ATOM      7  C   UNL     1       1.281  -4.929  -2.156  0.00  0.00    +0.275 C 
ATOM      8  O   UNL     1       0.673  -4.943  -1.100  0.00  0.00    -0.268 OA
ATOM      9  O   UNL     1       2.660  -2.516  -4.548  0.00  0.00    -0.468 OA
ATOM     10  C   UNL     1       2.124  -1.559  -3.630  0.00  0.00    +0.210 C 
ATOM     11  C   UNL     1       3.249  -0.680  -3.079  0.00  0.00    +0.057 C 
ENDROOT
BRANCH   1  12
ATOM     12  C   UNL     1       0.798  -1.798  -1.316  0.00  0.00    +0.340 C 
ATOM     13  O   UNL     1       0.327  -2.549  -0.488  0.00  0.00    -0.245 OA
BRANCH  12  14
ATOM     14  O   UNL     1       0.697  -0.464  -1.152  0.00  0.00    -0.462 OA
BRANCH  14  16
ATOM     15  C   UNL     1       0.006   1.525   0.034  0.00  0.00    +0.048 C 
ATOM     16  C   UNL     1       0.022  -0.005   0.021  0.00  0.00    +0.229 C 
ENDBRANCH  14  16
ENDBRANCH  12  14
ENDBRANCH   1  12
BRANCH   5  17
ATOM     17  C   UNL     1       2.645  -7.383  -4.528  0.00  0.00    +0.158 C 
BRANCH  17  18
ATOM     18  N   UNL     1       2.151  -8.469  -3.671  0.00  0.00    -0.290 NA
ATOM     19  C   UNL     1       0.683  -8.483  -3.632  0.00  0.00    +0.105 C 
BRANCH  18  20
ATOM     20  C   UNL     1       2.679  -9.767  -4.110  0.00  0.00    +0.181 C 
BRANCH  20  21
ATOM     21  C   UNL     1       2.357 -10.816  -3.077  0.00  0.00    +0.231 C 
ATOM     22  O   UNL     1       1.748 -10.511  -2.073  0.00  0.00    -0.274 OA
ATOM     23  N   UNL     1       2.746 -12.092  -3.268  0.00  0.00    -0.284 N 
ATOM     24  H   UNL     1       3.161 -12.352  -4.105  0.00  0.00    +0.155 HD
BRANCH  23  25
ATOM     25  C   UNL     1       2.550 -13.042  -2.259  0.00  0.00    +0.047 A 
ATOM     26  C   UNL     1       2.456 -12.640  -0.933  0.00  0.00    +0.024 A 
ATOM     27  C   UNL     1       2.262 -13.579   0.060  0.00  0.00    +0.002 A 
ATOM     28  C   UNL     1       2.163 -14.920  -0.264  0.00  0.00    +0.001 A 
ATOM     29  C   UNL     1       2.257 -15.325  -1.582  0.00  0.00    +0.017 A 
ATOM     30  C   UNL     1       2.444 -14.389  -2.582  0.00  0.00    +0.039 A 
ATOM     31 BR   UNL     1       2.565 -14.943  -4.386  0.00  0.00    -0.048 Br
ENDBRANCH  23  25
ENDBRANCH  20  21
ENDBRANCH  18  20
ENDBRANCH  17  18
ENDBRANCH   5  17
TORSDOF 8
