REMARK  Name = ZINC64056700
REMARK  8 active torsions:
REMARK  status: ('A' for Active; 'I' for Inactive)
REMARK    1  A    between atoms: C_4  and  C_7
REMARK    2  A    between atoms: C_9  and  C_17
REMARK    3  A    between atoms: C_17  and  C_19
REMARK    4  A    between atoms: C_19  and  O_20
REMARK    5  A    between atoms: O_20  and  C_21
REMARK    6  A    between atoms: C_21  and  C_23
REMARK    7  A    between atoms: C_26  and  O_30
REMARK    8  A    between atoms: C_28  and  O_29
REMARK                            x       y       z     vdW  Elec       q    Type
REMARK                         _______ _______ _______ _____ _____    ______ ____
ROOT
ATOM      1  C   UNL     1       3.711  -0.707  -0.038  0.00  0.00    +0.144 C 
ATOM      2  C   UNL     1       4.049  -1.204   1.351  0.00  0.00    +0.034 C 
ATOM      3  C   UNL     1       4.122  -2.581   1.246  0.00  0.00    +0.007 A 
ATOM      4  C   UNL     1       4.398  -3.604   2.183  0.00  0.00    +0.010 A 
ATOM      5  C   UNL     1       4.405  -4.899   1.795  0.00  0.00    +0.001 A 
ATOM      6  C   UNL     1       4.143  -5.291   0.472  0.00  0.00    +0.002 A 
ATOM      7  C   UNL     1       3.868  -4.394  -0.498  0.00  0.00    +0.026 A 
ATOM      8  C   UNL     1       3.841  -2.961  -0.161  0.00  0.00    +0.044 A 
ATOM      9  N   UNL     1       3.611  -1.900  -0.884  0.00  0.00    -0.373 N 
ATOM     10  H   UNL     1       3.405  -1.900  -1.831  0.00  0.00    +0.161 HD
ENDROOT
BRANCH   1  14
ATOM     11  C   UNL     1      -0.017   1.378   0.010  0.00  0.00    +0.000 A 
ATOM     12  C   UNL     1       1.171   2.086   0.002  0.00  0.00    +0.000 A 
ATOM     13  C   UNL     1       2.377   1.411  -0.013  0.00  0.00    +0.006 A 
ATOM     14  C   UNL     1       2.396   0.029  -0.020  0.00  0.00    -0.021 A 
ATOM     15  C   UNL     1       1.208  -0.679  -0.012  0.00  0.00    +0.006 A 
ATOM     16  C   UNL     1       0.002  -0.004   0.002  0.00  0.00    +0.000 A 
ENDBRANCH   1  14
BRANCH   2  17
ATOM     17  C   UNL     1       4.247  -0.425   2.511  0.00  0.00    +0.199 C 
ATOM     18  O   UNL     1       4.150   0.784   2.454  0.00  0.00    -0.289 OA
BRANCH  17  19
ATOM     19  C   UNL     1       4.579  -1.093   3.820  0.00  0.00    +0.311 C 
BRANCH  19  20
ATOM     20  O   UNL     1       4.731  -0.101   4.837  0.00  0.00    -0.453 OA
BRANCH  20  21
ATOM     21  C   UNL     1       5.032  -0.536   6.077  0.00  0.00    +0.343 C 
ATOM     22  O   UNL     1       5.161  -1.726   6.288  0.00  0.00    -0.245 OA
BRANCH  21  23
ATOM     23  C   UNL     1       5.203   0.429   7.174  0.00  0.00    +0.100 A 
ATOM     24  C   UNL     1       5.049   1.799   6.935  0.00  0.00    +0.022 A 
ATOM     25  C   UNL     1       5.209   2.693   7.954  0.00  0.00    +0.046 A 
ATOM     26  C   UNL     1       5.525   2.252   9.235  0.00  0.00    +0.120 A 
ATOM     27  C   UNL     1       5.681   0.897   9.490  0.00  0.00    +0.091 A 
ATOM     28  C   UNL     1       5.516  -0.021   8.466  0.00  0.00    +0.134 A 
BRANCH  28  29
ATOM     29  O   UNL     1       5.662  -1.347   8.710  0.00  0.00    -0.506 OA
ATOM     30  H   UNL     1       6.566  -1.672   8.593  0.00  0.00    +0.292 HD
ENDBRANCH  28  29
BRANCH  26  31
ATOM     31  O   UNL     1       5.682   3.150  10.240  0.00  0.00    -0.507 OA
ATOM     32  H   UNL     1       4.867   3.348  10.722  0.00  0.00    +0.292 HD
ENDBRANCH  26  31
ENDBRANCH  21  23
ENDBRANCH  20  21
ENDBRANCH  19  20
ENDBRANCH  17  19
ENDBRANCH   2  17
TORSDOF 8
