REMARK  Name = ZINC21839232
REMARK  9 active torsions:
REMARK  status: ('A' for Active; 'I' for Inactive)
REMARK    1  A    between atoms: C_1  and  C_2
REMARK    2  A    between atoms: C_2  and  O_3
REMARK    3  A    between atoms: O_3  and  C_4
REMARK    4  A    between atoms: C_4  and  C_6
REMARK    5  A    between atoms: C_7  and  C_13
REMARK    6  A    between atoms: C_13  and  O_14
REMARK    7  A    between atoms: O_14  and  C_15
REMARK    8  A    between atoms: C_15  and  C_17
REMARK    9  A    between atoms: C_28  and  C_30
REMARK                            x       y       z     vdW  Elec       q    Type
REMARK                         _______ _______ _______ _____ _____    ______ ____
ROOT
ATOM      1  C   UNL     1      -4.069   4.521   0.125  0.00  0.00    +0.190 C 
ATOM      2  C   UNL     1      -5.296   4.724  -0.762  0.00  0.00    +0.069 C 
ATOM      3  C   UNL     1      -4.952   4.501  -2.211  0.00  0.00    -0.040 A 
ATOM      4  C   UNL     1      -5.805   5.043  -3.166  0.00  0.00    +0.004 A 
ATOM      5  C   UNL     1      -5.559   4.859  -4.511  0.00  0.00    +0.000 A 
ATOM      6  C   UNL     1      -4.450   4.140  -4.915  0.00  0.00    +0.000 A 
ATOM      7  C   UNL     1      -3.596   3.610  -3.970  0.00  0.00    +0.005 A 
ATOM      8  C   UNL     1      -3.844   3.791  -2.616  0.00  0.00    -0.027 A 
ATOM      9  C   UNL     1      -2.864   3.198  -1.635  0.00  0.00    +0.144 C 
ATOM     10  N   UNL     1      -3.421   3.262  -0.280  0.00  0.00    -0.279 N 
ATOM     11  C   UNL     1      -3.342   2.212   0.561  0.00  0.00    +0.249 C 
ATOM     12  O   UNL     1      -3.708   2.328   1.715  0.00  0.00    -0.270 OA
ENDROOT
BRANCH  11  13
ATOM     13  C   UNL     1      -2.813   0.919   0.080  0.00  0.00    +0.055 A 
ATOM     14  C   UNL     1      -1.451   0.632   0.197  0.00  0.00    +0.014 A 
ATOM     15  C   UNL     1      -0.963  -0.577  -0.254  0.00  0.00    +0.001 A 
ATOM     16  C   UNL     1      -1.819  -1.505  -0.821  0.00  0.00    +0.001 A 
ATOM     17  C   UNL     1      -3.169  -1.229  -0.940  0.00  0.00    +0.021 A 
ATOM     18  C   UNL     1      -3.673  -0.025  -0.487  0.00  0.00    +0.053 A 
ATOM     19 CL   UNL     1      -5.369   0.318  -0.629  0.00  0.00    -0.083 Cl
ENDBRANCH  11  13
BRANCH   1  20
ATOM     20  C   UNL     1      -4.492   4.435   1.569  0.00  0.00    +0.329 C 
ATOM     21  O   UNL     1      -3.873   5.032   2.417  0.00  0.00    -0.249 OA
BRANCH  20  22
ATOM     22  O   UNL     1      -5.557   3.694   1.913  0.00  0.00    -0.457 OA
BRANCH  22  23
ATOM     23  C   UNL     1      -5.907   3.656   3.322  0.00  0.00    +0.283 C 
BRANCH  23  25
ATOM     24  C   UNL     1      -7.672   2.675   4.743  0.00  0.00    +0.074 C 
ATOM     25  C   UNL     1      -7.119   2.782   3.515  0.00  0.00    +0.061 C 
ATOM     26  N   UNL     1      -7.636   2.105   2.448  0.00  0.00    -0.269 N 
ATOM     27  C   UNL     1      -8.709   1.307   2.524  0.00  0.00    +0.304 C 
ATOM     28  O   UNL     1      -9.097   0.746   1.518  0.00  0.00    -0.253 OA
ATOM     29  N   UNL     1      -9.372   1.105   3.680  0.00  0.00    -0.295 N 
ATOM     30  C   UNL     1      -8.892   1.790   4.892  0.00  0.00    +0.150 C 
ATOM     31  H   UNL     1      -7.169   2.201   1.457  0.00  0.00    +0.156 HD
ATOM     32  H   UNL     1     -10.252   0.447   3.732  0.00  0.00    +0.151 HD
BRANCH  24  33
ATOM     33  C   UNL     1      -7.133   3.371   5.851  0.00  0.00    +0.338 C 
ATOM     34  O   UNL     1      -6.098   3.998   5.730  0.00  0.00    -0.245 OA
BRANCH  33  35
ATOM     35  O   UNL     1      -7.768   3.339   7.041  0.00  0.00    -0.462 OA
BRANCH  35  37
ATOM     36  C   UNL     1      -8.024   3.911   9.375  0.00  0.00    +0.048 C 
ATOM     37  C   UNL     1      -7.168   4.064   8.116  0.00  0.00    +0.229 C 
ENDBRANCH  35  37
ENDBRANCH  33  35
ENDBRANCH  24  33
ENDBRANCH  23  25
ENDBRANCH  22  23
ENDBRANCH  20  22
ENDBRANCH   1  20
TORSDOF 8
