REMARK  Name = ZINC66705655
REMARK  5 active torsions:
REMARK  status: ('A' for Active; 'I' for Inactive)
REMARK    1  A    between atoms: C_3  and  C_26
REMARK    2  A    between atoms: C_5  and  O_7
REMARK    3  A    between atoms: O_7  and  C_8
REMARK    4  A    between atoms: C_8  and  C_9
REMARK    5  A    between atoms: C_15  and  C_18
REMARK                            x       y       z     vdW  Elec       q    Type
REMARK                         _______ _______ _______ _____ _____    ______ ____
ROOT
ATOM      1  C   UNL     1       0.167  -4.199  -0.023  0.00  0.00    +0.253 C 
ATOM      2  O   UNL     1       1.292  -4.652  -0.036  0.00  0.00    -0.272 OA
ATOM      3  N   UNL     1      -0.894  -5.029  -0.017  0.00  0.00    -0.294 N 
ATOM      4  C   UNL     1      -2.268  -4.503  -0.007  0.00  0.00    +0.136 C 
ATOM      5  C   UNL     1      -3.058  -5.191  -1.127  0.00  0.00    +0.179 C 
ATOM      6  O   UNL     1      -2.920  -6.608  -0.997  0.00  0.00    -0.369 OA
ATOM      7  C   UNL     1      -1.578  -7.081  -1.140  0.00  0.00    +0.166 C 
ATOM      8  C   UNL     1      -0.713  -6.489  -0.027  0.00  0.00    +0.144 C 
ENDROOT
BRANCH   7   9
ATOM      9  C   UNL     1      -1.562  -8.585  -1.049  0.00  0.00    -0.015 A 
ATOM     10  C   UNL     1      -2.445  -9.235  -0.206  0.00  0.00    +0.009 A 
ATOM     11  C   UNL     1      -2.432 -10.614  -0.120  0.00  0.00    +0.041 A 
ATOM     12  C   UNL     1      -1.536 -11.347  -0.879  0.00  0.00    +0.158 A 
ATOM     13  C   UNL     1      -0.651 -10.695  -1.725  0.00  0.00    +0.159 A 
ATOM     14  C   UNL     1      -0.670  -9.313  -1.812  0.00  0.00    +0.047 A 
ATOM     15  F   UNL     1       0.225 -11.407  -2.466  0.00  0.00    -0.202 F 
ATOM     16  F   UNL     1      -1.522 -12.695  -0.796  0.00  0.00    -0.202 F 
ENDBRANCH   7   9
BRANCH   1  17
ATOM     17  C   UNL     1      -0.044  -2.706  -0.012  0.00  0.00    +0.324 C 
BRANCH  17  18
ATOM     18  O   UNL     1       1.223  -2.046  -0.021  0.00  0.00    -0.483 OA
BRANCH  18  23
ATOM     19  C   UNL     1      -0.017   1.378   0.010  0.00  0.00    +0.004 A 
ATOM     20  C   UNL     1       1.166   2.089   0.002  0.00  0.00    +0.013 A 
ATOM     21  C   UNL     1       2.386   1.411  -0.013  0.00  0.00    +0.040 A 
ATOM     22  C   UNL     1       2.404   0.016  -0.021  0.00  0.00    +0.058 A 
ATOM     23  C   UNL     1       1.211  -0.687  -0.013  0.00  0.00    +0.122 A 
ATOM     24  C   UNL     1       0.002  -0.004   0.002  0.00  0.00    +0.046 A 
BRANCH  21  25
ATOM     25  C   UNL     1       3.656   2.169  -0.022  0.00  0.00    +0.242 C 
ATOM     26  O   UNL     1       4.717   1.577  -0.035  0.00  0.00    -0.270 OA
ATOM     27  N   UNL     1       3.636   3.517  -0.015  0.00  0.00    -0.325 N 
ATOM     28  H   UNL     1       2.789   3.989  -0.004  0.00  0.00    +0.145 HD
ATOM     29  H   UNL     1       4.469   4.014  -0.020  0.00  0.00    +0.145 HD
ENDBRANCH  21  25
ENDBRANCH  18  23
ENDBRANCH  17  18
ENDBRANCH   1  17
TORSDOF 5
