REMARK  Name = ZINC02433034
REMARK  7 active torsions:
REMARK  status: ('A' for Active; 'I' for Inactive)
REMARK    1  A    between atoms: C_1  and  C_2
REMARK    2  A    between atoms: C_2  and  C_3
REMARK    3  A    between atoms: C_2  and  C_4
REMARK    4  A    between atoms: C_4  and  N_5
REMARK    5  A    between atoms: C_6  and  N_28
REMARK    6  A    between atoms: C_7  and  S_18
REMARK    7  A    between atoms: S_18  and  C_21
REMARK                            x       y       z     vdW  Elec       q    Type
REMARK                         _______ _______ _______ _____ _____    ______ ____
ROOT
ATOM      1  N   UNL     1       0.610   6.781  -3.674  0.00  0.00    -0.311 N 
ATOM      2  C   UNL     1       0.989   6.392  -2.414  0.00  0.00    +0.126 A 
ATOM      3  C   UNL     1      -0.096   6.133  -1.647  0.00  0.00    +0.160 A 
ATOM      4  C   UNL     1      -1.252   6.369  -2.428  0.00  0.00    +0.135 A 
ATOM      5  C   UNL     1      -0.766   6.791  -3.748  0.00  0.00    +0.163 A 
ATOM      6  N   UNL     1      -1.628   7.082  -4.696  0.00  0.00    -0.226 NA
ATOM      7  C   UNL     1      -2.943   6.993  -4.453  0.00  0.00    +0.092 A 
ATOM      8  C   UNL     1      -3.872   7.303  -5.462  0.00  0.00    +0.030 A 
ATOM      9  C   UNL     1      -5.205   7.209  -5.207  0.00  0.00    +0.002 A 
ATOM     10  C   UNL     1      -5.670   6.810  -3.955  0.00  0.00    +0.002 A 
ATOM     11  C   UNL     1      -4.802   6.502  -2.954  0.00  0.00    +0.030 A 
ATOM     12  C   UNL     1      -3.414   6.586  -3.179  0.00  0.00    +0.090 A 
ATOM     13  N   UNL     1      -2.553   6.286  -2.201  0.00  0.00    -0.240 NA
ENDROOT
BRANCH   3  14
ATOM     14  S   UNL     1      -0.072   5.603   0.034  0.00  0.00    +0.030 S 
ATOM     15  O   UNL     1      -1.317   5.990   0.599  0.00  0.00    -0.164 OA
ATOM     16  O   UNL     1       1.173   6.022   0.575  0.00  0.00    -0.164 OA
BRANCH  14  17
ATOM     17  C   UNL     1      -0.050   3.841   0.023  0.00  0.00    +0.095 A 
ATOM     18  C   UNL     1       1.156   3.165   0.008  0.00  0.00    +0.027 A 
ATOM     19  C   UNL     1       1.175   1.783   0.000  0.00  0.00    +0.003 A 
ATOM     20  C   UNL     1      -0.013   1.076   0.008  0.00  0.00    +0.020 A 
ATOM     21  C   UNL     1      -1.220   1.751   0.017  0.00  0.00    +0.043 A 
ATOM     22  C   UNL     1      -1.238   3.135   0.031  0.00  0.00    +0.047 A 
ATOM     23 CL   UNL     1      -2.712   0.863   0.019  0.00  0.00    -0.083 Cl
ENDBRANCH  14  17
ENDBRANCH   3  14
BRANCH   2  24
ATOM     24  N   UNL     1       2.300   6.277  -1.987  0.00  0.00    -0.343 N 
ATOM     25  H   UNL     1       2.491   5.993  -1.079  0.00  0.00    +0.144 HD
ATOM     26  H   UNL     1       3.028   6.481  -2.595  0.00  0.00    +0.144 HD
ENDBRANCH   2  24
BRANCH   1  27
ATOM     27  C   UNL     1       1.522   7.134  -4.765  0.00  0.00    +0.128 C 
BRANCH  27  29
ATOM     28  C   UNL     1       2.591   8.951  -3.424  0.00  0.00    +0.009 C 
ATOM     29  C   UNL     1       1.827   8.632  -4.710  0.00  0.00    +0.003 C 
ATOM     30  C   UNL     1       2.678   9.024  -5.920  0.00  0.00    +0.009 C 
ENDBRANCH  27  29
ENDBRANCH   1  27
TORSDOF 5
