REMARK  Name = ZINC43758686
REMARK  7 active torsions:
REMARK  status: ('A' for Active; 'I' for Inactive)
REMARK    1  A    between atoms: C_1  and  C_2
REMARK    2  A    between atoms: C_2  and  C_4
REMARK    3  A    between atoms: C_2  and  O_31
REMARK    4  A    between atoms: C_4  and  O_30
REMARK    5  A    between atoms: C_9  and  C_29
REMARK    6  A    between atoms: C_21  and  C_28
REMARK    7  A    between atoms: C_24  and  O_27
REMARK                            x       y       z     vdW  Elec       q    Type
REMARK                         _______ _______ _______ _____ _____    ______ ____
ROOT
ATOM      1  C   UNL     1       0.742  -0.511   1.242  0.00  0.00    +0.098 C 
ATOM      2  C   UNL     1       2.244  -0.171   1.141  0.00  0.00    +0.038 C 
ATOM      3  C   UNL     1       2.998  -1.519   1.144  0.00  0.00    +0.007 C 
ATOM      4  C   UNL     1       1.943  -2.536   0.613  0.00  0.00    +0.002 C 
ATOM      5  C   UNL     1       0.666  -2.040   1.315  0.00  0.00    +0.009 C 
ATOM      6  C   UNL     1      -0.609  -2.601   0.728  0.00  0.00    +0.084 C 
ATOM      7  C   UNL     1      -0.590  -2.512  -0.781  0.00  0.00    +0.138 C 
ATOM      8  O   UNL     1      -1.516  -2.042  -1.398  0.00  0.00    -0.297 OA
ATOM      9  C   UNL     1       0.644  -3.039  -1.483  0.00  0.00    +0.065 C 
ATOM     10  C   UNL     1       1.865  -2.321  -0.900  0.00  0.00    +0.003 C 
ATOM     11  C   UNL     1       3.143  -2.829  -1.567  0.00  0.00    +0.005 C 
ATOM     12  C   UNL     1       3.065  -2.562  -3.073  0.00  0.00    +0.004 C 
ATOM     13  C   UNL     1       1.742  -1.866  -3.399  0.00  0.00    -0.002 C 
ATOM     14  C   UNL     1       0.542  -2.757  -2.982  0.00  0.00    -0.019 C 
ATOM     15  C   UNL     1      -0.789  -2.067  -3.287  0.00  0.00    +0.010 C 
ATOM     16  C   UNL     1      -0.885  -1.788  -4.788  0.00  0.00    +0.032 C 
ATOM     17  C   UNL     1       0.271  -0.880  -5.214  0.00  0.00    +0.115 C 
ATOM     18  C   UNL     1       1.664  -1.590  -4.901  0.00  0.00    +0.035 C 
ATOM     19  C   UNL     1       0.621  -4.075  -3.755  0.00  0.00    +0.012 C 
ATOM     20  C   UNL     1       0.731  -2.456   2.786  0.00  0.00    +0.015 C 
ENDROOT
BRANCH   1  22
ATOM     21  C   UNL     1       0.240   1.499  -0.155  0.00  0.00    +0.040 C 
ATOM     22  C   UNL     1       0.002  -0.004   0.002  0.00  0.00    +0.144 C 
BRANCH  22  23
ATOM     23  O   UNL     1      -1.398  -0.252   0.148  0.00  0.00    -0.389 OA
ATOM     24  H   UNL     1      -1.796   0.181   0.915  0.00  0.00    +0.210 HD
ENDBRANCH  22  23
ENDBRANCH   1  22
BRANCH  17  25
ATOM     25  O   UNL     1       0.196   0.353  -4.495  0.00  0.00    -0.392 OA
ATOM     26  H   UNL     1      -0.623   0.845  -4.643  0.00  0.00    +0.210 HD
ENDBRANCH  17  25
BRANCH   1  27
ATOM     27  O   UNL     1       0.181   0.068   2.421  0.00  0.00    -0.385 OA
ATOM     28  H   UNL     1       0.217   1.035   2.440  0.00  0.00    +0.210 HD
ENDBRANCH   1  27
TORSDOF 4
