REMARK  Name = ZINC04303417
REMARK  5 active torsions:
REMARK  status: ('A' for Active; 'I' for Inactive)
REMARK    1  A    between atoms: C_5  and  C_7
REMARK    2  A    between atoms: C_7  and  S_8
REMARK    3  A    between atoms: S_8  and  C_11
REMARK    4  A    between atoms: N_13  and  C_20
REMARK    5  A    between atoms: C_20  and  C_21
REMARK                            x       y       z     vdW  Elec       q    Type
REMARK                         _______ _______ _______ _____ _____    ______ ____
ROOT
ATOM      1  C   UNL     1       1.076   1.861   0.002  0.00  0.00    +0.114 A 
ATOM      2  C   UNL     1      -0.013   1.076   0.008  0.00  0.00    +0.114 A 
ATOM      3  N   UNL     1      -1.144   1.846   0.017  0.00  0.00    -0.336 N 
ATOM      4  C   UNL     1      -0.802   3.180   0.027  0.00  0.00    +0.051 A 
ATOM      5  C   UNL     1       0.604   3.248   0.014  0.00  0.00    +0.025 A 
ATOM      6  C   UNL     1       1.241   4.490   0.014  0.00  0.00    +0.012 A 
ATOM      7  C   UNL     1       0.495   5.635   0.028  0.00  0.00    +0.001 A 
ATOM      8  C   UNL     1      -0.891   5.573   0.041  0.00  0.00    +0.002 A 
ATOM      9  C   UNL     1      -1.541   4.358   0.040  0.00  0.00    +0.026 A 
ENDROOT
BRANCH   1  10
ATOM     10  S   UNL     1       2.755   1.326  -0.018  0.00  0.00    +0.003 S 
ATOM     11  O   UNL     1       3.373   2.033   1.048  0.00  0.00    -0.169 OA
ATOM     12  O   UNL     1       2.683  -0.093  -0.000  0.00  0.00    -0.169 OA
BRANCH  10  13
ATOM     13  C   UNL     1       3.408   1.899  -1.610  0.00  0.00    +0.209 C 
BRANCH  13  18
ATOM     14  C   UNL     1       7.177   1.962  -1.401  0.00  0.00    +0.000 A 
ATOM     15  C   UNL     1       7.507   0.744  -1.967  0.00  0.00    +0.003 A 
ATOM     16  C   UNL     1       6.511  -0.101  -2.418  0.00  0.00    +0.038 A 
ATOM     17  C   UNL     1       5.182   0.272  -2.303  0.00  0.00    +0.128 A 
ATOM     18  C   UNL     1       4.853   1.491  -1.736  0.00  0.00    +0.009 A 
ATOM     19  C   UNL     1       5.851   2.338  -1.291  0.00  0.00    +0.008 A 
ATOM     20  F   UNL     1       4.208  -0.553  -2.744  0.00  0.00    -0.205 F 
ENDBRANCH  13  18
ENDBRANCH  10  13
ENDBRANCH   1  10
BRANCH   3  21
ATOM     21  C   UNL     1      -2.514   1.329   0.020  0.00  0.00    +0.217 C 
BRANCH  21  22
ATOM     22  C   UNL     1      -3.034   1.274  -1.394  0.00  0.00    +0.238 C 
ATOM     23  O   UNL     1      -2.329   1.632  -2.313  0.00  0.00    -0.273 OA
ATOM     24  N   UNL     1      -4.282   0.827  -1.636  0.00  0.00    -0.266 N 
ATOM     25  C   UNL     1      -4.763   0.777  -2.945  0.00  0.00    +0.168 A 
ATOM     26  C   UNL     1      -4.068   1.157  -4.123  0.00  0.00    +0.088 A 
ATOM     27  C   UNL     1      -4.956   0.921  -5.116  0.00  0.00    +0.232 A 
ATOM     28  O   UNL     1      -6.065   0.444  -4.532  0.00  0.00    -0.361 OA
ATOM     29  N   UNL     1      -5.941   0.365  -3.332  0.00  0.00    -0.063 NA
ATOM     30  H   UNL     1      -4.846   0.541  -0.901  0.00  0.00    +0.156 HD
ENDBRANCH  21  22
ENDBRANCH   3  21
TORSDOF 5
