REMARK  Name = ZINC14475655
REMARK  3 active torsions:
REMARK  status: ('A' for Active; 'I' for Inactive)
REMARK    1  A    between atoms: C_3  and  O_28
REMARK    2  A    between atoms: C_4  and  C_10
REMARK    3  A    between atoms: C_6  and  N_7
REMARK                            x       y       z     vdW  Elec       q    Type
REMARK                         _______ _______ _______ _____ _____    ______ ____
ROOT
ATOM      1  C   UNL     1       0.118  -2.685  -0.601  0.00  0.00    +0.109 C 
ATOM      2  C   UNL     1      -1.036  -2.234   0.297  0.00  0.00    +0.029 C 
ATOM      3  C   UNL     1      -2.361  -2.746  -0.335  0.00  0.00    +0.033 C 
ATOM      4  C   UNL     1      -2.675  -1.706  -1.393  0.00  0.00    -0.030 C 
ATOM      5  C   UNL     1      -2.055  -0.583  -1.131  0.00  0.00    -0.023 C 
ATOM      6  C   UNL     1      -1.235  -0.712   0.132  0.00  0.00    +0.049 C 
ATOM      7  C   UNL     1       0.076   0.002  -0.015  0.00  0.00    -0.017 A 
ATOM      8  C   UNL     1       0.065   1.391  -0.019  0.00  0.00    +0.026 A 
ATOM      9  C   UNL     1       1.238   2.105  -0.154  0.00  0.00    +0.043 A 
ATOM     10  C   UNL     1       2.443   1.437  -0.288  0.00  0.00    +0.041 A 
ATOM     11  C   UNL     1       2.465   0.058  -0.285  0.00  0.00    +0.063 A 
ATOM     12  C   UNL     1       1.280  -0.666  -0.147  0.00  0.00    +0.050 A 
ATOM     13  N   UNL     1       1.361  -2.060  -0.147  0.00  0.00    -0.335 N 
ATOM     14 CL   UNL     1       3.975  -0.782  -0.453  0.00  0.00    -0.082 Cl
ATOM     15 CL   UNL     1       1.203   3.840  -0.155  0.00  0.00    -0.083 Cl
ATOM     16  H   UNL     1       2.217  -2.687   0.144  0.00  0.00    +0.147 HD
ENDROOT
BRANCH   1  20
ATOM     17  C   UNL     1       0.502  -6.938  -0.400  0.00  0.00    +0.036 A 
ATOM     18  C   UNL     1       0.914  -6.160   0.665  0.00  0.00    +0.048 A 
ATOM     19  C   UNL     1       0.791  -4.780   0.602  0.00  0.00    +0.122 A 
ATOM     20  C   UNL     1       0.254  -4.184  -0.530  0.00  0.00    +0.017 A 
ATOM     21  C   UNL     1      -0.162  -4.967  -1.590  0.00  0.00    +0.041 A 
ATOM     22  C   UNL     1      -0.033  -6.342  -1.527  0.00  0.00    +0.127 A 
BRANCH  22  23
ATOM     23  N   UNL     1      -0.473  -7.178  -2.666  0.00  0.00    +0.056 N 
ATOM     24  O   UNL     1      -0.364  -8.390  -2.610  0.00  0.00    -0.126 OA
ATOM     25  O   UNL     1      -0.944  -6.654  -3.660  0.00  0.00    -0.126 OA
ENDBRANCH  22  23
BRANCH  19  26
ATOM     26  O   UNL     1       1.196  -4.012   1.648  0.00  0.00    -0.506 OA
ATOM     27  H   UNL     1       1.097  -2.918   1.598  0.00  0.00    +0.292 HD
ENDBRANCH  19  26
ENDBRANCH   1  20
TORSDOF 3
