REMARK  Name = ZINC59046175
REMARK  10 active torsions:
REMARK  status: ('A' for Active; 'I' for Inactive)
REMARK    1  A    between atoms: C_4  and  S_27
REMARK    2  A    between atoms: C_5  and  N_7
REMARK    3  A    between atoms: C_8  and  C_10
REMARK    4  A    between atoms: C_10  and  S_11
REMARK    5  A    between atoms: S_11  and  C_12
REMARK    6  A    between atoms: C_15  and  C_18
REMARK    7  A    between atoms: N_16  and  N_17
REMARK    8  A    between atoms: C_22  and  N_24
REMARK    9  A    between atoms: S_27  and  C_28
REMARK   10  A    between atoms: C_28  and  C_29
REMARK                            x       y       z     vdW  Elec       q    Type
REMARK                         _______ _______ _______ _____ _____    ______ ____
ROOT
ATOM      1  N   UNL     1       1.233  -2.082  -0.021  0.00  0.00    -0.284 N 
ATOM      2  C   UNL     1       0.082  -2.774   0.088  0.00  0.00    +0.228 C 
ATOM      3  O   UNL     1      -0.980  -2.187   0.102  0.00  0.00    -0.275 OA
ATOM      4  H   UNL     1       2.076  -2.554  -0.113  0.00  0.00    +0.155 HD
ENDROOT
BRANCH   1   9
ATOM      5  C   UNL     1       0.153   1.373   0.636  0.00  0.00    +0.002 A 
ATOM      6  C   UNL     1       1.172   2.090   0.036  0.00  0.00    +0.001 A 
ATOM      7  C   UNL     1       2.215   1.429  -0.586  0.00  0.00    +0.016 A 
ATOM      8  C   UNL     1       2.241   0.042  -0.608  0.00  0.00    +0.029 A 
ATOM      9  C   UNL     1       1.213  -0.681  -0.002  0.00  0.00    +0.047 A 
ATOM     10  C   UNL     1       0.171  -0.009   0.619  0.00  0.00    +0.024 A 
BRANCH   8  11
ATOM     11  S   UNL     1       3.568  -0.804  -1.400  0.00  0.00    -0.119 S 
BRANCH  11  12
ATOM     12  C   UNL     1       4.629   0.529  -2.023  0.00  0.00    +0.109 C 
BRANCH  12  13
ATOM     13  C   UNL     1       5.818  -0.066  -2.733  0.00  0.00    -0.037 A 
ATOM     14  C   UNL     1       6.973  -0.348  -2.027  0.00  0.00    +0.007 A 
ATOM     15  C   UNL     1       8.064  -0.894  -2.676  0.00  0.00    +0.038 A 
ATOM     16  C   UNL     1       8.001  -1.157  -4.034  0.00  0.00    +0.123 A 
ATOM     17  C   UNL     1       6.844  -0.873  -4.740  0.00  0.00    +0.038 A 
ATOM     18  C   UNL     1       5.752  -0.333  -4.087  0.00  0.00    +0.007 A 
ATOM     19  F   UNL     1       9.067  -1.690  -4.670  0.00  0.00    -0.205 F 
ENDBRANCH  12  13
ENDBRANCH  11  12
ENDBRANCH   8  11
ENDBRANCH   1   9
BRANCH   2  20
ATOM     20  C   UNL     1       0.113  -4.277   0.194  0.00  0.00    +0.173 C 
BRANCH  20  21
ATOM     21  S   UNL     1      -1.582  -4.910   0.327  0.00  0.00    -0.075 S 
BRANCH  21  22
ATOM     22  C   UNL     1      -1.378  -6.656   0.441  0.00  0.00    +0.209 A 
ATOM     23  N   UNL     1      -0.237  -7.310   0.433  0.00  0.00    -0.121 NA
ATOM     24  N   UNL     1      -0.452  -8.573   0.533  0.00  0.00    -0.127 NA
ATOM     25  C   UNL     1      -1.742  -8.803   0.610  0.00  0.00    +0.182 A 
ATOM     26  N   UNL     1      -2.374  -7.582   0.559  0.00  0.00    -0.224 N 
BRANCH  25  27
ATOM     27  C   UNL     1      -2.393 -10.125   0.735  0.00  0.00    +0.023 A 
ATOM     28  C   UNL     1      -3.761 -10.259   0.489  0.00  0.00    +0.012 A 
ATOM     29  C   UNL     1      -4.362 -11.495   0.607  0.00  0.00    +0.003 A 
ATOM     30  C   UNL     1      -3.612 -12.600   0.969  0.00  0.00    +0.033 A 
ATOM     31  C   UNL     1      -2.256 -12.475   1.213  0.00  0.00    +0.127 A 
ATOM     32  C   UNL     1      -1.641 -11.245   1.093  0.00  0.00    +0.044 A 
BRANCH  31  33
ATOM     33  N   UNL     1      -1.462 -13.662   1.600  0.00  0.00    +0.056 N 
ATOM     34  O   UNL     1      -1.998 -14.741   1.701  0.00  0.00    -0.126 OA
ATOM     35  O   UNL     1      -0.277 -13.554   1.814  0.00  0.00    -0.126 OA
ENDBRANCH  31  33
ENDBRANCH  25  27
BRANCH  26  36
ATOM     36  N   UNL     1      -3.719  -7.346   0.612  0.00  0.00    -0.295 N 
ATOM     37  H   UNL     1      -4.123  -7.351  -0.313  0.00  0.00    +0.163 HD
ATOM     38  H   UNL     1      -4.180  -8.013   1.212  0.00  0.00    +0.163 HD
ENDBRANCH  26  36
ENDBRANCH  21  22
ENDBRANCH  20  21
ENDBRANCH   2  20
TORSDOF 10
