REMARK  Name = ZINC38740326
REMARK  6 active torsions:
REMARK  status: ('A' for Active; 'I' for Inactive)
REMARK    1  A    between atoms: C_1  and  C_2
REMARK    2  A    between atoms: C_2  and  C_3
REMARK    3  A    between atoms: C_2  and  C_4
REMARK    4  A    between atoms: C_9  and  N_10
REMARK    5  A    between atoms: C_11  and  C_13
REMARK    6  A    between atoms: C_19  and  C_21
REMARK                            x       y       z     vdW  Elec       q    Type
REMARK                         _______ _______ _______ _____ _____    ______ ____
ROOT
ATOM      1  C   UNL     1      -0.497  -2.391  -4.326  0.00  0.00    +0.091 C 
ATOM      2  C   UNL     1       0.143  -1.096  -4.830  0.00  0.00    +0.040 C 
ATOM      3  C   UNL     1       0.878  -1.348  -6.113  0.00  0.00    -0.030 C 
ATOM      4  C   UNL     1       0.699  -2.390  -6.859  0.00  0.00    -0.030 C 
ATOM      5  C   UNL     1      -0.261  -3.498  -6.539  0.00  0.00    +0.040 C 
ATOM      6  C   UNL     1      -1.268  -3.039  -5.483  0.00  0.00    +0.091 C 
ENDROOT
BRANCH   6   7
ATOM      7  C   UNL     1      -2.048  -4.223  -4.972  0.00  0.00    +0.220 C 
ATOM      8  O   UNL     1      -1.593  -4.911  -4.082  0.00  0.00    -0.275 OA
ATOM      9  N   UNL     1      -3.251  -4.518  -5.503  0.00  0.00    -0.298 N 
ATOM     10  C   UNL     1      -3.758  -3.774  -6.665  0.00  0.00    +0.126 C 
ATOM     11  C   UNL     1      -4.100  -4.774  -7.776  0.00  0.00    +0.125 C 
ATOM     12  N   UNL     1      -4.928  -5.845  -7.205  0.00  0.00    -0.314 N 
ATOM     13  C   UNL     1      -4.420  -6.589  -6.044  0.00  0.00    +0.125 C 
ATOM     14  C   UNL     1      -4.076  -5.593  -4.936  0.00  0.00    +0.126 C 
ATOM     15  C   UNL     1      -6.168  -6.149  -7.753  0.00  0.00    +0.099 A 
ATOM     16  C   UNL     1      -6.579  -5.518  -8.924  0.00  0.00    +0.042 A 
ATOM     17  C   UNL     1      -7.815  -5.830  -9.458  0.00  0.00    +0.005 A 
ATOM     18  C   UNL     1      -8.604  -6.766  -8.802  0.00  0.00    +0.018 A 
ATOM     19  C   UNL     1      -8.134  -7.354  -7.645  0.00  0.00    +0.084 A 
ATOM     20  N   UNL     1      -6.947  -7.041  -7.160  0.00  0.00    -0.350 N 
ATOM     21  H   UNL     1      -6.639  -7.472  -6.348  0.00  0.00    +0.166 HD
ENDBRANCH   6   7
BRANCH   1  23
ATOM     22  N   UNL     1      -0.984  -1.499  -2.071  0.00  0.00    -0.285 N 
ATOM     23  C   UNL     1      -1.444  -2.082  -3.195  0.00  0.00    +0.221 C 
ATOM     24  O   UNL     1      -2.621  -2.359  -3.298  0.00  0.00    -0.275 OA
ATOM     25  H   UNL     1      -0.056  -1.226  -2.011  0.00  0.00    +0.155 HD
BRANCH  22  31
ATOM     26  C   UNL     1      -1.339  -1.206   0.300  0.00  0.00    -0.024 A 
ATOM     27  C   UNL     1      -2.193  -0.991   1.365  0.00  0.00    +0.006 A 
ATOM     28  C   UNL     1      -3.552  -0.861   1.147  0.00  0.00    +0.000 A 
ATOM     29  C   UNL     1      -4.061  -0.946  -0.136  0.00  0.00    +0.002 A 
ATOM     30  C   UNL     1      -3.213  -1.160  -1.204  0.00  0.00    +0.023 A 
ATOM     31  C   UNL     1      -1.847  -1.286  -0.990  0.00  0.00    +0.037 A 
BRANCH  26  33
ATOM     32  C   UNL     1       0.700  -0.029   1.078  0.00  0.00    +0.012 C 
ATOM     33  C   UNL     1       0.142  -1.347   0.538  0.00  0.00    +0.015 C 
ATOM     34  C   UNL     1       0.392  -2.462   1.555  0.00  0.00    +0.012 C 
ENDBRANCH  26  33
ENDBRANCH  22  31
ENDBRANCH   1  23
TORSDOF 4
