REMARK  Name = ZINC20736119
REMARK  11 active torsions:
REMARK  status: ('A' for Active; 'I' for Inactive)
REMARK    1  A    between atoms: C_1  and  C_2
REMARK    2  A    between atoms: C_2  and  O_3
REMARK    3  A    between atoms: O_3  and  C_4
REMARK    4  A    between atoms: C_7  and  C_12
REMARK    5  A    between atoms: C_9  and  O_10
REMARK    6  A    between atoms: O_10  and  C_11
REMARK    7  A    between atoms: N_16  and  C_35
REMARK    8  A    between atoms: C_19  and  C_24
REMARK    9  A    between atoms: N_26  and  C_27
REMARK   10  A    between atoms: C_27  and  C_28
REMARK   11  A    between atoms: C_28  and  C_29
REMARK                            x       y       z     vdW  Elec       q    Type
REMARK                         _______ _______ _______ _____ _____    ______ ____
ROOT
ATOM      1  C   UNL     1      10.121  -5.726  -4.774  0.00  0.00    +0.028 C 
ATOM      2  C   UNL     1       9.963  -4.402  -4.531  0.00  0.00    +0.075 C 
ATOM      3  C   UNL     1      10.006  -3.397  -5.614  0.00  0.00    +0.257 C 
ATOM      4  O   UNL     1      10.649  -3.623  -6.622  0.00  0.00    -0.269 OA
ATOM      5  N   UNL     1       9.343  -2.243  -5.497  0.00  0.00    -0.269 N 
ATOM      6  C   UNL     1       8.493  -1.877  -4.461  0.00  0.00    +0.051 A 
ATOM      7  C   UNL     1       7.568  -0.865  -4.691  0.00  0.00    +0.037 A 
ATOM      8  C   UNL     1       6.697  -0.463  -3.678  0.00  0.00    +0.039 A 
ATOM      9  C   UNL     1       6.740  -1.083  -2.426  0.00  0.00    +0.014 A 
ATOM     10  C   UNL     1       7.652  -2.089  -2.195  0.00  0.00    +0.017 A 
ATOM     11  C   UNL     1       8.524  -2.485  -3.201  0.00  0.00    +0.034 A 
ATOM     12  S   UNL     1       9.694  -3.775  -2.894  0.00  0.00    -0.082 S 
ATOM     13  C   UNL     1       9.531  -1.265  -6.571  0.00  0.00    +0.138 C 
ENDROOT
BRANCH   1  17
ATOM     14  C   UNL     1      10.206  -7.149  -8.773  0.00  0.00    +0.162 A 
ATOM     15  C   UNL     1       9.349  -6.115  -8.423  0.00  0.00    +0.050 A 
ATOM     16  C   UNL     1       9.314  -5.653  -7.125  0.00  0.00    +0.012 A 
ATOM     17  C   UNL     1      10.153  -6.220  -6.158  0.00  0.00    -0.020 A 
ATOM     18  C   UNL     1      11.017  -7.262  -6.512  0.00  0.00    +0.057 A 
ATOM     19  C   UNL     1      11.041  -7.722  -7.815  0.00  0.00    +0.162 A 
BRANCH  19  20
ATOM     20  O   UNL     1      11.879  -8.735  -8.162  0.00  0.00    -0.491 OA
ATOM     21  C   UNL     1      12.706  -9.276  -7.130  0.00  0.00    +0.277 C 
ENDBRANCH  19  20
BRANCH  14  22
ATOM     22  O   UNL     1      10.232  -7.604 -10.053  0.00  0.00    -0.489 OA
BRANCH  22  24
ATOM     23  C   UNL     1       9.520  -7.614 -12.362  0.00  0.00    +0.048 C 
ATOM     24  C   UNL     1       9.351  -6.973 -10.984  0.00  0.00    +0.226 C 
ENDBRANCH  22  24
ENDBRANCH  14  22
ENDBRANCH   1  17
BRANCH   8  25
ATOM     25  C   UNL     1       5.722   0.615  -3.931  0.00  0.00    +0.244 C 
ATOM     26  O   UNL     1       5.683   1.155  -5.020  0.00  0.00    -0.270 OA
ATOM     27  N   UNL     1       4.876   1.001  -2.956  0.00  0.00    -0.311 N 
ATOM     28  H   UNL     1       4.912   0.512  -1.972  0.00  0.00    +0.149 HD
BRANCH  27  29
ATOM     29  C   UNL     1       3.908   2.071  -3.208  0.00  0.00    +0.109 C 
BRANCH  29  30
ATOM     30  C   UNL     1       3.075   2.312  -1.947  0.00  0.00    +0.049 C 
BRANCH  30  31
ATOM     31  C   UNL     1       2.080   3.414  -2.206  0.00  0.00    -0.072 C 
ATOM     32  C   UNL     1       0.884   3.078  -2.572  0.00  0.00    -0.028 C 
ATOM     33  C   UNL     1      -0.208   4.060  -2.880  0.00  0.00    +0.027 C 
ATOM     34  C   UNL     1       0.139   5.432  -2.295  0.00  0.00    +0.004 C 
ATOM     35  C   UNL     1       1.568   5.790  -2.721  0.00  0.00    +0.005 C 
ATOM     36  C   UNL     1       2.536   4.832  -2.024  0.00  0.00    +0.030 C 
ENDBRANCH  30  31
ENDBRANCH  29  30
ENDBRANCH  27  29
ENDBRANCH   8  25
TORSDOF 8
