REMARK  Name = ZINC63782402
REMARK  7 active torsions:
REMARK  status: ('A' for Active; 'I' for Inactive)
REMARK    1  A    between atoms: C_4  and  N_7
REMARK    2  A    between atoms: C_8  and  C_10
REMARK    3  A    between atoms: C_10  and  C_11
REMARK    4  A    between atoms: C_14  and  C_18
REMARK    5  A    between atoms: N_20  and  C_21
REMARK    6  A    between atoms: C_21  and  C_22
REMARK    7  A    between atoms: C_22  and  C_23
REMARK                            x       y       z     vdW  Elec       q    Type
REMARK                         _______ _______ _______ _____ _____    ______ ____
ROOT
ATOM      1  C   UNL     1       4.708  -4.227   0.249  0.00  0.00    +0.158 C 
ATOM      2  N   UNL     1       5.988  -4.950   0.439  0.00  0.00    -0.265 NA
ATOM      3  C   UNL     1       5.829  -6.182  -0.376  0.00  0.00    +0.297 C 
ATOM      4  O   UNL     1       5.107  -5.721  -1.540  0.00  0.00    -0.270 OA
ATOM      5  N   UNL     1       4.144  -4.731  -1.021  0.00  0.00    -0.181 NA
ATOM      6  H   UNL     1       6.767  -4.398   0.112  0.00  0.00    +0.126 HD
ATOM      7  H   UNL     1       3.238  -5.149  -0.873  0.00  0.00    +0.156 HD
ENDROOT
BRANCH   3   8
ATOM      8  C   UNL     1       7.174  -6.739  -0.766  0.00  0.00    +0.259 C 
ATOM      9  O   UNL     1       7.566  -7.777  -0.275  0.00  0.00    -0.271 OA
ATOM     10  N   UNL     1       7.941  -6.084  -1.659  0.00  0.00    -0.312 N 
ATOM     11  H   UNL     1       7.627  -5.254  -2.051  0.00  0.00    +0.149 HD
BRANCH  10  12
ATOM     12  C   UNL     1       9.248  -6.625  -2.038  0.00  0.00    +0.108 C 
BRANCH  12  13
ATOM     13  C   UNL     1       9.908  -5.696  -3.059  0.00  0.00    +0.052 C 
BRANCH  13  14
ATOM     14  C   UNL     1      11.253  -6.253  -3.450  0.00  0.00    -0.040 C 
ATOM     15  C   UNL     1      11.532  -7.028  -4.522  0.00  0.00    +0.000 A 
ATOM     16  C   UNL     1      10.699  -7.566  -5.604  0.00  0.00    +0.030 A 
ATOM     17  C   UNL     1      11.277  -8.330  -6.559  0.00  0.00    +0.042 A 
ATOM     18  C   UNL     1      12.649  -8.621  -6.541  0.00  0.00    +0.022 A 
ATOM     19  C   UNL     1      13.478  -8.164  -5.579  0.00  0.00    +0.027 A 
ATOM     20  C   UNL     1      12.977  -7.350  -4.526  0.00  0.00    +0.043 A 
ATOM     21  N   UNL     1      13.569  -6.795  -3.496  0.00  0.00    -0.380 N 
ATOM     22  C   UNL     1      12.565  -6.052  -2.725  0.00  0.00    +0.144 C 
ATOM     23 CL   UNL     1      10.294  -8.967  -7.841  0.00  0.00    -0.084 Cl
ATOM     24  H   UNL     1      14.512  -6.861  -3.281  0.00  0.00    +0.160 HD
ENDBRANCH  13  14
ENDBRANCH  12  13
ENDBRANCH  10  12
ENDBRANCH   3   8
BRANCH   1  25
ATOM     25  C   UNL     1       4.962  -2.721   0.153  0.00  0.00    +0.132 C 
BRANCH  25  27
ATOM     26  N   UNL     1       3.622  -0.651  -0.037  0.00  0.00    -0.285 N 
ATOM     27  C   UNL     1       3.645  -1.995   0.057  0.00  0.00    +0.220 C 
ATOM     28  O   UNL     1       2.606  -2.620   0.064  0.00  0.00    -0.275 OA
ATOM     29  H   UNL     1       4.452  -0.156  -0.121  0.00  0.00    +0.155 HD
BRANCH  26  33
ATOM     30  C   UNL     1      -0.015   1.381   0.029  0.00  0.00    +0.000 A 
ATOM     31  C   UNL     1       0.140   0.218   0.763  0.00  0.00    +0.002 A 
ATOM     32  C   UNL     1       1.344  -0.457   0.743  0.00  0.00    +0.023 A 
ATOM     33  C   UNL     1       2.400   0.031  -0.015  0.00  0.00    +0.033 A 
ATOM     34  C   UNL     1       2.241   1.198  -0.751  0.00  0.00    +0.023 A 
ATOM     35  C   UNL     1       1.034   1.870  -0.727  0.00  0.00    +0.002 A 
ENDBRANCH  26  33
ENDBRANCH  25  27
ENDBRANCH   1  25
TORSDOF 7
