REMARK  Name = ZINC01144675
REMARK  6 active torsions:
REMARK  status: ('A' for Active; 'I' for Inactive)
REMARK    1  A    between atoms: C_5  and  O_7
REMARK    2  A    between atoms: O_7  and  C_8
REMARK    3  A    between atoms: C_8  and  C_9
REMARK    4  A    between atoms: C_12  and  C_15
REMARK    5  A    between atoms: N_17  and  C_18
REMARK    6  A    between atoms: C_19  and  C_27
REMARK                            x       y       z     vdW  Elec       q    Type
REMARK                         _______ _______ _______ _____ _____    ______ ____
ROOT
ATOM      1  C   UNL     1      -2.066   1.840   5.837  0.00  0.00    +0.249 C 
ATOM      2  O   UNL     1      -2.761   2.763   5.461  0.00  0.00    -0.270 OA
ATOM      3  N   UNL     1      -1.289   1.179   4.956  0.00  0.00    -0.275 N 
ATOM      4  H   UNL     1      -0.735   0.442   5.256  0.00  0.00    +0.156 HD
ENDROOT
BRANCH   3   5
ATOM      5  C   UNL     1      -1.283   1.551   3.622  0.00  0.00    +0.085 A 
ATOM      6  C   UNL     1      -0.559   0.998   2.575  0.00  0.00    +0.068 A 
ATOM      7  C   UNL     1      -0.732   1.580   1.257  0.00  0.00    -0.023 A 
ATOM      8  C   UNL     1      -1.601   2.615   1.194  0.00  0.00    -0.004 A 
ATOM      9  S   UNL     1      -2.179   2.821   2.854  0.00  0.00    -0.077 S 
ATOM     10  C   UNL     1      -1.979   3.405  -0.021  0.00  0.00    +0.043 C 
ATOM     11  C   UNL     1      -0.956   3.111  -1.127  0.00  0.00    +0.005 C 
ATOM     12  C   UNL     1      -0.758   1.595  -1.227  0.00  0.00    +0.005 C 
ATOM     13  C   UNL     1      -0.013   1.086   0.008  0.00  0.00    +0.037 C 
BRANCH   6  14
ATOM     14  C   UNL     1       0.351  -0.131   2.793  0.00  0.00    +0.244 C 
ATOM     15  O   UNL     1      -0.061  -1.272   2.693  0.00  0.00    -0.270 OA
ATOM     16  N   UNL     1       1.643   0.095   3.104  0.00  0.00    -0.325 N 
ATOM     17  H   UNL     1       1.971   1.004   3.184  0.00  0.00    +0.145 HD
ATOM     18  H   UNL     1       2.244  -0.652   3.249  0.00  0.00    +0.145 HD
ENDBRANCH   6  14
ENDBRANCH   3   5
BRANCH   1  22
ATOM     19  C   UNL     1      -2.085   0.697   9.928  0.00  0.00    -0.010 A 
ATOM     20  C   UNL     1      -2.878   1.749   9.503  0.00  0.00    +0.008 A 
ATOM     21  C   UNL     1      -2.876   2.125   8.175  0.00  0.00    +0.013 A 
ATOM     22  C   UNL     1      -2.073   1.442   7.261  0.00  0.00    +0.037 A 
ATOM     23  C   UNL     1      -1.280   0.379   7.695  0.00  0.00    +0.013 A 
ATOM     24  C   UNL     1      -1.287   0.016   9.026  0.00  0.00    +0.008 A 
BRANCH  19  25
ATOM     25  C   UNL     1      -2.091   0.292  11.379  0.00  0.00    +0.264 C 
BRANCH  25  26
ATOM     26  O   UNL     1      -3.102  -0.695  11.594  0.00  0.00    -0.486 OA
BRANCH  26  31
ATOM     27  C   UNL     1      -2.565  -1.183  15.159  0.00  0.00    +0.004 A 
ATOM     28  C   UNL     1      -3.524  -2.139  15.436  0.00  0.00    +0.002 A 
ATOM     29  C   UNL     1      -4.343  -2.613  14.428  0.00  0.00    +0.023 A 
ATOM     30  C   UNL     1      -4.204  -2.131  13.139  0.00  0.00    +0.083 A 
ATOM     31  C   UNL     1      -3.241  -1.171  12.859  0.00  0.00    +0.139 A 
ATOM     32  C   UNL     1      -2.418  -0.702  13.872  0.00  0.00    +0.047 A 
ATOM     33 CL   UNL     1      -5.231  -2.727  11.873  0.00  0.00    -0.080 Cl
ENDBRANCH  26  31
ENDBRANCH  25  26
ENDBRANCH  19  25
ENDBRANCH   1  22
TORSDOF 6
