REMARK  Name = ZINC38752211
REMARK  5 active torsions:
REMARK  status: ('A' for Active; 'I' for Inactive)
REMARK    1  A    between atoms: C_1  and  C_2
REMARK    2  A    between atoms: C_5  and  N_8
REMARK    3  A    between atoms: N_8  and  C_9
REMARK    4  A    between atoms: N_12  and  C_24
REMARK    5  A    between atoms: C_18  and  N_23
REMARK                            x       y       z     vdW  Elec       q    Type
REMARK                         _______ _______ _______ _____ _____    ______ ____
ROOT
ATOM      1  C   UNL     1       0.136  -4.796   1.224  0.00  0.00    +0.103 C 
ATOM      2  C   UNL     1       0.242  -6.141   1.256  0.00  0.00    -0.010 C 
ATOM      3  C   UNL     1       0.172  -6.988   0.013  0.00  0.00    +0.119 C 
ATOM      4  N   UNL     1      -0.872  -8.009   0.210  0.00  0.00    -0.301 NA
ATOM      5  C   UNL     1      -0.637  -8.782   1.435  0.00  0.00    +0.085 C 
ATOM      6  C   UNL     1      -0.724  -7.874   2.664  0.00  0.00    +0.028 C 
ATOM      7  C   UNL     1       0.398  -6.836   2.600  0.00  0.00    +0.058 C 
ATOM      8  C   UNL     1       0.284  -5.935   3.801  0.00  0.00    +0.043 C 
ATOM      9  C   UNL     1       0.272  -6.071   5.142  0.00  0.00    +0.117 C 
ATOM     10  N   UNL     1       0.150  -4.842   5.681  0.00  0.00    -0.262 N 
ATOM     11  N   UNL     1       0.079  -3.927   4.781  0.00  0.00    -0.154 NA
ATOM     12  C   UNL     1       0.145  -4.492   3.547  0.00  0.00    +0.159 C 
ATOM     13  N   UNL     1       0.107  -4.038   2.315  0.00  0.00    -0.327 N 
ATOM     14  C   UNL     1      -0.972  -8.893  -0.959  0.00  0.00    +0.105 C 
ATOM     15  H   UNL     1       0.120  -4.669   6.635  0.00  0.00    +0.190 HD
ATOM     16  H   UNL     1       0.049  -3.077   2.192  0.00  0.00    +0.169 HD
ENDROOT
BRANCH   9  17
ATOM     17  N   UNL     1       0.369  -7.272   5.848  0.00  0.00    -0.343 N 
ATOM     18  H   UNL     1       0.453  -8.111   5.368  0.00  0.00    +0.144 HD
ATOM     19  H   UNL     1       0.351  -7.268   6.818  0.00  0.00    +0.144 HD
ENDBRANCH   9  17
BRANCH   1  20
ATOM     20  N   UNL     1       0.059  -4.168  -0.021  0.00  0.00    -0.301 N 
ATOM     21  H   UNL     1       0.764  -4.299  -0.674  0.00  0.00    +0.154 HD
BRANCH  20  26
ATOM     22  C   UNL     1      -4.374  -0.854  -1.256  0.00  0.00    +0.044 C 
ATOM     23  C   UNL     1      -3.196  -1.735  -0.928  0.00  0.00    -0.050 A 
ATOM     24  C   UNL     1      -2.126  -1.808  -1.800  0.00  0.00    +0.005 A 
ATOM     25  C   UNL     1      -1.044  -2.614  -1.503  0.00  0.00    +0.023 A 
ATOM     26  C   UNL     1      -1.033  -3.351  -0.325  0.00  0.00    +0.032 A 
ATOM     27  C   UNL     1      -2.110  -3.275   0.549  0.00  0.00    +0.023 A 
ATOM     28  C   UNL     1      -3.186  -2.463   0.247  0.00  0.00    +0.005 A 
ENDBRANCH  20  26
ENDBRANCH   1  20
TORSDOF 3
