REMARK  Name = ZINC36524557
REMARK  12 active torsions:
REMARK  status: ('A' for Active; 'I' for Inactive)
REMARK    1  A    between atoms: C_1  and  C_2
REMARK    2  A    between atoms: C_2  and  C_3
REMARK    3  A    between atoms: C_2  and  C_4
REMARK    4  A    between atoms: C_4  and  C_5
REMARK    5  A    between atoms: N_7  and  C_8
REMARK    6  A    between atoms: N_7  and  C_9
REMARK    7  A    between atoms: C_9  and  C_11
REMARK    8  A    between atoms: C_9  and  C_20
REMARK    9  A    between atoms: C_12  and  O_19
REMARK   10  A    between atoms: C_14  and  O_18
REMARK   11  A    between atoms: C_16  and  O_17
REMARK   12  A    between atoms: N_22  and  C_23
REMARK                            x       y       z     vdW  Elec       q    Type
REMARK                         _______ _______ _______ _____ _____    ______ ____
ROOT
ATOM      1  C   UNL     1      -0.411  -0.017   4.861  0.00  0.00    +0.199 C 
ENDROOT
BRANCH   1   2
ATOM      2  C   UNL     1       0.806   0.786   5.240  0.00  0.00    +0.065 A 
ATOM      3  C   UNL     1       1.536   0.447   6.370  0.00  0.00    +0.129 A 
ATOM      4  C   UNL     1       2.656   1.186   6.719  0.00  0.00    +0.091 A 
ATOM      5  C   UNL     1       3.047   2.264   5.939  0.00  0.00    +0.124 A 
ATOM      6  C   UNL     1       2.318   2.602   4.809  0.00  0.00    +0.091 A 
ATOM      7  C   UNL     1       1.200   1.860   4.457  0.00  0.00    +0.129 A 
BRANCH   7   8
ATOM      8  O   UNL     1       0.489   2.189   3.347  0.00  0.00    -0.506 OA
ATOM      9  H   UNL     1      -0.223   2.822   3.509  0.00  0.00    +0.292 HD
ENDBRANCH   7   8
BRANCH   5  10
ATOM     10  O   UNL     1       4.144   2.988   6.282  0.00  0.00    -0.507 OA
ATOM     11  H   UNL     1       4.968   2.662   5.894  0.00  0.00    +0.292 HD
ENDBRANCH   5  10
BRANCH   3  12
ATOM     12  O   UNL     1       1.153  -0.609   7.135  0.00  0.00    -0.506 OA
ATOM     13  H   UNL     1       1.616  -1.432   6.928  0.00  0.00    +0.292 HD
ENDBRANCH   3  12
ENDBRANCH   1   2
BRANCH   1  16
ATOM     14  C   UNL     1      -1.487  -0.005   2.674  0.00  0.00    +0.216 C 
ATOM     15  O   UNL     1      -2.481   0.451   3.199  0.00  0.00    -0.276 OA
ATOM     16  N   UNL     1      -0.396  -0.275   3.418  0.00  0.00    -0.289 N 
ATOM     17  C   UNL     1       0.805  -0.825   2.785  0.00  0.00    +0.133 C 
BRANCH  14  18
ATOM     18  C   UNL     1      -1.472  -0.269   1.191  0.00  0.00    +0.099 C 
BRANCH  18  20
ATOM     19  C   UNL     1      -3.027   1.630   0.729  0.00  0.00    +0.008 C 
ATOM     20  C   UNL     1      -2.823   0.120   0.589  0.00  0.00    -0.008 C 
ATOM     21  C   UNL     1      -2.852  -0.263  -0.891  0.00  0.00    +0.008 C 
ENDBRANCH  18  20
ENDBRANCH  14  18
ENDBRANCH   1  16
BRANCH   1  22
ATOM     22  C   UNL     1      -0.400  -1.328   5.605  0.00  0.00    +0.239 C 
ATOM     23  O   UNL     1       0.140  -2.298   5.117  0.00  0.00    -0.273 OA
ATOM     24  N   UNL     1      -0.991  -1.422   6.812  0.00  0.00    -0.311 N 
ATOM     25  H   UNL     1      -1.457  -0.657   7.185  0.00  0.00    +0.149 HD
BRANCH  24  26
ATOM     26  C   UNL     1      -0.929  -2.679   7.562  0.00  0.00    +0.073 C 
ATOM     27  C   UNL     1      -2.058  -3.604   7.101  0.00  0.00    +0.022 C 
ATOM     28  C   UNL     1      -1.993  -4.917   7.884  0.00  0.00    +0.002 C 
ATOM     29  C   UNL     1      -2.150  -4.627   9.378  0.00  0.00    +0.000 C 
ATOM     30  C   UNL     1      -1.021  -3.703   9.839  0.00  0.00    +0.002 C 
ATOM     31  C   UNL     1      -1.086  -2.390   9.056  0.00  0.00    +0.022 C 
ENDBRANCH  24  26
ENDBRANCH   1  22
TORSDOF 9
