REMARK  Name = ZINC37074471
REMARK  2 active torsions:
REMARK  status: ('A' for Active; 'I' for Inactive)
REMARK    1  A    between atoms: C_5  and  N_8
REMARK    2  A    between atoms: N_8  and  C_9
REMARK                            x       y       z     vdW  Elec       q    Type
REMARK                         _______ _______ _______ _____ _____    ______ ____
ROOT
ATOM      1  C   UNL     1      -0.017   1.378   0.010  0.00  0.00    +0.045 A 
ATOM      2  C   UNL     1       1.169   2.088   0.002  0.00  0.00    -0.023 A 
ATOM      3  C   UNL     1       2.384   1.415  -0.013  0.00  0.00    +0.039 A 
ATOM      4  C   UNL     1       2.407   0.027  -0.020  0.00  0.00    +0.049 A 
ATOM      5  C   UNL     1       1.216  -0.684  -0.013  0.00  0.00    +0.065 A 
ATOM      6  C   UNL     1       0.002  -0.004   0.002  0.00  0.00    +0.144 A 
ATOM      7  F   UNL     1      -1.159  -0.695   0.010  0.00  0.00    -0.204 F 
ATOM      8  N   UNL     1       3.583   2.137  -0.019  0.00  0.00    -0.285 N 
ATOM      9  C   UNL     1       3.603   3.428   0.357  0.00  0.00    +0.218 C 
ATOM     10  O   UNL     1       4.647   4.044   0.332  0.00  0.00    -0.275 OA
ATOM     11  C   UNL     1       2.343   4.118   0.808  0.00  0.00    +0.101 C 
ATOM     12  C   UNL     1       1.149   3.595   0.010  0.00  0.00    +0.046 C 
ATOM     13  H   UNL     1       4.405   1.703  -0.297  0.00  0.00    +0.155 HD
ENDROOT
BRANCH   5  14
ATOM     14  N   UNL     1       1.235  -2.082  -0.021  0.00  0.00    -0.338 N 
ATOM     15  H   UNL     1       0.402  -2.579  -0.015  0.00  0.00    +0.146 HD
BRANCH  14  16
ATOM     16  C   UNL     1       2.514  -2.797  -0.036  0.00  0.00    +0.081 C 
ATOM     17  C   UNL     1       2.309  -4.152  -0.713  0.00  0.00    +0.033 C 
ATOM     18  C   UNL     1       3.330  -5.188  -0.164  0.00  0.00    +0.071 C 
ATOM     19  S   UNL     1       3.323  -4.711   1.620  0.00  0.00    -0.159 S 
ATOM     20  C   UNL     1       3.035  -2.908   1.409  0.00  0.00    +0.091 C 
ENDBRANCH  14  16
ENDBRANCH   5  14
TORSDOF 2
