REMARK  Name = ZINC20912886
REMARK  9 active torsions:
REMARK  status: ('A' for Active; 'I' for Inactive)
REMARK    1  A    between atoms: C_4  and  C_7
REMARK    2  A    between atoms: C_7  and  N_8
REMARK    3  A    between atoms: C_9  and  C_11
REMARK    4  A    between atoms: C_11  and  C_12
REMARK    5  A    between atoms: C_12  and  S_13
REMARK    6  A    between atoms: S_13  and  C_14
REMARK    7  A    between atoms: N_18  and  N_19
REMARK    8  A    between atoms: N_20  and  N_21
REMARK    9  A    between atoms: C_22  and  C_23
REMARK                            x       y       z     vdW  Elec       q    Type
REMARK                         _______ _______ _______ _____ _____    ______ ____
ROOT
ATOM      1  C   UNL     1      -2.646  -2.378   0.040  0.00  0.00    +0.210 A 
ATOM      2  N   UNL     1      -3.317  -1.251   0.057  0.00  0.00    -0.119 NA
ATOM      3  N   UNL     1      -2.394  -0.197   0.053  0.00  0.00    -0.109 NA
ATOM      4  C   UNL     1      -1.189  -0.714   0.025  0.00  0.00    +0.254 A 
ATOM      5  N   UNL     1      -1.314  -2.076   0.020  0.00  0.00    -0.211 N 
ATOM      6  N   UNL     1       0.002  -0.004   0.009  0.00  0.00    -0.204 N 
ATOM      7  H   UNL     1       0.962  -0.541  -0.009  0.00  0.00    +0.177 HD
ENDROOT
BRANCH   5   8
ATOM      8  N   UNL     1      -0.287  -2.976  -0.003  0.00  0.00    -0.294 N 
ATOM      9  H   UNL     1       0.755  -2.622  -0.018  0.00  0.00    +0.163 HD
ATOM     10  H   UNL     1      -0.501  -4.055  -0.005  0.00  0.00    +0.163 HD
ENDBRANCH   5   8
BRANCH   6  11
ATOM     11  N   UNL     1      -0.017   1.397   0.017  0.00  0.00    -0.187 NA
ATOM     12  C   UNL     1       1.100   2.062   0.003  0.00  0.00    +0.139 C 
BRANCH  12  13
ATOM     13  C   UNL     1       1.080   3.532   0.011  0.00  0.00    +0.002 A 
ATOM     14  C   UNL     1       2.262   4.258   0.107  0.00  0.00    +0.010 A 
ATOM     15  C   UNL     1       2.240   5.646   0.108  0.00  0.00    +0.001 A 
ATOM     16  C   UNL     1       1.076   6.346   0.028  0.00  0.00    +0.008 A 
ATOM     17  C   UNL     1      -0.157   5.678  -0.066  0.00  0.00    -0.017 A 
ATOM     18  C   UNL     1      -0.183   4.262  -0.077  0.00  0.00    -0.009 A 
ATOM     19  C   UNL     1      -1.409   3.594  -0.171  0.00  0.00    +0.009 A 
ATOM     20  C   UNL     1      -2.565   4.313  -0.250  0.00  0.00    +0.001 A 
ATOM     21  C   UNL     1      -2.543   5.706  -0.240  0.00  0.00    +0.001 A 
ATOM     22  C   UNL     1      -1.368   6.388  -0.149  0.00  0.00    +0.008 A 
ENDBRANCH  12  13
ENDBRANCH   6  11
BRANCH   1  23
ATOM     23  S   UNL     1      -3.340  -3.997   0.043  0.00  0.00    -0.084 S 
BRANCH  23  24
ATOM     24  C   UNL     1      -5.102  -3.584   0.074  0.00  0.00    +0.086 C 
BRANCH  24  25
ATOM     25  C   UNL     1      -5.928  -4.872   0.081  0.00  0.00    +0.107 C 
BRANCH  25  27
ATOM     26  N   UNL     1      -8.318  -5.510   0.118  0.00  0.00    -0.311 N 
ATOM     27  C   UNL     1      -7.395  -4.527   0.107  0.00  0.00    +0.214 C 
ATOM     28  O   UNL     1      -7.745  -3.366   0.119  0.00  0.00    -0.276 OA
ATOM     29  H   UNL     1      -8.000  -6.563   0.107  0.00  0.00    +0.149 HD
BRANCH  26  30
ATOM     30  C   UNL     1      -9.744  -5.175   0.143  0.00  0.00    +0.139 C 
BRANCH  30  34
ATOM     31  C   UNL     1     -12.050  -8.770   0.162  0.00  0.00    +0.000 A 
ATOM     32  C   UNL     1     -11.657  -8.195   1.356  0.00  0.00    +0.000 A 
ATOM     33  C   UNL     1     -10.911  -7.032   1.350  0.00  0.00    +0.005 A 
ATOM     34  C   UNL     1     -10.557  -6.443   0.150  0.00  0.00    -0.030 A 
ATOM     35  C   UNL     1     -10.955  -7.016  -1.044  0.00  0.00    +0.005 A 
ATOM     36  C   UNL     1     -11.697  -8.182  -1.038  0.00  0.00    +0.000 A 
ENDBRANCH  30  34
ENDBRANCH  26  30
ENDBRANCH  25  27
ENDBRANCH  24  25
ENDBRANCH  23  24
ENDBRANCH   1  23
TORSDOF 9
