REMARK  Name = ZINC23562913
REMARK  9 active torsions:
REMARK  status: ('A' for Active; 'I' for Inactive)
REMARK    1  A    between atoms: C_1  and  C_2
REMARK    2  A    between atoms: C_2  and  N_3
REMARK    3  A    between atoms: C_6  and  C_9
REMARK    4  A    between atoms: C_9  and  S_10
REMARK    5  A    between atoms: S_10  and  C_11
REMARK    6  A    between atoms: C_14  and  C_17
REMARK    7  A    between atoms: N_15  and  N_16
REMARK    8  A    between atoms: C_20  and  C_23
REMARK    9  A    between atoms: C_24  and  C_26
REMARK                            x       y       z     vdW  Elec       q    Type
REMARK                         _______ _______ _______ _____ _____    ______ ____
ROOT
ATOM      1  C   UNL     1      -2.384  -6.640  -1.851  0.00  0.00    +0.209 A 
ATOM      2  N   UNL     1      -3.134  -6.969  -0.823  0.00  0.00    -0.121 NA
ATOM      3  N   UNL     1      -3.334  -8.239  -0.812  0.00  0.00    -0.127 NA
ATOM      4  C   UNL     1      -2.724  -8.797  -1.831  0.00  0.00    +0.182 A 
ATOM      5  N   UNL     1      -2.101  -7.790  -2.531  0.00  0.00    -0.224 N 
ENDROOT
BRANCH   4   6
ATOM      6  C   UNL     1      -2.712 -10.237  -2.167  0.00  0.00    +0.021 A 
ATOM      7  C   UNL     1      -1.788 -10.736  -3.086  0.00  0.00    +0.012 A 
ATOM      8  C   UNL     1      -1.779 -12.081  -3.390  0.00  0.00    +0.004 A 
ATOM      9  C   UNL     1      -2.692 -12.934  -2.795  0.00  0.00    -0.050 A 
ATOM     10  C   UNL     1      -3.615 -12.445  -1.888  0.00  0.00    +0.004 A 
ATOM     11  C   UNL     1      -3.630 -11.103  -1.570  0.00  0.00    +0.012 A 
ATOM     12  C   UNL     1      -2.680 -14.402  -3.137  0.00  0.00    +0.044 C 
ENDBRANCH   4   6
BRANCH   5  13
ATOM     13  N   UNL     1      -1.354  -7.914  -3.668  0.00  0.00    -0.295 N 
ATOM     14  H   UNL     1      -1.201  -8.905  -4.120  0.00  0.00    +0.163 HD
ATOM     15  H   UNL     1      -0.905  -7.023  -4.131  0.00  0.00    +0.163 HD
ENDBRANCH   5  13
BRANCH   1  16
ATOM     16  S   UNL     1      -1.849  -5.016  -2.276  0.00  0.00    -0.078 S 
BRANCH  16  17
ATOM     17  C   UNL     1      -2.617  -4.071  -0.937  0.00  0.00    +0.133 C 
BRANCH  17  21
ATOM     18  N   UNL     1       0.172  -0.115  -0.160  0.00  0.00    -0.251 N 
ATOM     19  C   UNL     1      -0.910  -0.819  -0.675  0.00  0.00    +0.167 A 
ATOM     20  N   UNL     1      -1.205  -2.097  -0.543  0.00  0.00    -0.229 NA
ATOM     21  C   UNL     1      -2.286  -2.610  -1.099  0.00  0.00    +0.061 A 
ATOM     22  C   UNL     1      -3.089  -1.793  -1.824  0.00  0.00    +0.072 A 
ATOM     23  S   UNL     1      -2.217  -0.241  -1.662  0.00  0.00    -0.060 S 
ATOM     24  C   UNL     1       1.068  -0.740   0.629  0.00  0.00    +0.218 C 
ATOM     25  O   UNL     1       0.982  -1.935   0.816  0.00  0.00    -0.276 OA
ATOM     26  C   UNL     1       2.177   0.046   1.280  0.00  0.00    +0.110 C 
BRANCH  18  28
ATOM     27  C   UNL     1      -0.258   2.152   0.652  0.00  0.00    +0.025 C 
ATOM     28  C   UNL     1       0.339   1.306  -0.475  0.00  0.00    +0.112 C 
ENDBRANCH  18  28
ENDBRANCH  17  21
ENDBRANCH  16  17
ENDBRANCH   1  16
TORSDOF 6
