REMARK  Name = ZINC20615342
REMARK  7 active torsions:
REMARK  status: ('A' for Active; 'I' for Inactive)
REMARK    1  A    between atoms: C_1  and  O_2
REMARK    2  A    between atoms: O_2  and  C_3
REMARK    3  A    between atoms: C_8  and  N_9
REMARK    4  A    between atoms: C_12  and  C_20
REMARK    5  A    between atoms: C_14  and  C_16
REMARK    6  A    between atoms: C_20  and  O_22
REMARK    7  A    between atoms: O_22  and  C_23
REMARK                            x       y       z     vdW  Elec       q    Type
REMARK                         _______ _______ _______ _____ _____    ______ ____
ROOT
ATOM      1  N   UNL     1      -0.231   5.852   0.035  0.00  0.00    -0.270 N 
ATOM      2  C   UNL     1      -0.176   4.470   0.028  0.00  0.00    +0.154 A 
ATOM      3  C   UNL     1       1.087   3.857   0.012  0.00  0.00    +0.097 A 
ATOM      4  C   UNL     1       1.174   2.455   0.004  0.00  0.00    +0.095 A 
ATOM      5  C   UNL     1      -0.021   1.732   0.012  0.00  0.00    +0.077 A 
ATOM      6  C   UNL     1      -1.228   2.417   0.021  0.00  0.00    +0.066 A 
ATOM      7  N   UNL     1      -1.275   3.733   0.034  0.00  0.00    -0.232 NA
ATOM      8 CL   UNL     1       0.002  -0.004   0.002  0.00  0.00    -0.081 Cl
ATOM      9  C   UNL     1       2.285   4.715   0.005  0.00  0.00    +0.262 A 
ATOM     10  O   UNL     1       3.403   4.228  -0.008  0.00  0.00    -0.267 OA
ATOM     11  N   UNL     1       2.116   6.045   0.014  0.00  0.00    -0.302 N 
ATOM     12  C   UNL     1       0.915   6.587   0.028  0.00  0.00    +0.167 A 
ATOM     13  S   UNL     1       0.787   8.344   0.039  0.00  0.00    -0.012 S 
ATOM     14  H   UNL     1       3.009   6.687   0.010  0.00  0.00    +0.171 HD
ENDROOT
BRANCH   1  20
ATOM     15  C   UNL     1      -2.105   6.829  -1.147  0.00  0.00    +0.144 A 
ATOM     16  C   UNL     1      -3.333   7.469  -1.125  0.00  0.00    +0.048 A 
ATOM     17  C   UNL     1      -3.930   7.780   0.082  0.00  0.00    +0.004 A 
ATOM     18  C   UNL     1      -3.304   7.454   1.271  0.00  0.00    +0.002 A 
ATOM     19  C   UNL     1      -2.082   6.810   1.259  0.00  0.00    +0.030 A 
ATOM     20  C   UNL     1      -1.474   6.500   0.051  0.00  0.00    +0.092 A 
BRANCH  15  22
ATOM     21  C   UNL     1      -2.222   6.890  -3.521  0.00  0.00    +0.277 C 
ATOM     22  O   UNL     1      -1.517   6.522  -2.334  0.00  0.00    -0.493 OA
ENDBRANCH  15  22
ENDBRANCH   1  20
BRANCH   6  23
ATOM     23  C   UNL     1      -2.517   1.636   0.023  0.00  0.00    +0.039 C 
ATOM     24  C   UNL     1      -3.817   2.418  -0.173  0.00  0.00    +0.010 C 
ATOM     25  C   UNL     1      -3.468   1.845   1.203  0.00  0.00    +0.010 C 
ENDBRANCH   6  23
BRANCH   4  26
ATOM     26  C   UNL     1       2.485   1.768  -0.013  0.00  0.00    +0.341 C 
ATOM     27  O   UNL     1       3.013   1.493  -1.071  0.00  0.00    -0.245 OA
BRANCH  26  28
ATOM     28  O   UNL     1       3.093   1.449   1.146  0.00  0.00    -0.464 OA
ATOM     29  C   UNL     1       4.377   0.777   1.054  0.00  0.00    +0.280 C 
ENDBRANCH  26  28
ENDBRANCH   4  26
TORSDOF 5
