REMARK  Name = ZINC46749748
REMARK  7 active torsions:
REMARK  status: ('A' for Active; 'I' for Inactive)
REMARK    1  A    between atoms: C_1  and  C_2
REMARK    2  A    between atoms: C_2  and  O_3
REMARK    3  A    between atoms: O_3  and  C_4
REMARK    4  A    between atoms: C_4  and  C_6
REMARK    5  A    between atoms: C_9  and  S_11
REMARK    6  A    between atoms: S_11  and  N_14
REMARK    7  A    between atoms: C_20  and  C_22
REMARK                            x       y       z     vdW  Elec       q    Type
REMARK                         _______ _______ _______ _____ _____    ______ ____
ROOT
ATOM      1  N   UNL     1       2.217  -1.844  -7.084  0.00  0.00    -0.171 NA
ATOM      2  C   UNL     1       1.875  -3.003  -7.920  0.00  0.00    +0.128 C 
ATOM      3  C   UNL     1       0.363  -3.243  -7.832  0.00  0.00    +0.125 C 
ATOM      4  N   UNL     1      -0.329  -1.968  -8.072  0.00  0.00    -0.298 N 
ATOM      5  C   UNL     1       0.012  -0.809  -7.235  0.00  0.00    +0.125 C 
ATOM      6  C   UNL     1       1.521  -0.571  -7.319  0.00  0.00    +0.128 C 
ATOM      7  C   UNL     1      -1.260  -1.865  -9.041  0.00  0.00    +0.223 C 
ATOM      8  O   UNL     1      -1.470  -2.801  -9.782  0.00  0.00    -0.275 OA
ENDROOT
BRANCH   7   9
ATOM      9  C   UNL     1      -2.038  -0.585  -9.204  0.00  0.00    +0.105 C 
ATOM     10  C   UNL     1      -3.219  -0.587  -8.236  0.00  0.00    +0.018 C 
ATOM     11  C   UNL     1      -4.118   0.611  -8.565  0.00  0.00    +0.006 C 
ATOM     12  C   UNL     1      -4.802   0.346  -9.905  0.00  0.00    +0.035 C 
ATOM     13  C   UNL     1      -3.788  -0.043 -10.949  0.00  0.00    -0.043 A 
ATOM     14  C   UNL     1      -2.521  -0.475 -10.627  0.00  0.00    -0.032 A 
ATOM     15  C   UNL     1      -1.637  -0.826 -11.638  0.00  0.00    +0.004 A 
ATOM     16  C   UNL     1      -2.017  -0.742 -12.962  0.00  0.00    +0.000 A 
ATOM     17  C   UNL     1      -3.288  -0.306 -13.285  0.00  0.00    +0.000 A 
ATOM     18  C   UNL     1      -4.168   0.042 -12.282  0.00  0.00    +0.004 A 
ENDBRANCH   7   9
BRANCH   1  19
ATOM     19  S   UNL     1       3.360  -1.971  -5.893  0.00  0.00    +0.094 S 
ATOM     20  O   UNL     1       3.854  -0.659  -5.662  0.00  0.00    -0.150 OA
ATOM     21  O   UNL     1       4.208  -3.052  -6.258  0.00  0.00    -0.150 OA
BRANCH  19  25
ATOM     22  C   UNL     1       1.443  -2.354  -2.515  0.00  0.00    +0.214 A 
ATOM     23  C   UNL     1       1.617  -3.678  -2.806  0.00  0.00    +0.059 A 
ATOM     24  C   UNL     1       2.309  -3.736  -4.025  0.00  0.00    +0.072 A 
ATOM     25  C   UNL     1       2.526  -2.461  -4.420  0.00  0.00    +0.259 A 
ATOM     26  O   UNL     1       1.998  -1.632  -3.510  0.00  0.00    -0.430 OA
BRANCH  22  27
ATOM     27  C   UNL     1       0.768  -1.815  -1.333  0.00  0.00    +0.375 C 
ATOM     28  O   UNL     1       0.304  -2.569  -0.499  0.00  0.00    -0.241 OA
BRANCH  27  29
ATOM     29  O   UNL     1       0.660  -0.480  -1.168  0.00  0.00    -0.459 OA
BRANCH  29  31
ATOM     30  C   UNL     1      -0.035   1.506   0.020  0.00  0.00    +0.048 C 
ATOM     31  C   UNL     1      -0.011  -0.023   0.008  0.00  0.00    +0.229 C 
ENDBRANCH  29  31
ENDBRANCH  27  29
ENDBRANCH  22  27
ENDBRANCH  19  25
ENDBRANCH   1  19
TORSDOF 6
