REMARK  Name = ZINC56011180
REMARK  11 active torsions:
REMARK  status: ('A' for Active; 'I' for Inactive)
REMARK    1  A    between atoms: C_1  and  C_2
REMARK    2  A    between atoms: C_5  and  C_29
REMARK    3  A    between atoms: N_8  and  C_10
REMARK    4  A    between atoms: C_10  and  C_11
REMARK    5  A    between atoms: C_16  and  C_17
REMARK    6  A    between atoms: C_17  and  N_18
REMARK    7  A    between atoms: C_19  and  C_21
REMARK    8  A    between atoms: C_21  and  C_22
REMARK    9  A    between atoms: C_21  and  C_23
REMARK   10  A    between atoms: C_21  and  N_24
REMARK   11  A    between atoms: N_27  and  C_28
REMARK                            x       y       z     vdW  Elec       q    Type
REMARK                         _______ _______ _______ _____ _____    ______ ____
ROOT
ATOM      1  C   UNL     1       3.041  -2.188   2.519  0.00  0.00    -0.059 A 
ATOM      2  C   UNL     1       3.941  -3.113   2.024  0.00  0.00    +0.002 A 
ATOM      3  C   UNL     1       5.246  -2.739   1.766  0.00  0.00    +0.000 A 
ATOM      4  C   UNL     1       5.652  -1.438   2.003  0.00  0.00    +0.000 A 
ATOM      5  C   UNL     1       4.752  -0.513   2.497  0.00  0.00    +0.005 A 
ATOM      6  C   UNL     1       3.445  -0.886   2.751  0.00  0.00    -0.029 A 
ENDROOT
BRANCH   1   7
ATOM      7  C   UNL     1       1.618  -2.596   2.801  0.00  0.00    -0.043 C 
BRANCH   7  13
ATOM      8  C   UNL     1       1.375  -5.327  -1.255  0.00  0.00    +0.005 C 
ATOM      9  C   UNL     1       1.299  -5.351   0.273  0.00  0.00    -0.031 C 
ATOM     10  C   UNL     1      -0.060  -5.907   0.708  0.00  0.00    +0.003 C 
ATOM     11  C   UNL     1      -0.156  -5.855   2.236  0.00  0.00    -0.031 C 
ATOM     12  C   UNL     1       0.059  -4.415   2.706  0.00  0.00    -0.075 C 
ATOM     13  N   UNL     1       1.385  -3.950   2.281  0.00  0.00    +0.383 N 
ATOM     14  C   UNL     1       1.461  -3.930   0.815  0.00  0.00    -0.075 C 
ATOM     15  C   UNL     1      -1.539  -6.336   2.678  0.00  0.00    +0.005 C 
ATOM     16  H   UNL     1       2.091  -4.574   2.644  0.00  0.00    -0.081 HD
ENDBRANCH   7  13
ENDBRANCH   1   7
BRANCH   6  17
ATOM     17  C   UNL     1       2.463   0.124   3.285  0.00  0.00    +0.139 C 
BRANCH  17  18
ATOM     18  N   UNL     1       2.228  -0.129   4.709  0.00  0.00    -0.309 N 
ATOM     19  C   UNL     1       1.379   0.656   5.402  0.00  0.00    +0.236 C 
ATOM     20  O   UNL     1       0.810   1.572   4.846  0.00  0.00    -0.273 OA
ATOM     21  H   UNL     1       2.684  -0.861   5.154  0.00  0.00    +0.149 HD
BRANCH  19  22
ATOM     22  C   UNL     1       1.138   0.397   6.867  0.00  0.00    +0.106 C 
ATOM     23  C   UNL     1       2.222   1.091   7.693  0.00  0.00    +0.041 C 
ATOM     24  C   UNL     1      -0.234   0.945   7.262  0.00  0.00    +0.041 C 
BRANCH  22  25
ATOM     25  N   UNL     1       1.179  -1.046   7.120  0.00  0.00    -0.286 N 
ATOM     26  C   UNL     1       0.988  -1.516   8.368  0.00  0.00    +0.300 C 
ATOM     27  O   UNL     1       0.781  -0.744   9.284  0.00  0.00    -0.253 OA
ATOM     28  N   UNL     1       1.026  -2.843   8.602  0.00  0.00    -0.302 N 
ATOM     29  C   UNL     1       0.818  -3.355   9.959  0.00  0.00    +0.129 C 
ATOM     30  H   UNL     1       1.344  -1.662   6.389  0.00  0.00    +0.151 HD
ATOM     31  H   UNL     1       1.190  -3.459   7.871  0.00  0.00    +0.150 HD
ENDBRANCH  22  25
ENDBRANCH  19  22
ENDBRANCH  17  18
ENDBRANCH   6  17
TORSDOF 6
