REMARK  Name = ZINC39515664
REMARK  6 active torsions:
REMARK  status: ('A' for Active; 'I' for Inactive)
REMARK    1  A    between atoms: C_1  and  C_2
REMARK    2  A    between atoms: C_2  and  C_3
REMARK    3  A    between atoms: C_2  and  C_4
REMARK    4  A    between atoms: C_4  and  C_5
REMARK    5  A    between atoms: N_12  and  C_15
REMARK    6  A    between atoms: N_20  and  C_21
REMARK                            x       y       z     vdW  Elec       q    Type
REMARK                         _______ _______ _______ _____ _____    ______ ____
ROOT
ATOM      1  C   UNL     1      -5.412  -3.895   2.138  0.00  0.00    +0.217 C 
ATOM      2  N   UNL     1      -4.795  -3.868   3.487  0.00  0.00    -0.316 NA
ATOM      3  N   UNL     1      -5.745  -4.657   4.292  0.00  0.00    +0.411 N 
ATOM      4  N   UNL     1      -6.191  -5.691   3.348  0.00  0.00    -0.265 NA
ATOM      5  N   UNL     1      -6.307  -5.064   2.129  0.00  0.00    -0.250 N 
ATOM      6  H   UNL     1      -3.884  -4.300   3.477  0.00  0.00    +0.107 HD
ATOM      7  H   UNL     1      -5.281  -5.073   5.085  0.00  0.00    -0.031 HD
ATOM      8  H   UNL     1      -7.073  -6.087   3.636  0.00  0.00    +0.125 HD
ATOM      9  H   UNL     1      -6.522  -4.086   4.589  0.00  0.00    -0.031 HD
ENDROOT
BRANCH   1  16
ATOM     10  C   UNL     1      -1.416  -2.035  -0.119  0.00  0.00    +0.051 C 
ATOM     11  N   UNL     1      -0.373  -2.799  -0.222  0.00  0.00    -0.158 NA
ATOM     12  N   UNL     1      -0.709  -4.153  -0.278  0.00  0.00    -0.158 NA
ATOM     13  C   UNL     1      -1.961  -4.341  -0.154  0.00  0.00    +0.052 C 
ATOM     14  C   UNL     1      -2.605  -2.957  -0.152  0.00  0.00    +0.096 C 
ATOM     15  C   UNL     1      -3.452  -2.895   1.120  0.00  0.00    +0.102 C 
ATOM     16  N   UNL     1      -4.374  -4.043   1.109  0.00  0.00    -0.271 NA
ATOM     17  C   UNL     1      -3.700  -5.339   1.226  0.00  0.00    +0.093 C 
ATOM     18  C   UNL     1      -2.797  -5.587  -0.003  0.00  0.00    +0.069 C 
BRANCH  10  19
ATOM     19  C   UNL     1      -1.433  -0.534   0.013  0.00  0.00    +0.056 C 
BRANCH  19  21
ATOM     20  C   UNL     1      -0.019   1.526   0.010  0.00  0.00    +0.007 C 
ATOM     21  C   UNL     1       0.002  -0.004   0.002  0.00  0.00    -0.012 C 
ATOM     22  C   UNL     1       0.742  -0.511   1.242  0.00  0.00    +0.007 C 
ENDBRANCH  19  21
ENDBRANCH  10  19
ENDBRANCH   1  16
BRANCH   5  23
ATOM     23  C   UNL     1      -7.127  -5.464   1.071  0.00  0.00    +0.046 A 
ATOM     24  C   UNL     1      -7.141  -4.737  -0.113  0.00  0.00    +0.024 A 
ATOM     25  C   UNL     1      -7.952  -5.136  -1.157  0.00  0.00    +0.002 A 
ATOM     26  C   UNL     1      -8.750  -6.257  -1.025  0.00  0.00    +0.000 A 
ATOM     27  C   UNL     1      -8.739  -6.983   0.152  0.00  0.00    +0.002 A 
ATOM     28  C   UNL     1      -7.926  -6.593   1.198  0.00  0.00    +0.024 A 
ENDBRANCH   5  23
TORSDOF 4
