REMARK  Name = ZINC38990237
REMARK  3 active torsions:
REMARK  status: ('A' for Active; 'I' for Inactive)
REMARK    1  A    between atoms: C_14  and  C_15
REMARK    2  A    between atoms: N_16  and  N_17
REMARK    3  A    between atoms: C_18  and  C_24
REMARK                            x       y       z     vdW  Elec       q    Type
REMARK                         _______ _______ _______ _____ _____    ______ ____
ROOT
ATOM      1  C   UNL     1       4.966   0.240  -0.020  0.00  0.00    +0.139 C 
ATOM      2  N   UNL     1       4.915   1.536  -0.136  0.00  0.00    -0.183 NA
ENDROOT
BRANCH   1  16
ATOM      3  C   UNL     1      -0.019   1.333  -0.160  0.00  0.00    +0.001 A 
ATOM      4  C   UNL     1       1.154   2.086  -0.127  0.00  0.00    +0.001 A 
ATOM      5  C   UNL     1       2.379   1.497  -0.093  0.00  0.00    +0.009 A 
ATOM      6  C   UNL     1       2.476   0.095  -0.089  0.00  0.00    -0.009 A 
ATOM      7  C   UNL     1       1.246  -0.699  -0.123  0.00  0.00    -0.017 A 
ATOM      8  C   UNL     1       0.006  -0.025  -0.159  0.00  0.00    +0.008 A 
ATOM      9  C   UNL     1       1.307  -2.093  -0.121  0.00  0.00    +0.017 A 
ATOM     10  C   UNL     1       2.544  -2.737  -0.086  0.00  0.00    -0.017 A 
ATOM     11  C   UNL     1       2.631  -4.146  -0.084  0.00  0.00    +0.008 A 
ATOM     12  C   UNL     1       3.851  -4.742  -0.051  0.00  0.00    +0.001 A 
ATOM     13  C   UNL     1       5.029  -3.997  -0.018  0.00  0.00    +0.001 A 
ATOM     14  C   UNL     1       5.013  -2.637  -0.018  0.00  0.00    +0.009 A 
ATOM     15  C   UNL     1       3.783  -1.957  -0.052  0.00  0.00    -0.009 A 
ATOM     16  C   UNL     1       3.731  -0.548  -0.054  0.00  0.00    +0.010 A 
ENDBRANCH   1  16
BRANCH   2  17
ATOM     17  N   UNL     1       6.100   2.276  -0.249  0.00  0.00    -0.172 N 
ATOM     18  C   UNL     1       6.251   3.743  -0.253  0.00  0.00    +0.266 C 
ATOM     19  N   UNL     1       7.700   3.948  -0.397  0.00  0.00    -0.189 NA
ATOM     20  N   UNL     1       8.239   2.840  -0.460  0.00  0.00    -0.219 N 
ATOM     21  C   UNL     1       7.360   1.806  -0.373  0.00  0.00    +0.174 C 
ATOM     22  S   UNL     1       7.788   0.149  -0.420  0.00  0.00    -0.015 S 
ATOM     23  H   UNL     1       9.197   2.718  -0.557  0.00  0.00    +0.176 HD
BRANCH  18  24
ATOM     24  C   UNL     1       5.757   4.330   1.044  0.00  0.00    +0.033 A 
ATOM     25  C   UNL     1       4.819   3.649   1.798  0.00  0.00    +0.010 A 
ATOM     26  C   UNL     1       4.366   4.186   2.988  0.00  0.00    +0.001 A 
ATOM     27  C   UNL     1       4.850   5.405   3.426  0.00  0.00    +0.003 A 
ATOM     28  C   UNL     1       5.788   6.087   2.674  0.00  0.00    +0.039 A 
ATOM     29  C   UNL     1       6.246   5.547   1.484  0.00  0.00    +0.130 A 
ATOM     30  F   UNL     1       7.166   6.211   0.751  0.00  0.00    -0.205 F 
ENDBRANCH  18  24
ENDBRANCH   2  17
TORSDOF 3
