REMARK  Name = ZINC03427364
REMARK  9 active torsions:
REMARK  status: ('A' for Active; 'I' for Inactive)
REMARK    1  A    between atoms: C_1  and  C_2
REMARK    2  A    between atoms: C_4  and  C_31
REMARK    3  A    between atoms: C_6  and  C_8
REMARK    4  A    between atoms: N_10  and  N_11
REMARK    5  A    between atoms: C_12  and  C_14
REMARK    6  A    between atoms: C_17  and  C_20
REMARK    7  A    between atoms: C_20  and  O_21
REMARK    8  A    between atoms: O_21  and  C_22
REMARK    9  A    between atoms: C_25  and  N_28
REMARK                            x       y       z     vdW  Elec       q    Type
REMARK                         _______ _______ _______ _____ _____    ______ ____
ROOT
ATOM      1  C   UNL     1      -3.682   1.682   0.029  0.00  0.00    +0.038 A 
ATOM      2  C   UNL     1      -3.704   3.077   0.042  0.00  0.00    +0.013 A 
ATOM      3  C   UNL     1      -4.912   3.745   0.046  0.00  0.00    +0.008 A 
ATOM      4  C   UNL     1      -6.099   3.034   0.048  0.00  0.00    -0.010 A 
ATOM      5  C   UNL     1      -6.083   1.650   0.040  0.00  0.00    +0.008 A 
ATOM      6  C   UNL     1      -4.883   0.971   0.030  0.00  0.00    +0.013 A 
ENDROOT
BRANCH   1   8
ATOM      7  N   UNL     1      -1.234   1.650   0.017  0.00  0.00    -0.230 N 
ATOM      8  C   UNL     1      -2.392   0.960   0.019  0.00  0.00    +0.260 C 
ATOM      9  O   UNL     1      -2.375  -0.255   0.012  0.00  0.00    -0.269 OA
ATOM     10  H   UNL     1      -1.247   2.620   0.022  0.00  0.00    +0.173 HD
BRANCH   7  13
ATOM     11  C   UNL     1       1.147   1.655   0.000  0.00  0.00    +0.260 C 
ATOM     12  O   UNL     1       1.130   2.871   0.007  0.00  0.00    -0.269 OA
ATOM     13  N   UNL     1      -0.011   0.966   0.007  0.00  0.00    -0.230 N 
ATOM     14  H   UNL     1       0.002  -0.004   0.002  0.00  0.00    +0.173 HD
BRANCH  11  20
ATOM     15  C   UNL     1       3.693  -2.636  -0.045  0.00  0.00    +0.044 C 
ATOM     16  C   UNL     1       3.667  -1.129  -0.038  0.00  0.00    -0.049 A 
ATOM     17  C   UNL     1       4.854  -0.418  -0.046  0.00  0.00    +0.006 A 
ATOM     18  C   UNL     1       4.838   0.966  -0.038  0.00  0.00    -0.049 A 
ATOM     19  C   UNL     1       3.638   1.645  -0.024  0.00  0.00    +0.016 A 
ATOM     20  C   UNL     1       2.437   0.934  -0.016  0.00  0.00    +0.039 A 
ATOM     21  C   UNL     1       2.459  -0.462  -0.018  0.00  0.00    +0.016 A 
ATOM     22  C   UNL     1       6.136   1.732  -0.047  0.00  0.00    +0.044 C 
ENDBRANCH  11  20
ENDBRANCH   7  13
ENDBRANCH   1   8
BRANCH   4  23
ATOM     23  C   UNL     1      -7.414   3.769   0.058  0.00  0.00    +0.264 C 
BRANCH  23  24
ATOM     24  O   UNL     1      -7.824   3.995   1.408  0.00  0.00    -0.487 OA
BRANCH  24  25
ATOM     25  C   UNL     1      -8.999   4.651   1.595  0.00  0.00    +0.121 A 
ATOM     26  C   UNL     1      -9.739   5.075   0.501  0.00  0.00    +0.048 A 
ATOM     27  C   UNL     1     -10.936   5.739   0.694  0.00  0.00    +0.036 A 
ATOM     28  C   UNL     1     -11.390   5.989   1.975  0.00  0.00    +0.126 A 
ATOM     29  C   UNL     1     -10.652   5.572   3.067  0.00  0.00    +0.036 A 
ATOM     30  C   UNL     1      -9.457   4.904   2.880  0.00  0.00    +0.048 A 
BRANCH  28  31
ATOM     31  N   UNL     1     -12.670   6.704   2.179  0.00  0.00    +0.056 N 
ATOM     32  O   UNL     1     -13.071   6.925   3.307  0.00  0.00    -0.126 OA
ATOM     33  O   UNL     1     -13.321   7.072   1.217  0.00  0.00    -0.126 OA
ENDBRANCH  28  31
ENDBRANCH  24  25
ENDBRANCH  23  24
ENDBRANCH   4  23
TORSDOF 7
