REMARK  Name = ZINC19314472
REMARK  10 active torsions:
REMARK  status: ('A' for Active; 'I' for Inactive)
REMARK    1  A    between atoms: C_1  and  C_2
REMARK    2  A    between atoms: C_2  and  C_25
REMARK    3  A    between atoms: N_5  and  C_9
REMARK    4  A    between atoms: C_9  and  C_10
REMARK    5  A    between atoms: N_12  and  C_13
REMARK    6  A    between atoms: C_13  and  C_14
REMARK    7  A    between atoms: C_14  and  C_15
REMARK    8  A    between atoms: C_18  and  O_21
REMARK    9  A    between atoms: O_21  and  C_22
REMARK   10  A    between atoms: C_28  and  C_31
REMARK                            x       y       z     vdW  Elec       q    Type
REMARK                         _______ _______ _______ _____ _____    ______ ____
ROOT
ATOM      1  C   UNL     1       4.790   6.362  -1.125  0.00  0.00    +0.047 C 
ATOM      2  C   UNL     1       4.547   4.928  -0.649  0.00  0.00    +0.135 C 
ATOM      3  C   UNL     1       3.194   4.432  -1.120  0.00  0.00    +0.251 C 
ATOM      4  O   UNL     1       2.819   4.303  -2.265  0.00  0.00    -0.272 OA
ATOM      5  N   UNL     1       2.494   4.164   0.001  0.00  0.00    -0.215 N 
ATOM      6  C   UNL     1       3.208   4.424   1.102  0.00  0.00    +0.310 C 
ATOM      7  O   UNL     1       2.789   4.265   2.232  0.00  0.00    -0.252 OA
ATOM      8  N   UNL     1       4.442   4.877   0.820  0.00  0.00    -0.281 N 
ATOM      9  H   UNL     1       5.296   5.183   1.442  0.00  0.00    +0.152 HD
ENDROOT
BRANCH   2  10
ATOM     10  C   UNL     1       5.644   4.016  -1.135  0.00  0.00    -0.015 A 
ATOM     11  C   UNL     1       5.489   3.325  -2.323  0.00  0.00    +0.007 A 
ATOM     12  C   UNL     1       6.491   2.493  -2.776  0.00  0.00    +0.019 A 
ATOM     13  C   UNL     1       7.660   2.340  -2.027  0.00  0.00    +0.052 A 
ATOM     14  C   UNL     1       7.807   3.037  -0.826  0.00  0.00    +0.019 A 
ATOM     15  C   UNL     1       6.799   3.870  -0.387  0.00  0.00    +0.007 A 
BRANCH  13  16
ATOM     16  C   UNL     1       8.702   1.474  -2.488  0.00  0.00    +0.099 C 
ATOM     17  N   UNL     1       9.529   0.786  -2.854  0.00  0.00    -0.191 NA
ENDBRANCH  13  16
ENDBRANCH   2  10
BRANCH   5  18
ATOM     18  C   UNL     1       1.120   3.657   0.011  0.00  0.00    +0.213 C 
BRANCH  18  19
ATOM     19  C   UNL     1       1.140   2.151   0.003  0.00  0.00    +0.231 C 
ATOM     20  O   UNL     1       2.199   1.558  -0.011  0.00  0.00    -0.274 OA
ATOM     21  N   UNL     1      -0.018   1.461   0.010  0.00  0.00    -0.314 N 
ATOM     22  H   UNL     1      -0.978   1.998   0.022  0.00  0.00    +0.149 HD
BRANCH  21  23
ATOM     23  C   UNL     1       0.002  -0.004   0.002  0.00  0.00    +0.109 C 
BRANCH  23  24
ATOM     24  C   UNL     1      -1.433  -0.534   0.013  0.00  0.00    +0.054 C 
BRANCH  24  25
ATOM     25  C   UNL     1      -1.413  -2.041   0.005  0.00  0.00    -0.046 A 
ATOM     26  C   UNL     1      -1.421  -2.724  -1.197  0.00  0.00    +0.007 A 
ATOM     27  C   UNL     1      -1.396  -4.105  -1.208  0.00  0.00    +0.046 A 
ATOM     28  C   UNL     1      -1.375  -4.807  -0.011  0.00  0.00    +0.127 A 
ATOM     29  C   UNL     1      -1.373  -4.118   1.194  0.00  0.00    +0.046 A 
ATOM     30  C   UNL     1      -1.392  -2.737   1.199  0.00  0.00    +0.007 A 
BRANCH  28  31
ATOM     31  O   UNL     1      -1.357  -6.165  -0.018  0.00  0.00    -0.434 OA
BRANCH  31  32
ATOM     32  C   UNL     1      -1.360  -6.807  -1.295  0.00  0.00    +0.541 C 
ATOM     33  F   UNL     1      -2.514  -6.443  -1.997  0.00  0.00    -0.166 F 
ATOM     34  F   UNL     1      -0.230  -6.412  -2.018  0.00  0.00    -0.166 F 
ENDBRANCH  31  32
ENDBRANCH  28  31
ENDBRANCH  24  25
ENDBRANCH  23  24
ENDBRANCH  21  23
ENDBRANCH  18  19
ENDBRANCH   5  18
TORSDOF 9
