REMARK  Name = ZINC12562380
REMARK  11 active torsions:
REMARK  status: ('A' for Active; 'I' for Inactive)
REMARK    1  A    between atoms: C_1  and  C_2
REMARK    2  A    between atoms: C_2  and  C_4
REMARK    3  A    between atoms: C_2  and  S_14
REMARK    4  A    between atoms: N_9  and  C_10
REMARK    5  A    between atoms: C_10  and  C_11
REMARK    6  A    between atoms: C_10  and  C_12
REMARK    7  A    between atoms: C_10  and  C_13
REMARK    8  A    between atoms: S_14  and  C_15
REMARK    9  A    between atoms: N_19  and  C_20
REMARK   10  A    between atoms: C_25  and  O_26
REMARK   11  A    between atoms: O_26  and  C_27
REMARK                            x       y       z     vdW  Elec       q    Type
REMARK                         _______ _______ _______ _____ _____    ______ ____
ROOT
ATOM      1  C   UNL     1      -1.759   3.344  -2.462  0.00  0.00    +0.198 A 
ATOM      2  N   UNL     1      -2.008   2.118  -2.854  0.00  0.00    -0.120 NA
ATOM      3  N   UNL     1      -1.372   1.241  -1.966  0.00  0.00    -0.112 NA
ATOM      4  C   UNL     1      -0.762   1.958  -1.054  0.00  0.00    +0.225 A 
ATOM      5  N   UNL     1      -0.981   3.278  -1.338  0.00  0.00    -0.255 N 
ATOM      6  N   UNL     1      -0.018   1.464   0.010  0.00  0.00    -0.299 N 
ATOM      7  C   UNL     1       1.344   2.014   0.000  0.00  0.00    +0.108 C 
ATOM      8  C   UNL     1       2.086   1.565   1.261  0.00  0.00    +0.019 C 
ATOM      9  C   UNL     1       2.133   0.035   1.302  0.00  0.00    +0.003 C 
ATOM     10  C   UNL     1       0.704  -0.513   1.263  0.00  0.00    +0.019 C 
ATOM     11  C   UNL     1       0.002  -0.004   0.002  0.00  0.00    +0.108 C 
ENDROOT
BRANCH   5  12
ATOM     12  C   UNL     1      -0.494   4.373  -0.606  0.00  0.00    +0.093 A 
ATOM     13  C   UNL     1       0.734   4.932  -0.924  0.00  0.00    +0.030 A 
ATOM     14  C   UNL     1       1.212   6.009  -0.202  0.00  0.00    +0.002 A 
ATOM     15  C   UNL     1       0.467   6.532   0.840  0.00  0.00    +0.004 A 
ATOM     16  C   UNL     1      -0.758   5.980   1.163  0.00  0.00    +0.048 A 
ATOM     17  C   UNL     1      -1.246   4.903   0.440  0.00  0.00    +0.144 A 
BRANCH  17  18
ATOM     18  O   UNL     1      -2.454   4.362   0.753  0.00  0.00    -0.493 OA
ATOM     19  C   UNL     1      -3.170   4.958   1.837  0.00  0.00    +0.277 C 
ENDBRANCH  17  18
ENDBRANCH   5  12
BRANCH   1  20
ATOM     20  S   UNL     1      -2.326   4.817  -3.245  0.00  0.00    -0.073 S 
BRANCH  20  22
ATOM     21  C   UNL     1      -4.518   3.456  -4.153  0.00  0.00    +0.029 C 
ATOM     22  C   UNL     1      -3.292   4.218  -4.659  0.00  0.00    +0.137 C 
BRANCH  22  23
ATOM     23  C   UNL     1      -3.740   5.390  -5.494  0.00  0.00    +0.233 C 
ATOM     24  O   UNL     1      -3.766   6.503  -5.013  0.00  0.00    -0.274 OA
ATOM     25  N   UNL     1      -4.110   5.202  -6.776  0.00  0.00    -0.239 N 
ATOM     26  C   UNL     1      -4.510   6.250  -7.523  0.00  0.00    +0.306 C 
ATOM     27  O   UNL     1      -4.537   7.365  -7.040  0.00  0.00    -0.252 OA
ATOM     28  N   UNL     1      -4.881   6.062  -8.805  0.00  0.00    -0.294 N 
ATOM     29  H   UNL     1      -4.089   4.312  -7.162  0.00  0.00    +0.159 HD
ATOM     30  H   UNL     1      -4.859   5.172  -9.190  0.00  0.00    +0.151 HD
BRANCH  28  31
ATOM     31  C   UNL     1      -5.316   7.201  -9.617  0.00  0.00    +0.028 C 
ATOM     32  C   UNL     1      -4.183   8.226  -9.706  0.00  0.00    +0.031 C 
ATOM     33  C   UNL     1      -5.678   6.718 -11.023  0.00  0.00    +0.031 C 
ATOM     34  C   UNL     1      -6.540   7.851  -8.970  0.00  0.00    +0.031 C 
ENDBRANCH  28  31
ENDBRANCH  22  23
ENDBRANCH  20  22
ENDBRANCH   1  20
TORSDOF 6
