REMARK  Name = ZINC65181665
REMARK  11 active torsions:
REMARK  status: ('A' for Active; 'I' for Inactive)
REMARK    1  A    between atoms: C_1  and  N_2
REMARK    2  A    between atoms: N_2  and  C_3
REMARK    3  A    between atoms: N_2  and  C_4
REMARK    4  A    between atoms: C_7  and  C_10
REMARK    5  A    between atoms: N_12  and  C_13
REMARK    6  A    between atoms: N_12  and  C_14
REMARK    7  A    between atoms: C_14  and  C_15
REMARK    8  A    between atoms: C_15  and  C_16
REMARK    9  A    between atoms: C_19  and  C_22
REMARK   10  A    between atoms: C_28  and  O_32
REMARK   11  A    between atoms: O_32  and  C_33
REMARK                            x       y       z     vdW  Elec       q    Type
REMARK                         _______ _______ _______ _____ _____    ______ ____
ROOT
ATOM      1  C   UNL     1      -2.259  -3.877  -8.615  0.00  0.00    +0.139 C 
ATOM      2  N   UNL     1      -1.385  -4.233  -9.485  0.00  0.00    -0.072 NA
ATOM      3  O   UNL     1      -1.992  -4.925 -10.561  0.00  0.00    -0.367 OA
ATOM      4  C   UNL     1      -3.397  -4.972 -10.269  0.00  0.00    +0.318 C 
ATOM      5  N   UNL     1      -3.524  -4.276  -8.978  0.00  0.00    -0.291 N 
ATOM      6  H   UNL     1      -4.343  -4.126  -8.480  0.00  0.00    +0.151 HD
ENDROOT
BRANCH   4   7
ATOM      7  C   UNL     1      -3.869  -6.422 -10.141  0.00  0.00    +0.165 C 
ATOM      8  C   UNL     1      -5.353  -6.465  -9.857  0.00  0.00    +0.012 C 
ATOM      9  C   UNL     1      -5.914  -7.136 -10.887  0.00  0.00    -0.004 A 
ATOM     10  C   UNL     1      -7.302  -7.505 -11.193  0.00  0.00    +0.013 A 
ATOM     11  C   UNL     1      -7.565  -8.193 -12.325  0.00  0.00    +0.046 A 
ATOM     12  C   UNL     1      -6.541  -8.565 -13.217  0.00  0.00    +0.122 A 
ATOM     13  C   UNL     1      -5.236  -8.258 -12.999  0.00  0.00    +0.071 A 
ATOM     14  C   UNL     1      -4.854  -7.537 -11.840  0.00  0.00    +0.046 A 
ATOM     15  N   UNL     1      -3.680  -7.129 -11.413  0.00  0.00    -0.373 N 
ATOM     16  H   UNL     1      -2.832  -7.271 -11.862  0.00  0.00    +0.160 HD
BRANCH  12  17
ATOM     17  O   UNL     1      -6.870  -9.255 -14.336  0.00  0.00    -0.495 OA
ATOM     18  C   UNL     1      -8.253  -9.559 -14.528  0.00  0.00    +0.277 C 
ENDBRANCH  12  17
ENDBRANCH   4   7
BRANCH   1  19
ATOM     19  C   UNL     1      -1.939  -3.123  -7.350  0.00  0.00    +0.094 C 
BRANCH  19  20
ATOM     20  C   UNL     1      -0.434  -2.854  -7.285  0.00  0.00    +0.115 C 
BRANCH  20  23
ATOM     21  C   UNL     1       0.178  -2.794  -4.927  0.00  0.00    +0.246 C 
ATOM     22  O   UNL     1       0.277  -4.006  -4.950  0.00  0.00    -0.270 OA
ATOM     23  N   UNL     1      -0.122  -2.121  -6.055  0.00  0.00    -0.300 N 
ATOM     24  C   UNL     1      -0.137  -0.656  -6.052  0.00  0.00    +0.132 C 
BRANCH  21  28
ATOM     25  C   UNL     1       0.778  -0.684  -1.292  0.00  0.00    +0.029 A 
ATOM     26  C   UNL     1       1.264  -0.160  -2.487  0.00  0.00    +0.024 A 
ATOM     27  C   UNL     1       1.071  -0.842  -3.667  0.00  0.00    +0.015 A 
ATOM     28  C   UNL     1       0.387  -2.061  -3.664  0.00  0.00    +0.037 A 
ATOM     29  C   UNL     1      -0.100  -2.584  -2.462  0.00  0.00    +0.015 A 
ATOM     30  C   UNL     1       0.101  -1.900  -1.285  0.00  0.00    +0.024 A 
BRANCH  25  32
ATOM     31  C   UNL     1       0.469  -0.545   1.158  0.00  0.00    +0.129 C 
ATOM     32  N   UNL     1       0.974   0.007  -0.101  0.00  0.00    -0.336 N 
ATOM     33  C   UNL     1       1.686   1.288  -0.106  0.00  0.00    +0.129 C 
ENDBRANCH  25  32
ENDBRANCH  21  28
ENDBRANCH  20  23
ENDBRANCH  19  20
ENDBRANCH   1  19
TORSDOF 7
