REMARK  Name = ZINC63386832
REMARK  14 active torsions:
REMARK  status: ('A' for Active; 'I' for Inactive)
REMARK    1  A    between atoms: C_1  and  C_2
REMARK    2  A    between atoms: C_2  and  C_4
REMARK    3  A    between atoms: C_2  and  N_32
REMARK    4  A    between atoms: C_7  and  S_9
REMARK    5  A    between atoms: S_9  and  C_10
REMARK    6  A    between atoms: C_10  and  C_11
REMARK    7  A    between atoms: C_26  and  C_28
REMARK    8  A    between atoms: C_28  and  O_30
REMARK    9  A    between atoms: O_30  and  C_31
REMARK   10  A    between atoms: C_33  and  O_35
REMARK   11  A    between atoms: O_35  and  C_36
REMARK   12  A    between atoms: C_36  and  C_37
REMARK   13  A    between atoms: C_36  and  C_38
REMARK   14  A    between atoms: C_36  and  C_39
REMARK                            x       y       z     vdW  Elec       q    Type
REMARK                         _______ _______ _______ _____ _____    ______ ____
ROOT
ATOM      1  C   UNL     1       4.318  -4.771   5.902  0.00  0.00    +0.227 C 
ATOM      2  O   UNL     1       5.297  -4.877   5.194  0.00  0.00    -0.275 OA
ATOM      3  N   UNL     1       4.415  -4.156   7.098  0.00  0.00    -0.285 N 
ATOM      4  C   UNL     1       3.205  -3.945   7.908  0.00  0.00    +0.137 C 
ATOM      5  C   UNL     1       3.045  -2.437   8.131  0.00  0.00    +0.124 C 
ATOM      6  C   UNL     1       4.399  -1.921   8.602  0.00  0.00    -0.035 C 
ATOM      7  C   UNL     1       4.185  -1.312   9.762  0.00  0.00    -0.001 A 
ATOM      8  C   UNL     1       5.084  -0.564  10.656  0.00  0.00    +0.010 A 
ATOM      9  C   UNL     1       4.524  -0.071  11.793  0.00  0.00    +0.001 A 
ATOM     10  C   UNL     1       3.177  -0.245  12.125  0.00  0.00    +0.002 A 
ATOM     11  C   UNL     1       2.278  -0.914  11.360  0.00  0.00    +0.026 A 
ATOM     12  C   UNL     1       2.747  -1.475  10.136  0.00  0.00    +0.043 A 
ATOM     13  N   UNL     1       2.093  -2.143   9.203  0.00  0.00    -0.376 N 
ATOM     14  C   UNL     1       5.676  -2.189   7.844  0.00  0.00    +0.067 C 
ATOM     15  C   UNL     1       5.725  -3.710   7.581  0.00  0.00    +0.189 C 
ATOM     16  H   UNL     1       1.157  -2.400   9.217  0.00  0.00    +0.160 HD
ENDROOT
BRANCH  15  17
ATOM     17  C   UNL     1       6.773  -4.009   6.540  0.00  0.00    +0.328 C 
ATOM     18  O   UNL     1       6.841  -3.335   5.540  0.00  0.00    -0.249 OA
BRANCH  17  19
ATOM     19  O   UNL     1       7.632  -5.024   6.725  0.00  0.00    -0.467 OA
ATOM     20  C   UNL     1       8.600  -5.250   5.698  0.00  0.00    +0.280 C 
ENDBRANCH  17  19
ENDBRANCH  15  17
BRANCH   1  21
ATOM     21  C   UNL     1       2.994  -5.325   5.445  0.00  0.00    +0.175 C 
BRANCH  21  22
ATOM     22  S   UNL     1       3.188  -6.085   3.809  0.00  0.00    -0.056 S 
BRANCH  22  26
ATOM     23  C   UNL     1      -0.103  -7.589   2.420  0.00  0.00    +0.238 A 
ATOM     24  N   UNL     1      -0.492  -7.118   3.568  0.00  0.00    -0.110 NA
ATOM     25  N   UNL     1       0.506  -6.572   4.170  0.00  0.00    -0.101 NA
ATOM     26  C   UNL     1       1.576  -6.678   3.419  0.00  0.00    +0.278 A 
ATOM     27  O   UNL     1       1.214  -7.329   2.298  0.00  0.00    -0.414 OA
BRANCH  23  29
ATOM     28  C   UNL     1      -1.851  -7.285   0.688  0.00  0.00    +0.038 C 
ATOM     29  C   UNL     1      -0.967  -8.302   1.412  0.00  0.00    +0.161 C 
BRANCH  29  30
ATOM     30  N   UNL     1      -1.812  -9.282   2.099  0.00  0.00    -0.270 N 
ATOM     31  C   UNL     1      -2.277 -10.356   1.430  0.00  0.00    +0.401 C 
ATOM     32  O   UNL     1      -1.997 -10.511   0.258  0.00  0.00    -0.226 OA
ATOM     33  H   UNL     1      -2.036  -9.158   3.034  0.00  0.00    +0.153 HD
BRANCH  31  34
ATOM     34  O   UNL     1      -3.054 -11.257   2.062  0.00  0.00    -0.445 OA
BRANCH  34  35
ATOM     35  C   UNL     1      -3.512 -12.370   1.292  0.00  0.00    +0.107 C 
ATOM     36  C   UNL     1      -2.309 -13.159   0.770  0.00  0.00    +0.055 C 
ATOM     37  C   UNL     1      -4.373 -13.278   2.173  0.00  0.00    +0.055 C 
ATOM     38  C   UNL     1      -4.344 -11.867   0.111  0.00  0.00    +0.055 C 
ENDBRANCH  34  35
ENDBRANCH  31  34
ENDBRANCH  29  30
ENDBRANCH  23  29
ENDBRANCH  22  26
ENDBRANCH  21  22
ENDBRANCH   1  21
TORSDOF 9
