REMARK  Name = ZINC13691347
REMARK  5 active torsions:
REMARK  status: ('A' for Active; 'I' for Inactive)
REMARK    1  A    between atoms: C_3  and  C_6
REMARK    2  A    between atoms: N_18  and  C_19
REMARK    3  A    between atoms: C_19  and  C_20
REMARK    4  A    between atoms: C_20  and  C_21
REMARK    5  A    between atoms: C_21  and  O_22
REMARK                            x       y       z     vdW  Elec       q    Type
REMARK                         _______ _______ _______ _____ _____    ______ ____
ROOT
ATOM      1  C   UNL     1      -1.703   5.596   0.052  0.00  0.00    +0.218 A 
ATOM      2  N   UNL     1      -0.910   4.516   0.038  0.00  0.00    -0.203 NA
ATOM      3  C   UNL     1      -1.653   3.428   0.037  0.00  0.00    +0.170 A 
ATOM      4  C   UNL     1      -1.336   1.987   0.020  0.00  0.00    +0.055 A 
ATOM      5  C   UNL     1      -0.016   1.340   0.009  0.00  0.00    -0.024 A 
ATOM      6  C   UNL     1       0.002  -0.004   0.002  0.00  0.00    -0.004 A 
ATOM      7  S   UNL     1      -1.709  -0.486   0.012  0.00  0.00    -0.073 S 
ATOM      8  C   UNL     1      -2.443   1.129   0.029  0.00  0.00    +0.116 A 
ATOM      9  N   UNL     1      -3.691   1.585   0.043  0.00  0.00    -0.207 NA
ATOM     10  C   UNL     1      -3.959   2.871   0.053  0.00  0.00    +0.219 A 
ATOM     11  N   UNL     1      -2.965   3.807   0.051  0.00  0.00    -0.181 N 
ATOM     12  N   UNL     1      -2.965   5.210   0.060  0.00  0.00    -0.139 NA
ATOM     13  N   UNL     1      -5.273   3.284   0.067  0.00  0.00    -0.313 N 
ATOM     14  C   UNL     1       1.403  -0.553  -0.011  0.00  0.00    +0.043 C 
ATOM     15  C   UNL     1       2.288   0.634   0.429  0.00  0.00    +0.010 C 
ATOM     16  C   UNL     1       1.431   1.841  -0.002  0.00  0.00    +0.037 C 
ATOM     17  H   UNL     1      -5.483   4.231   0.075  0.00  0.00    +0.149 HD
ENDROOT
BRANCH   1  20
ATOM     18  C   UNL     1      -1.173   9.220   0.069  0.00  0.00    +0.042 A 
ATOM     19  C   UNL     1      -2.031   8.102   0.070  0.00  0.00    +0.053 A 
ATOM     20  C   UNL     1      -1.238   6.999   0.056  0.00  0.00    +0.173 A 
ATOM     21  O   UNL     1       0.046   7.406   0.053  0.00  0.00    -0.460 OA
ATOM     22  C   UNL     1       0.089   8.748   0.055  0.00  0.00    +0.196 A 
ENDBRANCH   1  20
BRANCH  13  23
ATOM     23  C   UNL     1      -6.352   2.294   0.070  0.00  0.00    +0.106 C 
BRANCH  23  24
ATOM     24  C   UNL     1      -7.703   3.012   0.087  0.00  0.00    +0.046 C 
BRANCH  24  25
ATOM     25  C   UNL     1      -8.831   1.978   0.090  0.00  0.00    +0.157 C 
BRANCH  25  26
ATOM     26  O   UNL     1     -10.092   2.648   0.106  0.00  0.00    -0.395 OA
ATOM     27  H   UNL     1     -10.854   2.053   0.109  0.00  0.00    +0.209 HD
ENDBRANCH  25  26
ENDBRANCH  24  25
ENDBRANCH  23  24
ENDBRANCH  13  23
TORSDOF 5
