REMARK  Name = ZINC36610467
REMARK  18 active torsions:
REMARK  status: ('A' for Active; 'I' for Inactive)
REMARK    1  A    between atoms: C_1  and  C_2
REMARK    2  A    between atoms: C_2  and  C_3
REMARK    3  A    between atoms: C_2  and  C_4
REMARK    4  A    between atoms: C_2  and  C_5
REMARK    5  A    between atoms: C_5  and  C_6
REMARK    6  A    between atoms: C_6  and  C_7
REMARK    7  A    between atoms: C_6  and  C_8
REMARK    8  A    between atoms: C_6  and  N_9
REMARK    9  A    between atoms: C_10  and  C_12
REMARK   10  A    between atoms: C_12  and  C_14
REMARK   11  A    between atoms: C_12  and  N_23
REMARK   12  A    between atoms: C_17  and  N_20
REMARK   13  A    between atoms: N_20  and  C_21
REMARK   14  A    between atoms: N_20  and  C_22
REMARK   15  A    between atoms: N_23  and  C_24
REMARK   16  A    between atoms: C_30  and  C_32
REMARK   17  A    between atoms: C_36  and  O_39
REMARK   18  A    between atoms: C_37  and  O_38
REMARK                            x       y       z     vdW  Elec       q    Type
REMARK                         _______ _______ _______ _____ _____    ______ ____
ROOT
ATOM      1  C   UNL     1       5.150   0.039  -4.016  0.00  0.00    +0.197 C 
ENDROOT
BRANCH   1   2
ATOM      2  C   UNL     1       5.226  -1.424  -4.369  0.00  0.00    -0.018 A 
ATOM      3  C   UNL     1       6.196  -2.223  -3.791  0.00  0.00    +0.008 A 
ATOM      4  C   UNL     1       6.269  -3.565  -4.112  0.00  0.00    +0.023 A 
ATOM      5  C   UNL     1       5.367  -4.111  -5.016  0.00  0.00    +0.029 A 
ATOM      6  C   UNL     1       4.394  -3.305  -5.595  0.00  0.00    +0.023 A 
ATOM      7  C   UNL     1       4.324  -1.966  -5.265  0.00  0.00    +0.008 A 
BRANCH   5   8
ATOM      8  N   UNL     1       5.438  -5.467  -5.344  0.00  0.00    -0.336 N 
ATOM      9  C   UNL     1       6.392  -6.338  -4.653  0.00  0.00    +0.129 C 
ATOM     10  C   UNL     1       4.559  -6.018  -6.378  0.00  0.00    +0.129 C 
ENDBRANCH   5   8
ENDBRANCH   1   2
BRANCH   1  12
ATOM     11  N   UNL     1       2.745   0.097  -3.440  0.00  0.00    -0.308 N 
ATOM     12  C   UNL     1       4.022   0.262  -3.042  0.00  0.00    +0.239 C 
ATOM     13  O   UNL     1       4.263   0.591  -1.900  0.00  0.00    -0.273 OA
ATOM     14  H   UNL     1       2.552  -0.166  -4.354  0.00  0.00    +0.149 HD
BRANCH  11  15
ATOM     15  C   UNL     1       1.648   0.314  -2.494  0.00  0.00    +0.030 C 
ATOM     16  C   UNL     1       1.761   1.718  -1.896  0.00  0.00    +0.031 C 
ATOM     17  C   UNL     1       1.728  -0.725  -1.374  0.00  0.00    +0.031 C 
BRANCH  15  18
ATOM     18  C   UNL     1       0.310   0.176  -3.223  0.00  0.00    +0.031 C 
BRANCH  18  20
ATOM     19  C   UNL     1       1.105   0.132  -5.591  0.00  0.00    +0.010 C 
ATOM     20  C   UNL     1       0.363   0.957  -4.538  0.00  0.00    -0.036 C 
ATOM     21  C   UNL     1       1.098   2.280  -4.316  0.00  0.00    +0.010 C 
ATOM     22  C   UNL     1      -1.061   1.239  -5.021  0.00  0.00    +0.010 C 
ENDBRANCH  18  20
ENDBRANCH  15  18
ENDBRANCH  11  15
ENDBRANCH   1  12
BRANCH   1  23
ATOM     23  N   UNL     1       6.413   0.461  -3.405  0.00  0.00    -0.251 N 
ATOM     24  C   UNL     1       6.860  -0.151  -2.290  0.00  0.00    +0.255 C 
ATOM     25  O   UNL     1       7.954   0.130  -1.840  0.00  0.00    -0.269 OA
BRANCH  23  26
ATOM     26  C   UNL     1       7.155   1.498  -3.978  0.00  0.00    +0.038 A 
ATOM     27  C   UNL     1       6.636   2.216  -5.049  0.00  0.00    +0.023 A 
ATOM     28  C   UNL     1       7.372   3.240  -5.613  0.00  0.00    +0.002 A 
ATOM     29  C   UNL     1       8.623   3.551  -5.113  0.00  0.00    +0.000 A 
ATOM     30  C   UNL     1       9.142   2.838  -4.048  0.00  0.00    +0.002 A 
ATOM     31  C   UNL     1       8.410   1.817  -3.475  0.00  0.00    +0.023 A 
ENDBRANCH  23  26
BRANCH  24  32
ATOM     32  C   UNL     1       6.022  -1.162  -1.617  0.00  0.00    +0.082 A 
ATOM     33  C   UNL     1       4.831  -1.594  -2.209  0.00  0.00    +0.017 A 
ATOM     34  C   UNL     1       4.051  -2.538  -1.577  0.00  0.00    +0.005 A 
ATOM     35  C   UNL     1       4.440  -3.063  -0.355  0.00  0.00    +0.049 A 
ATOM     36  C   UNL     1       5.617  -2.645   0.243  0.00  0.00    +0.159 A 
ATOM     37  C   UNL     1       6.418  -1.696  -0.386  0.00  0.00    +0.171 A 
BRANCH  37  38
ATOM     38  O   UNL     1       7.575  -1.288   0.195  0.00  0.00    -0.503 OA
ATOM     39  H   UNL     1       7.473  -0.527   0.783  0.00  0.00    +0.292 HD
ENDBRANCH  37  38
BRANCH  36  40
ATOM     40  O   UNL     1       5.992  -3.165   1.442  0.00  0.00    -0.503 OA
ATOM     41  H   UNL     1       6.540  -3.958   1.373  0.00  0.00    +0.292 HD
ENDBRANCH  36  40
ENDBRANCH  24  32
ENDBRANCH   1  23
TORSDOF 11
