REMARK  Name = ZINC02381883
REMARK  9 active torsions:
REMARK  status: ('A' for Active; 'I' for Inactive)
REMARK    1  A    between atoms: C_1  and  C_2
REMARK    2  A    between atoms: C_2  and  O_3
REMARK    3  A    between atoms: O_3  and  C_4
REMARK    4  A    between atoms: C_4  and  C_5
REMARK    5  A    between atoms: C_5  and  C_6
REMARK    6  A    between atoms: C_6  and  N_7
REMARK    7  A    between atoms: C_8  and  C_10
REMARK    8  A    between atoms: N_21  and  C_24
REMARK    9  A    between atoms: C_22  and  N_23
REMARK                            x       y       z     vdW  Elec       q    Type
REMARK                         _______ _______ _______ _____ _____    ______ ____
ROOT
ATOM      1  C   UNL     1       0.367  -2.126   0.694  0.00  0.00    +0.104 A 
ATOM      2  C   UNL     1      -0.266  -2.186  -0.634  0.00  0.00    +0.123 A 
ATOM      3  C   UNL     1      -0.482  -0.791  -1.025  0.00  0.00    +0.166 A 
ATOM      4  N   UNL     1      -1.035  -0.523  -2.189  0.00  0.00    -0.225 NA
ATOM      5  C   UNL     1      -1.405  -1.525  -2.998  0.00  0.00    +0.092 A 
ATOM      6  C   UNL     1      -2.003  -1.248  -4.241  0.00  0.00    +0.030 A 
ATOM      7  C   UNL     1      -2.375  -2.272  -5.056  0.00  0.00    +0.002 A 
ATOM      8  C   UNL     1      -2.174  -3.598  -4.679  0.00  0.00    +0.002 A 
ATOM      9  C   UNL     1      -1.599  -3.905  -3.485  0.00  0.00    +0.030 A 
ATOM     10  C   UNL     1      -1.200  -2.874  -2.614  0.00  0.00    +0.090 A 
ATOM     11  N   UNL     1      -0.634  -3.164  -1.437  0.00  0.00    -0.241 NA
ATOM     12  N   UNL     1       0.002  -0.004   0.002  0.00  0.00    -0.280 N 
ATOM     13  C   UNL     1       0.496  -0.778   1.010  0.00  0.00    +0.117 A 
ENDROOT
BRANCH  12  14
ATOM     14  C   UNL     1      -0.017   1.398   0.010  0.00  0.00    +0.051 A 
ATOM     15  C   UNL     1       1.175   2.109   0.002  0.00  0.00    +0.029 A 
ATOM     16  C   UNL     1       1.155   3.490   0.010  0.00  0.00    +0.042 A 
ATOM     17  C   UNL     1      -0.053   4.166   0.025  0.00  0.00    +0.142 A 
ATOM     18  C   UNL     1      -1.244   3.458   0.033  0.00  0.00    +0.078 A 
ATOM     19  C   UNL     1      -1.228   2.076   0.019  0.00  0.00    +0.049 A 
ATOM     20 CL   UNL     1      -2.758   4.308   0.052  0.00  0.00    -0.081 Cl
ATOM     21  F   UNL     1      -0.070   5.517   0.033  0.00  0.00    -0.204 F 
ENDBRANCH  12  14
BRANCH   1  23
ATOM     22  N   UNL     1       2.023  -3.765   1.395  0.00  0.00    -0.311 N 
ATOM     23  C   UNL     1       0.779  -3.260   1.518  0.00  0.00    +0.250 C 
ATOM     24  O   UNL     1      -0.000  -3.748   2.316  0.00  0.00    -0.270 OA
ATOM     25  H   UNL     1       2.644  -3.376   0.759  0.00  0.00    +0.149 HD
BRANCH  22  26
ATOM     26  C   UNL     1       2.436  -4.902   2.221  0.00  0.00    +0.107 C 
BRANCH  26  27
ATOM     27  C   UNL     1       3.882  -5.276   1.887  0.00  0.00    +0.047 C 
BRANCH  27  28
ATOM     28  C   UNL     1       4.314  -6.464   2.750  0.00  0.00    +0.161 C 
BRANCH  28  29
ATOM     29  O   UNL     1       5.664  -6.813   2.438  0.00  0.00    -0.380 OA
BRANCH  29  31
ATOM     30  C   UNL     1       7.613  -8.201   2.778  0.00  0.00    +0.034 C 
ATOM     31  C   UNL     1       6.168  -7.917   3.192  0.00  0.00    +0.156 C 
ENDBRANCH  29  31
ENDBRANCH  28  29
ENDBRANCH  27  28
ENDBRANCH  26  27
ENDBRANCH  22  26
ENDBRANCH   1  23
BRANCH  13  32
ATOM     32  N   UNL     1       1.042  -0.295   2.171  0.00  0.00    -0.343 N 
ATOM     33  H   UNL     1       1.097   0.662   2.319  0.00  0.00    +0.144 HD
ATOM     34  H   UNL     1       1.373  -0.911   2.843  0.00  0.00    +0.144 HD
ENDBRANCH  13  32
TORSDOF 8
