REMARK  Name = ZINC39354289
REMARK  11 active torsions:
REMARK  status: ('A' for Active; 'I' for Inactive)
REMARK    1  A    between atoms: C_1  and  C_2
REMARK    2  A    between atoms: C_6  and  C_7
REMARK    3  A    between atoms: C_7  and  C_9
REMARK    4  A    between atoms: C_7  and  C_27
REMARK    5  A    between atoms: C_12  and  O_17
REMARK    6  A    between atoms: C_13  and  O_15
REMARK    7  A    between atoms: O_15  and  C_16
REMARK    8  A    between atoms: O_17  and  C_18
REMARK    9  A    between atoms: C_18  and  C_20
REMARK   10  A    between atoms: C_28  and  C_34
REMARK   11  A    between atoms: C_31  and  O_33
REMARK                            x       y       z     vdW  Elec       q    Type
REMARK                         _______ _______ _______ _____ _____    ______ ____
ROOT
ATOM      1  C   UNL     1       1.210  -0.982   3.280  0.00  0.00    -0.032 A 
ATOM      2  C   UNL     1       1.439  -2.343   3.202  0.00  0.00    +0.008 A 
ATOM      3  C   UNL     1       2.519  -2.904   3.856  0.00  0.00    +0.050 A 
ATOM      4  C   UNL     1       3.376  -2.101   4.593  0.00  0.00    +0.173 A 
ATOM      5  C   UNL     1       3.146  -0.731   4.671  0.00  0.00    +0.163 A 
ATOM      6  C   UNL     1       2.063  -0.175   4.008  0.00  0.00    +0.054 A 
ENDROOT
BRANCH   5   7
ATOM      7  O   UNL     1       3.983   0.060   5.393  0.00  0.00    -0.491 OA
ATOM      8  C   UNL     1       3.685   1.458   5.429  0.00  0.00    +0.277 C 
ENDBRANCH   5   7
BRANCH   1   9
ATOM      9  C   UNL     1       0.030  -0.376   2.564  0.00  0.00    +0.088 C 
BRANCH   9  15
ATOM     10  C   UNL     1       2.571  -0.881   0.740  0.00  0.00    +0.068 C 
ATOM     11  C   UNL     1       1.135  -1.072   0.327  0.00  0.00    +0.068 A 
ATOM     12  N   UNL     1       0.722  -1.481  -0.845  0.00  0.00    -0.176 NA
ATOM     13  N   UNL     1      -0.678  -1.526  -0.829  0.00  0.00    -0.243 N 
ATOM     14  C   UNL     1      -1.092  -1.130   0.395  0.00  0.00    +0.271 A 
ATOM     15  C   UNL     1       0.014  -0.848   1.133  0.00  0.00    +0.052 A 
ATOM     16  O   UNL     1      -2.380  -1.035   0.814  0.00  0.00    -0.266 OA
ATOM     17  H   UNL     1      -1.249  -1.794  -1.565  0.00  0.00    +0.192 HD
ENDBRANCH   9  15
BRANCH   9  18
ATOM     18  C   UNL     1      -1.244  -0.799   3.247  0.00  0.00    +0.017 C 
ATOM     19  C   UNL     1      -2.175  -0.023   3.807  0.00  0.00    +0.065 C 
ATOM     20  N   UNL     1      -3.177  -0.770   4.321  0.00  0.00    -0.156 NA
ATOM     21  N   UNL     1      -3.036  -1.986   4.175  0.00  0.00    -0.151 NA
ATOM     22  C   UNL     1      -1.772  -2.208   3.453  0.00  0.00    +0.284 C 
ATOM     23  C   UNL     1      -2.115   1.482   3.858  0.00  0.00    +0.067 C 
BRANCH  22  24
ATOM     24  O   UNL     1      -0.866  -2.975   4.249  0.00  0.00    -0.366 OA
ATOM     25  H   UNL     1      -1.157  -3.884   4.411  0.00  0.00    +0.212 HD
ENDBRANCH  22  24
ENDBRANCH   9  18
ENDBRANCH   1   9
BRANCH   4  26
ATOM     26  O   UNL     1       4.439  -2.652   5.238  0.00  0.00    -0.419 OA
BRANCH  26  27
ATOM     27  C   UNL     1       4.285  -2.996   6.531  0.00  0.00    +0.345 C 
ATOM     28  O   UNL     1       3.253  -2.729   7.112  0.00  0.00    -0.245 OA
BRANCH  27  29
ATOM     29  C   UNL     1       5.372  -3.699   7.242  0.00  0.00    +0.059 A 
ATOM     30  C   UNL     1       6.563  -4.002   6.578  0.00  0.00    +0.016 A 
ATOM     31  C   UNL     1       7.575  -4.658   7.248  0.00  0.00    +0.016 A 
ATOM     32  C   UNL     1       7.411  -5.016   8.576  0.00  0.00    +0.018 A 
ATOM     33  C   UNL     1       6.233  -4.718   9.240  0.00  0.00    +0.016 A 
ATOM     34  C   UNL     1       5.216  -4.058   8.583  0.00  0.00    +0.016 A 
ATOM     35 BR   UNL     1       8.803  -5.916   9.487  0.00  0.00    -0.050 Br
ENDBRANCH  27  29
ENDBRANCH  26  27
ENDBRANCH   4  26
TORSDOF 8
