REMARK  Name = ZINC60042669
REMARK  6 active torsions:
REMARK  status: ('A' for Active; 'I' for Inactive)
REMARK    1  A    between atoms: N_9  and  C_11
REMARK    2  A    between atoms: C_11  and  C_12
REMARK    3  A    between atoms: C_12  and  C_14
REMARK    4  A    between atoms: C_12  and  O_29
REMARK    5  A    between atoms: C_14  and  N_15
REMARK    6  A    between atoms: C_22  and  N_26
REMARK                            x       y       z     vdW  Elec       q    Type
REMARK                         _______ _______ _______ _____ _____    ______ ____
ROOT
ATOM      1  C   UNL     1       5.908  -2.179   1.160  0.00  0.00    +0.116 C 
ENDROOT
BRANCH   1   2
ATOM      2  O   UNL     1       5.521  -2.425   2.513  0.00  0.00    -0.392 OA
ATOM      3  H   UNL     1       5.441  -3.363   2.735  0.00  0.00    +0.210 HD
ENDBRANCH   1   2
BRANCH   1   4
ATOM      4  C   UNL     1       4.866  -2.780   0.214  0.00  0.00    -0.045 C 
BRANCH   4  13
ATOM      5  C   UNL     1      -0.017   1.376   0.010  0.00  0.00    +0.000 A 
ATOM      6  C   UNL     1       1.173   2.080   0.002  0.00  0.00    +0.000 A 
ATOM      7  C   UNL     1       2.375   1.401  -0.015  0.00  0.00    +0.002 A 
ATOM      8  C   UNL     1       2.395   0.014  -0.023  0.00  0.00    -0.061 A 
ATOM      9  C   UNL     1       1.208  -0.687  -0.013  0.00  0.00    -0.048 A 
ATOM     10  C   UNL     1       0.002  -0.004   0.002  0.00  0.00    +0.004 A 
ATOM     11  C   UNL     1       1.186  -2.194  -0.014  0.00  0.00    +0.017 C 
ATOM     12  C   UNL     1       2.554  -2.732  -0.434  0.00  0.00    -0.074 C 
ATOM     13  N   UNL     1       3.587  -2.079   0.386  0.00  0.00    +0.384 N 
ATOM     14  C   UNL     1       3.728  -0.686  -0.046  0.00  0.00    -0.043 C 
ATOM     15  H   UNL     1       3.313  -2.106   1.357  0.00  0.00    -0.081 HD
ENDBRANCH   4  13
ENDBRANCH   1   4
BRANCH   1  16
ATOM     16  C   UNL     1       7.270  -2.822   0.894  0.00  0.00    +0.146 C 
BRANCH  16  17
ATOM     17  N   UNL     1       8.267  -2.247   1.800  0.00  0.00    -0.232 N 
ATOM     18  C   UNL     1       9.007  -1.158   1.524  0.00  0.00    +0.254 C 
ATOM     19  O   UNL     1       8.955  -0.505   0.501  0.00  0.00    -0.270 OA
ATOM     20  C   UNL     1       9.894  -0.887   2.676  0.00  0.00    +0.052 A 
ATOM     21  C   UNL     1      10.850   0.076   2.955  0.00  0.00    +0.014 A 
ATOM     22  C   UNL     1      11.523   0.045   4.167  0.00  0.00    +0.003 A 
ATOM     23  C   UNL     1      11.247  -0.940   5.096  0.00  0.00    +0.033 A 
ATOM     24  C   UNL     1      10.293  -1.910   4.830  0.00  0.00    +0.139 A 
ATOM     25  C   UNL     1       9.612  -1.891   3.624  0.00  0.00    +0.080 A 
ATOM     26  C   UNL     1       8.560  -2.735   3.019  0.00  0.00    +0.256 C 
ATOM     27  O   UNL     1       8.047  -3.707   3.535  0.00  0.00    -0.269 OA
BRANCH  24  28
ATOM     28  N   UNL     1      10.003  -2.962   5.831  0.00  0.00    +0.057 N 
ATOM     29  O   UNL     1      10.598  -2.975   6.883  0.00  0.00    -0.126 OA
ATOM     30  O   UNL     1       9.170  -3.806   5.596  0.00  0.00    -0.126 OA
ENDBRANCH  24  28
ENDBRANCH  16  17
ENDBRANCH   1  16
TORSDOF 6
