REMARK  Name = ZINC28727765
REMARK  8 active torsions:
REMARK  status: ('A' for Active; 'I' for Inactive)
REMARK    1  A    between atoms: C_1  and  C_2
REMARK    2  A    between atoms: C_2  and  C_4
REMARK    3  A    between atoms: C_2  and  N_14
REMARK    4  A    between atoms: C_7  and  S_10
REMARK    5  A    between atoms: S_10  and  N_13
REMARK    6  A    between atoms: N_14  and  C_15
REMARK    7  A    between atoms: N_14  and  C_16
REMARK    8  A    between atoms: C_16  and  C_17
REMARK                            x       y       z     vdW  Elec       q    Type
REMARK                         _______ _______ _______ _____ _____    ______ ____
ROOT
ATOM      1  N   UNL     1      -2.248   3.803   5.824  0.00  0.00    +0.385 N 
ATOM      2  C   UNL     1      -1.069   2.998   6.172  0.00  0.00    -0.095 C 
ATOM      3  H   UNL     1      -1.898   4.709   5.308  0.00  0.00    -0.081 HD
ENDROOT
BRANCH   1   5
ATOM      4  C   UNL     1      -4.294   3.975   4.489  0.00  0.00    -0.008 C 
ATOM      5  C   UNL     1      -3.131   3.072   4.906  0.00  0.00    -0.041 C 
BRANCH   5   6
ATOM      6  C   UNL     1      -2.353   2.659   3.683  0.00  0.00    -0.061 A 
ATOM      7  C   UNL     1      -2.559   1.412   3.121  0.00  0.00    +0.004 A 
ATOM      8  C   UNL     1      -1.846   1.033   2.000  0.00  0.00    +0.029 A 
ATOM      9  C   UNL     1      -0.927   1.900   1.439  0.00  0.00    +0.105 A 
ATOM     10  C   UNL     1      -0.717   3.145   2.004  0.00  0.00    +0.029 A 
ATOM     11  C   UNL     1      -1.434   3.526   3.123  0.00  0.00    +0.004 A 
BRANCH   9  12
ATOM     12  S   UNL     1      -0.017   1.417   0.010  0.00  0.00    +0.056 S 
ATOM     13  O   UNL     1       0.002  -0.004   0.002  0.00  0.00    -0.153 OA
ATOM     14  O   UNL     1       1.172   2.195   0.003  0.00  0.00    -0.153 OA
BRANCH  12  15
ATOM     15  N   UNL     1      -0.897   1.885  -1.312  0.00  0.00    -0.204 NA
ATOM     16  H   UNL     1      -0.361   1.601  -2.229  0.00  0.00    +0.144 HD
ATOM     17  H   UNL     1      -1.036   2.977  -1.292  0.00  0.00    +0.144 HD
ENDBRANCH  12  15
ENDBRANCH   9  12
ENDBRANCH   5   6
ENDBRANCH   1   5
BRANCH   1  18
ATOM     18  C   UNL     1      -2.974   4.223   7.030  0.00  0.00    -0.042 C 
BRANCH  18  19
ATOM     19  C   UNL     1      -2.116   5.170   7.828  0.00  0.00    -0.059 A 
ATOM     20  C   UNL     1      -1.263   4.677   8.800  0.00  0.00    +0.051 A 
ATOM     21  C   UNL     1      -0.473   5.550   9.528  0.00  0.00    +0.164 A 
ATOM     22  C   UNL     1      -0.545   6.915   9.291  0.00  0.00    +0.180 A 
ATOM     23  C   UNL     1      -1.404   7.407   8.322  0.00  0.00    +0.086 A 
ATOM     24  C   UNL     1      -2.188   6.530   7.591  0.00  0.00    +0.025 A 
ATOM     25 CL   UNL     1      -1.495   9.115   8.023  0.00  0.00    -0.080 Cl
ATOM     26  O   UNL     1       0.233   7.768  10.019  0.00  0.00    -0.487 OA
ATOM     27  C   UNL     1       1.639   7.695   9.774  0.00  0.00    +0.232 C 
ATOM     28  C   UNL     1       2.273   6.588  10.601  0.00  0.00    +0.082 C 
ATOM     29  C   UNL     1       1.771   5.208  10.204  0.00  0.00    +0.232 C 
ATOM     30  O   UNL     1       0.376   5.076  10.485  0.00  0.00    -0.488 OA
ENDBRANCH  18  19
ENDBRANCH   1  18
TORSDOF 6
