REMARK  Name = ZINC63448360
REMARK  11 active torsions:
REMARK  status: ('A' for Active; 'I' for Inactive)
REMARK    1  A    between atoms: C_1  and  C_2
REMARK    2  A    between atoms: C_7  and  N_8
REMARK    3  A    between atoms: C_12  and  N_13
REMARK    4  A    between atoms: N_13  and  C_14
REMARK    5  A    between atoms: C_14  and  C_16
REMARK    6  A    between atoms: C_14  and  C_26
REMARK    7  A    between atoms: C_16  and  C_17
REMARK    8  A    between atoms: C_26  and  O_28
REMARK    9  A    between atoms: O_28  and  C_29
REMARK   10  A    between atoms: C_29  and  C_30
REMARK   11  A    between atoms: C_29  and  C_31
REMARK                            x       y       z     vdW  Elec       q    Type
REMARK                         _______ _______ _______ _____ _____    ______ ____
ROOT
ATOM      1  N   UNL     1      -3.481   1.128   4.373  0.00  0.00    -0.336 N 
ATOM      2  H   UNL     1      -3.529   0.648   3.531  0.00  0.00    +0.146 HD
ENDROOT
BRANCH   1   7
ATOM      3  N   UNL     1      -0.034  -0.640   2.815  0.00  0.00    -0.189 N 
ATOM      4  C   UNL     1      -1.195  -0.151   3.297  0.00  0.00    +0.265 C 
ATOM      5  O   UNL     1      -2.263  -0.506   2.833  0.00  0.00    -0.269 OA
ATOM      6  C   UNL     1      -1.136   0.823   4.402  0.00  0.00    +0.113 C 
ATOM      7  C   UNL     1      -2.285   1.366   4.947  0.00  0.00    +0.086 C 
ATOM      8  C   UNL     1       0.201   1.192   4.899  0.00  0.00    +0.258 C 
ATOM      9  O   UNL     1       0.330   1.990   5.809  0.00  0.00    -0.270 OA
ATOM     10  N   UNL     1       1.277   0.622   4.320  0.00  0.00    -0.235 N 
ATOM     11  C   UNL     1       1.148  -0.262   3.321  0.00  0.00    +0.320 C 
ATOM     12  O   UNL     1       2.158  -0.744   2.845  0.00  0.00    -0.251 OA
ATOM     13  H   UNL     1       2.164   0.855   4.636  0.00  0.00    +0.159 HD
BRANCH   3  20
ATOM     14  C   UNL     1       0.047   0.345   0.146  0.00  0.00    +0.045 C 
ATOM     15  C   UNL     1      -0.027  -1.129   0.449  0.00  0.00    -0.029 A 
ATOM     16  C   UNL     1      -0.051  -2.046  -0.584  0.00  0.00    +0.005 A 
ATOM     17  C   UNL     1      -0.120  -3.399  -0.308  0.00  0.00    +0.000 A 
ATOM     18  C   UNL     1      -0.164  -3.839   1.003  0.00  0.00    +0.002 A 
ATOM     19  C   UNL     1      -0.139  -2.927   2.040  0.00  0.00    +0.024 A 
ATOM     20  C   UNL     1      -0.065  -1.567   1.765  0.00  0.00    +0.049 A 
ENDBRANCH   3  20
ENDBRANCH   1   7
BRANCH   1  21
ATOM     21  C   UNL     1      -4.710   1.592   5.021  0.00  0.00    +0.184 C 
BRANCH  21  22
ATOM     22  C   UNL     1      -5.158   0.574   6.038  0.00  0.00    +0.328 C 
ATOM     23  O   UNL     1      -4.516  -0.436   6.205  0.00  0.00    -0.249 OA
BRANCH  22  24
ATOM     24  O   UNL     1      -6.269   0.790   6.759  0.00  0.00    -0.461 OA
BRANCH  24  25
ATOM     25  C   UNL     1      -6.634  -0.217   7.705  0.00  0.00    +0.170 C 
ATOM     26  C   UNL     1      -7.370   0.429   8.880  0.00  0.00    +0.052 C 
ATOM     27  C   UNL     1      -7.549  -1.242   7.032  0.00  0.00    +0.052 C 
ENDBRANCH  24  25
ENDBRANCH  22  24
ENDBRANCH  21  22
BRANCH  21  28
ATOM     28  C   UNL     1      -5.805   1.776   3.967  0.00  0.00    +0.066 C 
BRANCH  28  29
ATOM     29  C   UNL     1      -5.411   2.880   3.021  0.00  0.00    -0.039 C 
ATOM     30  C   UNL     1      -4.793   2.745   1.825  0.00  0.00    -0.001 A 
ATOM     31  C   UNL     1      -4.320   1.574   1.078  0.00  0.00    +0.010 A 
ATOM     32  C   UNL     1      -3.724   1.759  -0.122  0.00  0.00    +0.001 A 
ATOM     33  C   UNL     1      -3.547   3.038  -0.668  0.00  0.00    +0.002 A 
ATOM     34  C   UNL     1      -3.955   4.161  -0.041  0.00  0.00    +0.026 A 
ATOM     35  C   UNL     1      -4.595   4.085   1.227  0.00  0.00    +0.043 A 
ATOM     36  N   UNL     1      -5.072   5.012   2.022  0.00  0.00    -0.380 N 
ATOM     37  C   UNL     1      -5.632   4.364   3.213  0.00  0.00    +0.144 C 
ATOM     38  H   UNL     1      -5.059   5.966   1.849  0.00  0.00    +0.160 HD
ENDBRANCH  28  29
ENDBRANCH  21  28
ENDBRANCH   1  21
TORSDOF 8
