REMARK  Name = ZINC36235598
REMARK  5 active torsions:
REMARK  status: ('A' for Active; 'I' for Inactive)
REMARK    1  A    between atoms: C_1  and  C_2
REMARK    2  A    between atoms: C_5  and  N_9
REMARK    3  A    between atoms: C_6  and  C_8
REMARK    4  A    between atoms: C_16  and  C_18
REMARK    5  A    between atoms: C_23  and  C_24
REMARK                            x       y       z     vdW  Elec       q    Type
REMARK                         _______ _______ _______ _____ _____    ______ ____
ROOT
ATOM      1  N   UNL     1       0.573  -4.215  -0.070  0.00  0.00    -0.285 N 
ATOM      2  C   UNL     1       0.224  -4.864  -1.226  0.00  0.00    +0.200 A 
ATOM      3  N   UNL     1      -0.095  -6.187  -1.178  0.00  0.00    -0.295 N 
ATOM      4  H   UNL     1      -0.073  -6.659  -0.331  0.00  0.00    +0.172 HD
ATOM      5  C   UNL     1      -0.442  -6.843  -2.305  0.00  0.00    +0.253 A 
ATOM      6  O   UNL     1      -0.729  -8.028  -2.270  0.00  0.00    -0.268 OA
ATOM      7  C   UNL     1      -0.466  -6.138  -3.517  0.00  0.00    +0.098 A 
ATOM      8  C   UNL     1      -0.132  -4.791  -3.511  0.00  0.00    +0.083 A 
ATOM      9  N   UNL     1       0.199  -4.194  -2.358  0.00  0.00    -0.215 NA
ATOM     10  H   UNL     1       0.505  -4.673   0.783  0.00  0.00    +0.155 HD
ENDROOT
BRANCH   8  11
ATOM     11  C   UNL     1      -0.147  -4.016  -4.772  0.00  0.00    +0.040 A 
ATOM     12  C   UNL     1       0.627  -4.413  -5.868  0.00  0.00    +0.126 A 
ATOM     13  N   UNL     1       0.586  -3.696  -6.976  0.00  0.00    -0.222 NA
ATOM     14  C   UNL     1      -0.175  -2.612  -7.057  0.00  0.00    +0.218 A 
ATOM     15  N   UNL     1      -0.922  -2.204  -6.041  0.00  0.00    -0.219 NA
ATOM     16  C   UNL     1      -0.940  -2.870  -4.901  0.00  0.00    +0.052 A 
ATOM     17  C   UNL     1      -1.797  -2.401  -3.754  0.00  0.00    +0.066 C 
ATOM     18  N   UNL     1      -0.189  -1.889  -8.234  0.00  0.00    -0.300 N 
ATOM     19  C   UNL     1      -0.971  -0.668  -8.480  0.00  0.00    +0.108 C 
ATOM     20  C   UNL     1      -0.691  -0.231  -9.933  0.00  0.00    +0.020 C 
ATOM     21  C   UNL     1      -0.210  -1.544 -10.605  0.00  0.00    +0.020 C 
ATOM     22  C   UNL     1       0.581  -2.210  -9.449  0.00  0.00    +0.108 C 
ENDBRANCH   8  11
BRANCH   1  27
ATOM     23  C   UNL     1       2.413   1.147  -0.270  0.00  0.00    +0.044 C 
ATOM     24  C   UNL     1       1.924  -0.278  -0.217  0.00  0.00    -0.050 A 
ATOM     25  C   UNL     1       2.166  -1.131  -1.279  0.00  0.00    +0.005 A 
ATOM     26  C   UNL     1       1.719  -2.436  -1.233  0.00  0.00    +0.024 A 
ATOM     27  C   UNL     1       1.027  -2.893  -0.119  0.00  0.00    +0.036 A 
ATOM     28  C   UNL     1       0.786  -2.035   0.946  0.00  0.00    -0.029 A 
ATOM     29  C   UNL     1       1.240  -0.731   0.896  0.00  0.00    +0.008 A 
ATOM     30  C   UNL     1       0.035  -2.526   2.156  0.00  0.00    +0.045 C 
ENDBRANCH   1  27
TORSDOF 2
