REMARK  Name = ZINC29866077
REMARK  11 active torsions:
REMARK  status: ('A' for Active; 'I' for Inactive)
REMARK    1  A    between atoms: C_1  and  C_2
REMARK    2  A    between atoms: C_2  and  O_3
REMARK    3  A    between atoms: O_3  and  C_4
REMARK    4  A    between atoms: C_4  and  C_6
REMARK    5  A    between atoms: C_7  and  C_21
REMARK    6  A    between atoms: C_12  and  C_14
REMARK    7  A    between atoms: C_21  and  O_22
REMARK    8  A    between atoms: O_22  and  C_23
REMARK    9  A    between atoms: C_23  and  C_25
REMARK   10  A    between atoms: C_30  and  S_31
REMARK   11  A    between atoms: S_31  and  C_34
REMARK                            x       y       z     vdW  Elec       q    Type
REMARK                         _______ _______ _______ _____ _____    ______ ____
ROOT
ATOM      1  C   UNL     1       4.335   2.150   1.077  0.00  0.00    +0.081 C 
ATOM      2  C   UNL     1       3.552   2.062  -0.020  0.00  0.00    +0.061 C 
ATOM      3  N   UNL     1       3.819   2.800  -1.137  0.00  0.00    -0.269 N 
ATOM      4  C   UNL     1       4.845   3.655  -1.235  0.00  0.00    +0.304 C 
ATOM      5  O   UNL     1       4.999   4.272  -2.271  0.00  0.00    -0.252 OA
ATOM      6  N   UNL     1       5.714   3.851  -0.223  0.00  0.00    -0.288 N 
ATOM      7  C   UNL     1       5.516   3.098   1.027  0.00  0.00    +0.144 C 
ATOM      8  H   UNL     1       3.175   2.708  -2.024  0.00  0.00    +0.156 HD
ATOM      9  H   UNL     1       6.555   4.554  -0.315  0.00  0.00    +0.151 HD
ENDROOT
BRANCH   7  10
ATOM     10  C   UNL     1       5.361   4.093   2.148  0.00  0.00    -0.022 A 
ATOM     11  C   UNL     1       4.513   5.175   2.000  0.00  0.00    +0.007 A 
ATOM     12  C   UNL     1       4.366   6.084   3.030  0.00  0.00    +0.020 A 
ATOM     13  C   UNL     1       5.077   5.919   4.205  0.00  0.00    +0.041 A 
ATOM     14  C   UNL     1       5.930   4.839   4.351  0.00  0.00    +0.020 A 
ATOM     15  C   UNL     1       6.072   3.927   3.322  0.00  0.00    +0.007 A 
ATOM     16 CL   UNL     1       4.899   7.065   5.497  0.00  0.00    -0.084 Cl
ENDBRANCH   7  10
BRANCH   1  17
ATOM     17  C   UNL     1       4.062   1.383   2.234  0.00  0.00    +0.339 C 
ATOM     18  O   UNL     1       3.167   0.559   2.220  0.00  0.00    -0.245 OA
BRANCH  17  19
ATOM     19  O   UNL     1       4.795   1.564   3.352  0.00  0.00    -0.462 OA
BRANCH  19  21
ATOM     20  C   UNL     1       5.396   1.100   5.646  0.00  0.00    +0.048 C 
ATOM     21  C   UNL     1       4.465   0.755   4.483  0.00  0.00    +0.229 C 
ENDBRANCH  19  21
ENDBRANCH  17  19
ENDBRANCH   1  17
BRANCH   2  22
ATOM     22  C   UNL     1       2.367   1.131  -0.012  0.00  0.00    +0.283 C 
BRANCH  22  23
ATOM     23  O   UNL     1       1.648   1.253  -1.267  0.00  0.00    -0.455 OA
BRANCH  23  24
ATOM     24  C   UNL     1       0.554   0.481  -1.423  0.00  0.00    +0.341 C 
ATOM     25  O   UNL     1       0.211  -0.272  -0.534  0.00  0.00    -0.245 OA
BRANCH  24  26
ATOM     26  C   UNL     1      -0.224   0.548  -2.677  0.00  0.00    +0.084 A 
ATOM     27  C   UNL     1       0.164   1.417  -3.698  0.00  0.00    +0.017 A 
ATOM     28  C   UNL     1      -0.564   1.470  -4.869  0.00  0.00    +0.001 A 
ATOM     29  C   UNL     1      -1.683   0.672  -5.027  0.00  0.00    +0.002 A 
ATOM     30  C   UNL     1      -2.077  -0.188  -4.017  0.00  0.00    +0.028 A 
ATOM     31  C   UNL     1      -1.355  -0.254  -2.843  0.00  0.00    +0.102 A 
BRANCH  31  32
ATOM     32  S   UNL     1      -1.858  -1.350  -1.558  0.00  0.00    -0.005 S 
ATOM     33  O   UNL     1      -1.904  -0.541  -0.390  0.00  0.00    -0.170 OA
ATOM     34  O   UNL     1      -3.034  -1.974  -2.054  0.00  0.00    -0.170 OA
ATOM     35  C   UNL     1      -0.514  -2.561  -1.426  0.00  0.00    +0.200 C 
ENDBRANCH  31  32
ENDBRANCH  24  26
ENDBRANCH  23  24
ENDBRANCH  22  23
ENDBRANCH   2  22
TORSDOF 9
