REMARK  Name = ZINC15732081
REMARK  6 active torsions:
REMARK  status: ('A' for Active; 'I' for Inactive)
REMARK    1  A    between atoms: C_6  and  S_7
REMARK    2  A    between atoms: S_7  and  N_10
REMARK    3  A    between atoms: N_10  and  C_11
REMARK    4  A    between atoms: C_13  and  N_24
REMARK    5  A    between atoms: C_15  and  S_17
REMARK    6  A    between atoms: S_17  and  C_18
REMARK                            x       y       z     vdW  Elec       q    Type
REMARK                         _______ _______ _______ _____ _____    ______ ____
ROOT
ATOM      1  N   UNL     1      -2.718   6.775  -2.697  0.00  0.00    -0.216 N 
ATOM      2  H   UNL     1      -3.573   6.460  -3.030  0.00  0.00    +0.174 HD
ENDROOT
BRANCH   1   3
ATOM      3  C   UNL     1      -1.981   5.989  -1.809  0.00  0.00    +0.051 A 
ATOM      4  C   UNL     1      -1.401   6.566  -0.685  0.00  0.00    +0.057 A 
ATOM      5  C   UNL     1      -0.672   5.788   0.194  0.00  0.00    +0.129 A 
ATOM      6  C   UNL     1      -0.517   4.436  -0.040  0.00  0.00    +0.047 A 
ATOM      7  C   UNL     1      -1.094   3.852  -1.162  0.00  0.00    +0.012 A 
ATOM      8  C   UNL     1      -1.823   4.632  -2.050  0.00  0.00    +0.039 A 
BRANCH   5   9
ATOM      9  N   UNL     1      -0.055   6.406   1.389  0.00  0.00    +0.057 N 
ATOM     10  O   UNL     1       0.588   5.723   2.165  0.00  0.00    -0.126 OA
ATOM     11  O   UNL     1      -0.191   7.599   1.597  0.00  0.00    -0.126 OA
ENDBRANCH   5   9
BRANCH   7  12
ATOM     12  S   UNL     1      -0.896   2.127  -1.459  0.00  0.00    -0.122 S 
BRANCH  12  13
ATOM     13  C   UNL     1      -0.056   1.518   0.029  0.00  0.00    +0.051 C 
ATOM     14  C   UNL     1       0.406   0.077  -0.199  0.00  0.00    +0.014 C 
ATOM     15  C   UNL     1       1.115  -0.436   1.056  0.00  0.00    +0.001 C 
ATOM     16  C   UNL     1       0.149  -0.391   2.241  0.00  0.00    +0.000 C 
ATOM     17  C   UNL     1      -0.313   1.050   2.470  0.00  0.00    +0.001 C 
ATOM     18  C   UNL     1      -1.022   1.563   1.214  0.00  0.00    +0.014 C 
ENDBRANCH  12  13
ENDBRANCH   7  12
ENDBRANCH   1   3
BRANCH   1  19
ATOM     19  S   UNL     1      -2.133   8.247  -3.181  0.00  0.00    +0.072 S 
ATOM     20  O   UNL     1      -3.085   8.783  -4.091  0.00  0.00    -0.150 OA
ATOM     21  O   UNL     1      -1.735   8.933  -2.003  0.00  0.00    -0.150 OA
BRANCH  19  27
ATOM     22  C   UNL     1       0.558   7.904  -3.466  0.00  0.00    +0.030 A 
ATOM     23  C   UNL     1       1.716   7.663  -4.184  0.00  0.00    +0.018 A 
ATOM     24  C   UNL     1       1.644   7.472  -5.554  0.00  0.00    +0.029 A 
ATOM     25  C   UNL     1       0.411   7.516  -6.204  0.00  0.00    +0.049 A 
ATOM     26  C   UNL     1      -0.743   7.753  -5.477  0.00  0.00    +0.053 A 
ATOM     27  C   UNL     1      -0.666   7.944  -4.108  0.00  0.00    +0.110 A 
ATOM     28  N   UNL     1       0.356   7.316  -7.591  0.00  0.00    -0.284 N 
ATOM     29  C   UNL     1       0.957   6.257  -8.146  0.00  0.00    +0.218 C 
ATOM     30  O   UNL     1       1.067   6.199  -9.353  0.00  0.00    -0.275 OA
ATOM     31  C   UNL     1       1.496   5.139  -7.304  0.00  0.00    +0.107 C 
ATOM     32  C   UNL     1       2.965   5.406  -6.932  0.00  0.00    +0.083 C 
ATOM     33  S   UNL     1       3.103   7.173  -6.498  0.00  0.00    -0.123 S 
ATOM     34  H   UNL     1      -0.121   7.949  -8.151  0.00  0.00    +0.155 HD
ENDBRANCH  19  27
ENDBRANCH   1  19
TORSDOF 6
