REMARK  Name = ZINC28579107
REMARK  6 active torsions:
REMARK  status: ('A' for Active; 'I' for Inactive)
REMARK    1  A    between atoms: C_1  and  C_2
REMARK    2  A    between atoms: C_3  and  C_26
REMARK    3  A    between atoms: C_10  and  C_12
REMARK    4  A    between atoms: C_15  and  S_17
REMARK    5  A    between atoms: S_17  and  C_18
REMARK    6  A    between atoms: C_18  and  C_19
REMARK                            x       y       z     vdW  Elec       q    Type
REMARK                         _______ _______ _______ _____ _____    ______ ____
ROOT
ATOM      1  C   UNL     1      -0.144   9.839  -1.638  0.00  0.00    +0.249 A 
ATOM      2  N   UNL     1      -0.128   9.559  -0.358  0.00  0.00    -0.106 NA
ATOM      3  N   UNL     1      -0.116   8.282  -0.199  0.00  0.00    -0.101 NA
ATOM      4  C   UNL     1      -0.114   7.696  -1.374  0.00  0.00    +0.278 A 
ATOM      5  O   UNL     1      -0.136   8.665  -2.309  0.00  0.00    -0.411 OA
ENDROOT
BRANCH   1  15
ATOM      6  C   UNL     1      -0.252  15.805  -5.012  0.00  0.00    +0.046 C 
ATOM      7  C   UNL     1      -0.231  15.148  -3.655  0.00  0.00    -0.022 A 
ATOM      8  C   UNL     1      -0.228  15.772  -2.466  0.00  0.00    +0.017 A 
ATOM      9  N   UNL     1      -0.207  14.851  -1.455  0.00  0.00    -0.358 N 
ATOM     10  H   UNL     1      -0.202  15.184  -0.407  0.00  0.00    +0.166 HD
ATOM     11  C   UNL     1      -0.195  13.578  -1.983  0.00  0.00    +0.048 A 
ATOM     12  C   UNL     1      -0.210  13.709  -3.385  0.00  0.00    +0.003 A 
ATOM     13  C   UNL     1      -0.203  12.572  -4.197  0.00  0.00    +0.011 A 
ATOM     14  C   UNL     1      -0.176  11.332  -3.632  0.00  0.00    +0.014 A 
ATOM     15  C   UNL     1      -0.167  11.188  -2.238  0.00  0.00    +0.040 A 
ATOM     16  C   UNL     1      -0.174  12.312  -1.415  0.00  0.00    +0.039 A 
ATOM     17  C   UNL     1      -0.246  17.267  -2.273  0.00  0.00    +0.063 C 
ENDBRANCH   1  15
BRANCH   4  18
ATOM     18  S   UNL     1      -0.094   5.960  -1.673  0.00  0.00    -0.061 S 
BRANCH  18  19
ATOM     19  C   UNL     1      -0.070   5.348   0.030  0.00  0.00    +0.114 C 
BRANCH  19  20
ATOM     20  C   UNL     1      -0.050   3.841   0.023  0.00  0.00    -0.036 A 
ATOM     21  C   UNL     1       1.156   3.165   0.007  0.00  0.00    +0.004 A 
ATOM     22  C   UNL     1       1.175   1.783   0.000  0.00  0.00    +0.001 A 
ATOM     23  C   UNL     1      -0.013   1.076   0.008  0.00  0.00    +0.015 A 
ATOM     24  C   UNL     1      -1.220   1.751   0.017  0.00  0.00    +0.018 A 
ATOM     25  C   UNL     1      -1.238   3.134   0.030  0.00  0.00    +0.019 A 
ATOM     26 BR   UNL     1      -2.844   0.784   0.021  0.00  0.00    -0.050 Br
ENDBRANCH  19  20
ENDBRANCH  18  19
ENDBRANCH   4  18
TORSDOF 4
