REMARK  Name = ZINC09102244
REMARK  7 active torsions:
REMARK  status: ('A' for Active; 'I' for Inactive)
REMARK    1  A    between atoms: C_1  and  O_2
REMARK    2  A    between atoms: O_2  and  C_3
REMARK    3  A    between atoms: C_6  and  C_9
REMARK    4  A    between atoms: C_10  and  C_11
REMARK    5  A    between atoms: N_13  and  C_14
REMARK    6  A    between atoms: C_14  and  C_15
REMARK    7  A    between atoms: N_18  and  C_22
REMARK                            x       y       z     vdW  Elec       q    Type
REMARK                         _______ _______ _______ _____ _____    ______ ____
ROOT
ATOM      1  C   UNL     1       3.679   1.916  -0.023  0.00  0.00    +0.150 C 
ENDROOT
BRANCH   1   2
ATOM      2  C   UNL     1       4.855   0.938  -0.039  0.00  0.00    +0.213 C 
ATOM      3  C   UNL     1       6.193   1.702  -0.048  0.00  0.00    +0.163 C 
ATOM      4  N   UNL     1       6.849   1.274   1.198  0.00  0.00    -0.234 N 
ATOM      5  C   UNL     1       6.047   0.411   1.835  0.00  0.00    +0.408 C 
ATOM      6  O   UNL     1       6.338  -0.105   2.896  0.00  0.00    -0.226 OA
ATOM      7  O   UNL     1       4.896   0.168   1.197  0.00  0.00    -0.444 OA
BRANCH   4   8
ATOM      8  C   UNL     1       8.105   1.701   1.644  0.00  0.00    +0.041 A 
ATOM      9  C   UNL     1       8.845   2.599   0.886  0.00  0.00    +0.025 A 
ATOM     10  C   UNL     1      10.081   3.023   1.331  0.00  0.00    +0.023 A 
ATOM     11  C   UNL     1      10.590   2.545   2.525  0.00  0.00    +0.059 A 
ATOM     12  C   UNL     1       9.857   1.645   3.281  0.00  0.00    +0.061 A 
ATOM     13  C   UNL     1       8.617   1.222   2.842  0.00  0.00    +0.045 A 
ATOM     14 CL   UNL     1      10.498   1.047   4.779  0.00  0.00    -0.082 Cl
ATOM     15 CL   UNL     1      12.148   3.074   3.078  0.00  0.00    -0.082 Cl
ENDBRANCH   4   8
ENDBRANCH   1   2
BRANCH   1  18
ATOM     16  C   UNL     1       1.244   1.824   0.000  0.00  0.00    +0.237 C 
ATOM     17  O   UNL     1       1.228   3.041   0.007  0.00  0.00    -0.271 OA
ATOM     18  N   UNL     1       2.420   1.166  -0.015  0.00  0.00    -0.308 N 
ATOM     19  H   UNL     1       2.433   0.197  -0.020  0.00  0.00    +0.149 HD
BRANCH  16  21
ATOM     20  C   UNL     1      -1.190   1.735   0.017  0.00  0.00    +0.013 C 
ATOM     21  C   UNL     1      -0.013   1.076   0.008  0.00  0.00    +0.068 C 
BRANCH  20  25
ATOM     22  C   UNL     1      -4.835  -0.436   0.023  0.00  0.00    +0.120 A 
ATOM     23  C   UNL     1      -4.856   0.954   0.030  0.00  0.00    +0.046 A 
ATOM     24  C   UNL     1      -3.676   1.663   0.029  0.00  0.00    +0.011 A 
ATOM     25  C   UNL     1      -2.454   0.983   0.019  0.00  0.00    -0.025 A 
ATOM     26  C   UNL     1      -2.437  -0.417   0.006  0.00  0.00    +0.011 A 
ATOM     27  C   UNL     1      -3.623  -1.117   0.014  0.00  0.00    +0.046 A 
BRANCH  22  29
ATOM     28  C   UNL     1      -5.907  -2.556   0.018  0.00  0.00    +0.277 C 
ATOM     29  O   UNL     1      -6.001  -1.130   0.026  0.00  0.00    -0.495 OA
ENDBRANCH  22  29
ENDBRANCH  20  25
ENDBRANCH  16  21
ENDBRANCH   1  18
TORSDOF 6
