REMARK  Name = ZINC27572237
REMARK  10 active torsions:
REMARK  status: ('A' for Active; 'I' for Inactive)
REMARK    1  A    between atoms: C_1  and  C_2
REMARK    2  A    between atoms: C_5  and  C_7
REMARK    3  A    between atoms: C_10  and  C_26
REMARK    4  A    between atoms: C_15  and  C_16
REMARK    5  A    between atoms: C_16  and  C_17
REMARK    6  A    between atoms: C_17  and  C_18
REMARK    7  A    between atoms: C_18  and  C_24
REMARK    8  A    between atoms: N_19  and  N_20
REMARK    9  A    between atoms: N_20  and  C_21
REMARK   10  A    between atoms: C_21  and  N_23
REMARK                            x       y       z     vdW  Elec       q    Type
REMARK                         _______ _______ _______ _____ _____    ______ ____
ROOT
ATOM      1  C   UNL     1       2.181   4.645   0.006  0.00  0.00    +0.066 A 
ATOM      2  C   UNL     1       1.142   3.597   0.010  0.00  0.00    +0.032 A 
ATOM      3  C   UNL     1       1.167   2.205   0.003  0.00  0.00    +0.015 A 
ATOM      4  C   UNL     1      -0.018   1.503   0.010  0.00  0.00    -0.049 A 
ATOM      5  C   UNL     1      -1.230   2.178   0.020  0.00  0.00    +0.022 A 
ATOM      6  C   UNL     1      -1.268   3.556   0.032  0.00  0.00    +0.061 A 
ATOM      7  C   UNL     1      -0.082   4.282   0.025  0.00  0.00    +0.150 A 
ATOM      8  O   UNL     1       0.191   5.604   0.029  0.00  0.00    -0.458 OA
ATOM      9  C   UNL     1       1.516   5.826   0.018  0.00  0.00    +0.117 A 
ATOM     10 BR   UNL     1      -2.930   4.457   0.052  0.00  0.00    -0.046 Br
ATOM     11  C   UNL     1       0.002  -0.004   0.002  0.00  0.00    +0.044 C 
ENDROOT
BRANCH   1  16
ATOM     12  C   UNL     1       6.990   4.684   1.444  0.00  0.00    +0.086 C 
ATOM     13  C   UNL     1       5.751   4.462   0.616  0.00  0.00    +0.103 A 
ATOM     14  C   UNL     1       5.714   3.898  -0.607  0.00  0.00    +0.045 A 
ATOM     15  C   UNL     1       4.364   3.880  -1.013  0.00  0.00    +0.050 A 
ATOM     16  C   UNL     1       3.645   4.448  -0.008  0.00  0.00    +0.139 A 
ATOM     17  O   UNL     1       4.498   4.793   0.975  0.00  0.00    -0.460 OA
ENDBRANCH   1  16
BRANCH   9  18
ATOM     18  C   UNL     1       2.166   7.186   0.020  0.00  0.00    +0.081 C 
BRANCH  18  19
ATOM     19  C   UNL     1       2.373   7.654  -1.422  0.00  0.00    +0.060 C 
BRANCH  19  20
ATOM     20  C   UNL     1       3.023   9.013  -1.420  0.00  0.00    +0.034 C 
ATOM     21  N   UNL     1       4.201   9.160  -1.898  0.00  0.00    -0.190 NA
ATOM     22  C   UNL     1       2.285  10.200  -0.855  0.00  0.00    +0.062 C 
BRANCH  21  23
ATOM     23  N   UNL     1       4.805  10.424  -1.897  0.00  0.00    -0.219 N 
ATOM     24  H   UNL     1       4.267  11.291  -1.484  0.00  0.00    +0.176 HD
BRANCH  23  25
ATOM     25  C   UNL     1       6.046  10.579  -2.400  0.00  0.00    +0.147 C 
ATOM     26  S   UNL     1       6.784  12.124  -2.398  0.00  0.00    -0.017 S 
BRANCH  25  27
ATOM     27  N   UNL     1       6.705   9.518  -2.905  0.00  0.00    -0.339 N 
ATOM     28  H   UNL     1       7.718   9.644  -3.316  0.00  0.00    +0.144 HD
ATOM     29  H   UNL     1       6.231   8.525  -2.906  0.00  0.00    +0.144 HD
ENDBRANCH  25  27
ENDBRANCH  23  25
ENDBRANCH  21  23
ENDBRANCH  19  20
ENDBRANCH  18  19
ENDBRANCH   9  18
TORSDOF 7
