REMARK  Name = ZINC30733376
REMARK  11 active torsions:
REMARK  status: ('A' for Active; 'I' for Inactive)
REMARK    1  A    between atoms: C_1  and  C_2
REMARK    2  A    between atoms: C_2  and  C_4
REMARK    3  A    between atoms: C_2  and  N_12
REMARK    4  A    between atoms: C_13  and  C_15
REMARK    5  A    between atoms: C_15  and  C_17
REMARK    6  A    between atoms: C_15  and  O_18
REMARK    7  A    between atoms: O_18  and  C_19
REMARK    8  A    between atoms: C_19  and  C_21
REMARK    9  A    between atoms: N_26  and  C_30
REMARK   10  A    between atoms: C_30  and  C_31
REMARK   11  A    between atoms: C_30  and  C_32
REMARK                            x       y       z     vdW  Elec       q    Type
REMARK                         _______ _______ _______ _____ _____    ______ ____
ROOT
ATOM      1  C   UNL     1       2.880  -1.158  -2.243  0.00  0.00    +0.259 C 
ATOM      2  C   UNL     1       2.439  -2.582  -2.587  0.00  0.00    +0.062 C 
ENDROOT
BRANCH   1   4
ATOM      3  N   UNL     1       0.764  -0.485  -1.153  0.00  0.00    -0.306 N 
ATOM      4  C   UNL     1       2.096  -0.663  -1.055  0.00  0.00    +0.254 C 
ATOM      5  O   UNL     1       2.664  -0.425  -0.010  0.00  0.00    -0.272 OA
ATOM      6  H   UNL     1       0.309  -0.676  -1.988  0.00  0.00    +0.149 HD
BRANCH   3   8
ATOM      7  C   UNL     1       0.009   1.526   0.016  0.00  0.00    +0.033 C 
ATOM      8  C   UNL     1       0.002  -0.004   0.002  0.00  0.00    +0.102 C 
BRANCH   8   9
ATOM      9  C   UNL     1      -1.418  -0.499  -0.091  0.00  0.00    -0.009 A 
ATOM     10  C   UNL     1      -1.976  -0.770  -1.327  0.00  0.00    +0.008 A 
ATOM     11  C   UNL     1      -3.278  -1.224  -1.414  0.00  0.00    +0.020 A 
ATOM     12  C   UNL     1      -4.025  -1.408  -0.263  0.00  0.00    +0.042 A 
ATOM     13  C   UNL     1      -3.468  -1.137   0.973  0.00  0.00    +0.040 A 
ATOM     14  C   UNL     1      -2.162  -0.687   1.060  0.00  0.00    +0.047 A 
ATOM     15 CL   UNL     1      -1.460  -0.353   2.612  0.00  0.00    -0.083 Cl
ATOM     16 CL   UNL     1      -5.661  -1.977  -0.372  0.00  0.00    -0.083 Cl
ENDBRANCH   8   9
ENDBRANCH   3   8
ENDBRANCH   1   4
BRANCH   1  17
ATOM     17  O   UNL     1       4.274  -1.154  -1.930  0.00  0.00    -0.449 OA
BRANCH  17  18
ATOM     18  C   UNL     1       5.130  -0.953  -2.951  0.00  0.00    +0.341 C 
ATOM     19  O   UNL     1       4.704  -0.786  -4.076  0.00  0.00    -0.245 OA
BRANCH  18  20
ATOM     20  C   UNL     1       6.584  -0.936  -2.702  0.00  0.00    +0.078 A 
ATOM     21  C   UNL     1       7.479  -0.723  -3.752  0.00  0.00    +0.029 A 
ATOM     22  C   UNL     1       8.843  -0.716  -3.458  0.00  0.00    +0.039 A 
ATOM     23  C   UNL     1      10.053  -0.533  -4.254  0.00  0.00    +0.144 A 
ATOM     24  N   UNL     1      11.072  -0.627  -3.449  0.00  0.00    -0.177 NA
ATOM     25  N   UNL     1      10.633  -0.864  -2.143  0.00  0.00    -0.244 N 
ATOM     26  C   UNL     1       9.268  -0.922  -2.128  0.00  0.00    +0.158 A 
ATOM     27  N   UNL     1       8.374  -1.120  -1.164  0.00  0.00    -0.235 NA
ATOM     28  C   UNL     1       7.085  -1.127  -1.406  0.00  0.00    +0.128 A 
BRANCH  25  29
ATOM     29  C   UNL     1      11.500  -1.024  -0.973  0.00  0.00    +0.103 C 
ATOM     30  C   UNL     1      12.433  -2.217  -1.190  0.00  0.00    +0.032 C 
ATOM     31  C   UNL     1      12.331   0.245  -0.776  0.00  0.00    +0.032 C 
ENDBRANCH  25  29
ENDBRANCH  18  20
ENDBRANCH  17  18
ENDBRANCH   1  17
TORSDOF 7
