REMARK  Name = ZINC35373221
REMARK  6 active torsions:
REMARK  status: ('A' for Active; 'I' for Inactive)
REMARK    1  A    between atoms: C_1  and  N_2
REMARK    2  A    between atoms: C_5  and  C_21
REMARK    3  A    between atoms: C_8  and  C_13
REMARK    4  A    between atoms: C_17  and  O_20
REMARK    5  A    between atoms: C_18  and  O_19
REMARK    6  A    between atoms: N_30  and  C_33
REMARK                            x       y       z     vdW  Elec       q    Type
REMARK                         _______ _______ _______ _____ _____    ______ ____
ROOT
ATOM      1  C   UNL     1      -0.043   1.634   0.139  0.00  0.00    +0.154 C 
ATOM      2  N   UNL     1       0.062   0.174   0.181  0.00  0.00    -0.294 N 
ATOM      3  C   UNL     1      -1.098  -0.606   0.257  0.00  0.00    +0.083 A 
ATOM      4  C   UNL     1      -0.938  -2.070   0.296  0.00  0.00    +0.089 A 
ATOM      5  C   UNL     1      -2.215  -2.600   0.369  0.00  0.00    +0.064 A 
ATOM      6  N   UNL     1      -3.094  -1.564   0.375  0.00  0.00    -0.337 N 
ATOM      7  C   UNL     1      -2.415  -0.366   0.305  0.00  0.00    +0.078 A 
ATOM      8  C   UNL     1      -3.115   0.974   0.287  0.00  0.00    +0.200 C 
ATOM      9  O   UNL     1      -4.503   0.740   0.012  0.00  0.00    -0.364 OA
ATOM     10  C   UNL     1      -5.098  -0.265   0.838  0.00  0.00    +0.182 C 
ATOM     11  C   UNL     1      -4.560  -1.646   0.444  0.00  0.00    +0.150 C 
ATOM     12  C   UNL     1       0.424  -2.607   0.254  0.00  0.00    +0.266 A 
ATOM     13  O   UNL     1       0.621  -3.808   0.283  0.00  0.00    -0.267 OA
ATOM     14  N   UNL     1       1.455  -1.739   0.182  0.00  0.00    -0.263 N 
ATOM     15  C   UNL     1       1.271  -0.412   0.142  0.00  0.00    +0.332 A 
ATOM     16  O   UNL     1       2.253   0.301   0.072  0.00  0.00    -0.246 OA
ATOM     17  C   UNL     1       2.821  -2.265   0.139  0.00  0.00    +0.157 C 
ENDROOT
BRANCH   5  18
ATOM     18  C   UNL     1      -2.559  -4.034   0.430  0.00  0.00    +0.000 A 
ATOM     19  C   UNL     1      -3.520  -4.487   1.337  0.00  0.00    +0.010 A 
ATOM     20  C   UNL     1      -3.838  -5.828   1.389  0.00  0.00    +0.002 A 
ATOM     21  C   UNL     1      -3.207  -6.725   0.544  0.00  0.00    +0.015 A 
ATOM     22  C   UNL     1      -2.254  -6.284  -0.357  0.00  0.00    +0.019 A 
ATOM     23  C   UNL     1      -1.931  -4.943  -0.424  0.00  0.00    +0.025 A 
ATOM     24 BR   UNL     1      -1.399  -7.518  -1.506  0.00  0.00    -0.050 Br
ENDBRANCH   5  18
BRANCH   8  25
ATOM     25  C   UNL     1      -2.520   1.846  -0.788  0.00  0.00    +0.032 A 
ATOM     26  C   UNL     1      -2.077   1.281  -1.970  0.00  0.00    +0.010 A 
ATOM     27  C   UNL     1      -1.532   2.079  -2.959  0.00  0.00    +0.004 A 
ATOM     28  C   UNL     1      -1.425   3.444  -2.770  0.00  0.00    +0.049 A 
ATOM     29  C   UNL     1      -1.867   4.016  -1.588  0.00  0.00    +0.159 A 
ATOM     30  C   UNL     1      -2.423   3.214  -0.595  0.00  0.00    +0.164 A 
BRANCH  30  31
ATOM     31  O   UNL     1      -2.863   3.772   0.564  0.00  0.00    -0.503 OA
ATOM     32  H   UNL     1      -2.171   3.896   1.228  0.00  0.00    +0.292 HD
ENDBRANCH  30  31
BRANCH  29  33
ATOM     33  O   UNL     1      -1.764   5.359  -1.401  0.00  0.00    -0.503 OA
ATOM     34  H   UNL     1      -2.536   5.859  -1.700  0.00  0.00    +0.292 HD
ENDBRANCH  29  33
ENDBRANCH   8  25
TORSDOF 4
