REMARK  Name = ZINC04121490
REMARK  6 active torsions:
REMARK  status: ('A' for Active; 'I' for Inactive)
REMARK    1  A    between atoms: C_1  and  N_2
REMARK    2  A    between atoms: N_2  and  C_3
REMARK    3  A    between atoms: N_2  and  S_4
REMARK    4  A    between atoms: S_4  and  C_7
REMARK    5  A    between atoms: C_10  and  C_13
REMARK    6  A    between atoms: N_15  and  N_16
REMARK                            x       y       z     vdW  Elec       q    Type
REMARK                         _______ _______ _______ _____ _____    ______ ____
ROOT
ATOM      1  C   UNL     1       1.172   3.565   0.009  0.00  0.00    +0.260 C 
ATOM      2  O   UNL     1       0.114   4.164   0.022  0.00  0.00    -0.269 OA
ATOM      3  N   UNL     1       2.333   4.249   0.002  0.00  0.00    -0.231 N 
ATOM      4  H   UNL     1       3.177   3.771  -0.008  0.00  0.00    +0.173 HD
ENDROOT
BRANCH   3   5
ATOM      5  N   UNL     1       2.321   5.650   0.009  0.00  0.00    -0.242 N 
ATOM      6  C   UNL     1       3.511   6.350   0.002  0.00  0.00    +0.176 A 
ATOM      7  N   UNL     1       4.740   5.887  -0.006  0.00  0.00    -0.221 NA
ATOM      8  C   UNL     1       5.822   6.699  -0.017  0.00  0.00    +0.116 A 
ATOM      9  C   UNL     1       7.189   6.331  -0.031  0.00  0.00    +0.152 A 
ATOM     10  C   UNL     1       8.172   7.289  -0.035  0.00  0.00    +0.079 A 
ATOM     11  C   UNL     1       7.864   8.643  -0.026  0.00  0.00    +0.127 A 
ATOM     12  C   UNL     1       6.537   9.036  -0.012  0.00  0.00    +0.055 A 
ATOM     13  C   UNL     1       5.548   8.084  -0.008  0.00  0.00    +0.046 A 
ATOM     14  S   UNL     1       3.771   8.118   0.008  0.00  0.00    -0.051 S 
ATOM     15  F   UNL     1       8.850   9.567  -0.031  0.00  0.00    -0.205 F 
ATOM     16  F   UNL     1       7.529   5.024  -0.041  0.00  0.00    -0.203 F 
ATOM     17  H   UNL     1       1.477   6.128   0.020  0.00  0.00    +0.172 HD
ENDBRANCH   3   5
BRANCH   1  21
ATOM     18  C   UNL     1       1.208  -0.682  -0.013  0.00  0.00    +0.105 A 
ATOM     19  C   UNL     1       0.002  -0.004   0.002  0.00  0.00    +0.029 A 
ATOM     20  C   UNL     1      -0.017   1.375   0.010  0.00  0.00    +0.015 A 
ATOM     21  C   UNL     1       1.184   2.087   0.002  0.00  0.00    +0.038 A 
ATOM     22  C   UNL     1       2.397   1.396  -0.013  0.00  0.00    +0.015 A 
ATOM     23  C   UNL     1       2.402   0.016  -0.020  0.00  0.00    +0.029 A 
BRANCH  18  24
ATOM     24  S   UNL     1       1.223  -2.445  -0.022  0.00  0.00    +0.060 S 
ATOM     25  O   UNL     1       2.477  -2.843   0.515  0.00  0.00    -0.153 OA
ATOM     26  O   UNL     1      -0.014  -2.864   0.539  0.00  0.00    -0.153 OA
BRANCH  24  28
ATOM     27  C   UNL     1       2.476  -3.128  -2.319  0.00  0.00    +0.131 C 
ATOM     28  N   UNL     1       1.212  -2.926  -1.606  0.00  0.00    -0.183 NA
ATOM     29  C   UNL     1      -0.061  -3.150  -2.295  0.00  0.00    +0.131 C 
ENDBRANCH  24  28
ENDBRANCH  18  24
ENDBRANCH   1  21
TORSDOF 4
