REMARK  Name = ZINC09807988
REMARK  6 active torsions:
REMARK  status: ('A' for Active; 'I' for Inactive)
REMARK    1  A    between atoms: C_3  and  C_8
REMARK    2  A    between atoms: C_8  and  C_10
REMARK    3  A    between atoms: C_8  and  N_24
REMARK    4  A    between atoms: C_11  and  O_23
REMARK    5  A    between atoms: C_16  and  C_18
REMARK    6  A    between atoms: C_27  and  C_30
REMARK                            x       y       z     vdW  Elec       q    Type
REMARK                         _______ _______ _______ _____ _____    ______ ____
ROOT
ATOM      1  C   UNL     1       3.672   2.183  -0.022  0.00  0.00    +0.005 C 
ENDROOT
BRANCH   1   2
ATOM      2  C   UNL     1       4.216   2.236  -1.427  0.00  0.00    +0.045 A 
ATOM      3  C   UNL     1       4.393   3.297  -2.224  0.00  0.00    +0.225 A 
ATOM      4  N   UNL     1       4.909   3.145  -3.488  0.00  0.00    -0.173 N 
ATOM      5  C   UNL     1       5.227   1.875  -3.883  0.00  0.00    +0.199 A 
ATOM      6  S   UNL     1       4.800   0.901  -2.460  0.00  0.00    -0.050 S 
ATOM      7  N   UNL     1       5.701   1.898  -5.097  0.00  0.00    -0.197 NA
ATOM      8  C   UNL     1       5.714   3.161  -5.544  0.00  0.00    +0.218 A 
ATOM      9  N   UNL     1       5.244   3.954  -4.605  0.00  0.00    -0.138 NA
BRANCH   8  10
ATOM     10  C   UNL     1       6.183   3.595  -6.877  0.00  0.00    +0.173 A 
ATOM     11  C   UNL     1       6.665   2.784  -7.856  0.00  0.00    +0.053 A 
ATOM     12  C   UNL     1       6.989   3.614  -8.947  0.00  0.00    +0.042 A 
ATOM     13  C   UNL     1       6.693   4.877  -8.585  0.00  0.00    +0.196 A 
ATOM     14  O   UNL     1       6.200   4.861  -7.335  0.00  0.00    -0.460 OA
ENDBRANCH   8  10
BRANCH   3  15
ATOM     15  O   UNL     1       4.058   4.537  -1.777  0.00  0.00    -0.492 OA
ATOM     16  H   UNL     1       4.219   5.243  -2.419  0.00  0.00    +0.294 HD
ENDBRANCH   3  15
ENDBRANCH   1   2
BRANCH   1  19
ATOM     17  C   UNL     1      -0.017   1.378   0.010  0.00  0.00    +0.001 A 
ATOM     18  C   UNL     1       1.171   2.086   0.002  0.00  0.00    +0.002 A 
ATOM     19  C   UNL     1       2.378   1.411  -0.013  0.00  0.00    -0.055 A 
ATOM     20  C   UNL     1       2.397   0.029  -0.022  0.00  0.00    +0.017 A 
ATOM     21  C   UNL     1       1.210  -0.679  -0.014  0.00  0.00    +0.018 A 
ATOM     22  C   UNL     1       0.002  -0.004   0.002  0.00  0.00    +0.015 A 
ATOM     23 BR   UNL     1       1.236  -2.570  -0.025  0.00  0.00    -0.050 Br
ENDBRANCH   1  19
BRANCH   1  24
ATOM     24  N   UNL     1       4.645   1.518   0.855  0.00  0.00    +0.387 N 
ATOM     25  C   UNL     1       4.110   1.460   2.220  0.00  0.00    -0.077 C 
ATOM     26  C   UNL     1       5.083   0.696   3.121  0.00  0.00    -0.006 C 
ATOM     27  C   UNL     1       6.434   1.418   3.131  0.00  0.00    +0.071 C 
ATOM     28  C   UNL     1       6.947   1.539   1.693  0.00  0.00    -0.006 C 
ATOM     29  C   UNL     1       5.905   2.271   0.845  0.00  0.00    -0.077 C 
ATOM     30  H   UNL     1       4.812   0.581   0.520  0.00  0.00    -0.080 HD
BRANCH  27  31
ATOM     31  C   UNL     1       7.421   0.629   3.953  0.00  0.00    +0.213 C 
ATOM     32  O   UNL     1       7.079  -0.408   4.480  0.00  0.00    -0.276 OA
ATOM     33  N   UNL     1       8.683   1.077   4.103  0.00  0.00    -0.329 N 
ATOM     34  H   UNL     1       8.957   1.907   3.681  0.00  0.00    +0.145 HD
ATOM     35  H   UNL     1       9.318   0.570   4.632  0.00  0.00    +0.145 HD
ENDBRANCH  27  31
ENDBRANCH   1  24
TORSDOF 6
