REMARK  Name = ZINC31356813
REMARK  11 active torsions:
REMARK  status: ('A' for Active; 'I' for Inactive)
REMARK    1  A    between atoms: C_1  and  C_2
REMARK    2  A    between atoms: C_10  and  O_37
REMARK    3  A    between atoms: C_21  and  N_23
REMARK    4  A    between atoms: N_23  and  C_24
REMARK    5  A    between atoms: C_24  and  C_25
REMARK    6  A    between atoms: C_25  and  C_26
REMARK    7  A    between atoms: C_26  and  C_27
REMARK    8  A    between atoms: C_27  and  C_28
REMARK    9  A    between atoms: C_28  and  C_29
REMARK   10  A    between atoms: C_29  and  N_30
REMARK   11  A    between atoms: O_37  and  C_38
REMARK                            x       y       z     vdW  Elec       q    Type
REMARK                         _______ _______ _______ _____ _____    ______ ____
ROOT
ATOM      1  C   UNL     1      -0.308  -0.875  -2.991  0.00  0.00    +0.010 C 
ATOM      2  C   UNL     1      -0.591   0.549  -3.490  0.00  0.00    -0.041 C 
ATOM      3  C   UNL     1      -2.044   0.700  -3.843  0.00  0.00    +0.006 C 
ATOM      4  C   UNL     1      -2.877   1.163  -2.635  0.00  0.00    +0.009 C 
ATOM      5  C   UNL     1      -2.185   0.799  -1.334  0.00  0.00    +0.023 C 
ATOM      6  C   UNL     1      -3.017   1.062  -0.108  0.00  0.00    -0.041 A 
ATOM      7  C   UNL     1      -4.394   0.939  -0.184  0.00  0.00    +0.008 A 
ATOM      8  C   UNL     1      -5.182   1.174   0.925  0.00  0.00    +0.046 A 
ATOM      9  C   UNL     1      -4.585   1.536   2.124  0.00  0.00    +0.120 A 
ATOM     10  C   UNL     1      -3.209   1.650   2.201  0.00  0.00    +0.049 A 
ATOM     11  C   UNL     1      -2.413   1.407   1.087  0.00  0.00    -0.040 A 
ATOM     12  C   UNL     1      -0.923   1.542   1.262  0.00  0.00    +0.036 C 
ATOM     13  C   UNL     1      -0.147   1.067   0.030  0.00  0.00    +0.009 C 
ATOM     14  C   UNL     1      -0.880   1.587  -1.198  0.00  0.00    +0.000 C 
ATOM     15  C   UNL     1      -0.120   1.613  -2.478  0.00  0.00    -0.003 C 
ATOM     16  C   UNL     1       1.391   1.348  -2.423  0.00  0.00    +0.003 C 
ATOM     17  C   UNL     1       1.753   1.027  -3.899  0.00  0.00    -0.015 C 
ATOM     18  C   UNL     1       0.409   0.794  -4.639  0.00  0.00    -0.066 C 
ENDROOT
BRANCH  18  19
ATOM     19  N   UNL     1       0.041   1.985  -5.406  0.00  0.00    +0.381 N 
ATOM     20  H   UNL     1      -1.055   2.067  -5.452  0.00  0.00    -0.086 HD
ATOM     21  H   UNL     1       0.455   2.879  -4.917  0.00  0.00    -0.086 HD
BRANCH  19  22
ATOM     22  C   UNL     1       0.566   1.912  -6.776  0.00  0.00    -0.082 C 
BRANCH  22  23
ATOM     23  C   UNL     1       0.162   3.171  -7.545  0.00  0.00    -0.019 C 
BRANCH  23  24
ATOM     24  C   UNL     1       0.708   3.094  -8.973  0.00  0.00    -0.002 C 
BRANCH  24  25
ATOM     25  C   UNL     1       0.304   4.354  -9.742  0.00  0.00    +0.001 C 
BRANCH  25  26
ATOM     26  C   UNL     1       0.851   4.277 -11.169  0.00  0.00    +0.019 C 
BRANCH  26  27
ATOM     27  C   UNL     1       0.447   5.537 -11.938  0.00  0.00    +0.117 C 
BRANCH  27  28
ATOM     28  N   UNL     1       0.970   5.463 -13.304  0.00  0.00    -0.235 N 
ATOM     29  C   UNL     1       2.169   5.926 -13.701  0.00  0.00    +0.246 C 
ATOM     30  O   UNL     1       2.990   6.470 -12.992  0.00  0.00    -0.270 OA
ATOM     31  C   UNL     1       2.318   5.657 -15.148  0.00  0.00    +0.073 C 
ATOM     32  C   UNL     1       1.189   5.050 -15.549  0.00  0.00    +0.073 C 
ATOM     33  C   UNL     1       0.323   4.928 -14.355  0.00  0.00    +0.246 C 
ATOM     34  O   UNL     1      -0.783   4.429 -14.328  0.00  0.00    -0.270 OA
ENDBRANCH  27  28
ENDBRANCH  26  27
ENDBRANCH  25  26
ENDBRANCH  24  25
ENDBRANCH  23  24
ENDBRANCH  22  23
ENDBRANCH  19  22
ENDBRANCH  18  19
BRANCH   9  35
ATOM     35  O   UNL     1      -5.351   1.778   3.220  0.00  0.00    -0.495 OA
ATOM     36  C   UNL     1      -6.765   1.641   3.067  0.00  0.00    +0.277 C 
ENDBRANCH   9  35
TORSDOF 9
