REMARK  Name = ZINC56142743
REMARK  4 active torsions:
REMARK  status: ('A' for Active; 'I' for Inactive)
REMARK    1  A    between atoms: C_4  and  C_6
REMARK    2  A    between atoms: C_7  and  C_8
REMARK    3  A    between atoms: N_10  and  N_11
REMARK    4  A    between atoms: C_12  and  C_14
REMARK                            x       y       z     vdW  Elec       q    Type
REMARK                         _______ _______ _______ _____ _____    ______ ____
ROOT
ATOM      1  N   UNL     1       0.040  -6.654  -0.036  0.00  0.00    -0.230 N 
ATOM      2  C   UNL     1      -0.966  -7.551  -0.031  0.00  0.00    +0.267 C 
ATOM      3  O   UNL     1      -2.122  -7.168  -0.017  0.00  0.00    -0.268 OA
ATOM      4  H   UNL     1       0.961  -6.959  -0.047  0.00  0.00    +0.173 HD
ENDROOT
BRANCH   2   5
ATOM      5  C   UNL     1      -0.670  -8.986  -0.042  0.00  0.00    +0.076 A 
ATOM      6  C   UNL     1      -1.542 -10.056  -0.045  0.00  0.00    +0.024 A 
ATOM      7  C   UNL     1      -0.980 -11.330  -0.055  0.00  0.00    -0.036 A 
ATOM      8  C   UNL     1       0.377 -11.393  -0.059  0.00  0.00    -0.006 A 
ATOM      9  S   UNL     1       0.912  -9.808  -0.063  0.00  0.00    -0.088 S 
ATOM     10  C   UNL     1       1.240 -12.620  -0.062  0.00  0.00    +0.043 C 
ATOM     11  C   UNL     1       0.494 -13.768  -0.752  0.00  0.00    +0.005 C 
ATOM     12  C   UNL     1      -0.320 -14.519   0.296  0.00  0.00    +0.001 C 
ATOM     13  C   UNL     1      -1.343 -13.592   0.948  0.00  0.00    +0.005 C 
ATOM     14  C   UNL     1      -1.861 -12.575  -0.064  0.00  0.00    +0.036 C 
ENDBRANCH   2   5
BRANCH   1  17
ATOM     15  C   UNL     1       0.763  -4.386  -0.030  0.00  0.00    +0.253 C 
ATOM     16  O   UNL     1       1.919  -4.769  -0.044  0.00  0.00    -0.269 OA
ATOM     17  N   UNL     1      -0.243  -5.282  -0.025  0.00  0.00    -0.231 N 
ATOM     18  H   UNL     1      -1.164  -4.978  -0.014  0.00  0.00    +0.173 HD
BRANCH  15  20
ATOM     19  C   UNL     1       1.477  -2.054  -0.024  0.00  0.00    +0.040 C 
ATOM     20  C   UNL     1       0.467  -2.954  -0.019  0.00  0.00    +0.071 C 
BRANCH  19  24
ATOM     21  C   UNL     1      -0.016   1.304   0.009  0.00  0.00    +0.119 A 
ATOM     22  C   UNL     1       1.155   1.996   0.002  0.00  0.00    +0.067 A 
ATOM     23  S   UNL     1       2.304   0.766  -0.016  0.00  0.00    -0.076 S 
ATOM     24  C   UNL     1       1.181  -0.621  -0.013  0.00  0.00    +0.101 A 
ATOM     25  N   UNL     1       0.002  -0.004   0.002  0.00  0.00    -0.248 NA
ENDBRANCH  19  24
ENDBRANCH  15  20
ENDBRANCH   1  17
TORSDOF 4
