REMARK  Name = ZINC41513638
REMARK  13 active torsions:
REMARK  status: ('A' for Active; 'I' for Inactive)
REMARK    1  A    between atoms: C_1  and  C_2
REMARK    2  A    between atoms: C_4  and  O_31
REMARK    3  A    between atoms: C_5  and  C_21
REMARK    4  A    between atoms: C_11  and  C_12
REMARK    5  A    between atoms: C_21  and  N_22
REMARK    6  A    between atoms: N_22  and  C_23
REMARK    7  A    between atoms: N_22  and  C_27
REMARK    8  A    between atoms: C_23  and  C_24
REMARK    9  A    between atoms: C_24  and  C_25
REMARK   10  A    between atoms: C_24  and  C_26
REMARK   11  A    between atoms: C_27  and  C_28
REMARK   12  A    between atoms: C_28  and  C_29
REMARK   13  A    between atoms: C_28  and  C_30
REMARK                            x       y       z     vdW  Elec       q    Type
REMARK                         _______ _______ _______ _____ _____    ______ ____
ROOT
ATOM      1  C   UNL     1       1.940  -0.268   0.679  0.00  0.00    +0.045 C 
ATOM      2  C   UNL     1       1.296  -1.628   0.593  0.00  0.00    -0.033 A 
ATOM      3  C   UNL     1       0.991  -2.164  -0.626  0.00  0.00    +0.050 A 
ATOM      4  C   UNL     1       0.396  -3.420  -0.708  0.00  0.00    +0.122 A 
ATOM      5  C   UNL     1       0.106  -4.139   0.441  0.00  0.00    +0.020 A 
ATOM      6  C   UNL     1       0.409  -3.608   1.688  0.00  0.00    +0.145 A 
ATOM      7  C   UNL     1       1.015  -2.343   1.757  0.00  0.00    +0.071 A 
ATOM      8  C   UNL     1       1.217  -2.057   3.189  0.00  0.00    +0.232 C 
ATOM      9  O   UNL     1       1.710  -1.061   3.689  0.00  0.00    -0.283 OA
ATOM     10  C   UNL     1       0.691  -3.245   3.880  0.00  0.00    +0.176 C 
ATOM     11  C   UNL     1       0.661  -3.445   5.221  0.00  0.00    +0.058 C 
ATOM     12  O   UNL     1       0.231  -4.098   2.934  0.00  0.00    -0.451 OA
ENDROOT
BRANCH  11  13
ATOM     13  C   UNL     1       0.997  -2.345   6.136  0.00  0.00    -0.020 A 
ATOM     14  C   UNL     1       0.468  -1.066   5.922  0.00  0.00    +0.009 A 
ATOM     15  C   UNL     1       0.787  -0.039   6.784  0.00  0.00    +0.022 A 
ATOM     16  C   UNL     1       1.629  -0.269   7.860  0.00  0.00    +0.059 A 
ATOM     17  C   UNL     1       2.158  -1.532   8.078  0.00  0.00    +0.060 A 
ATOM     18  C   UNL     1       1.843  -2.571   7.227  0.00  0.00    +0.029 A 
ATOM     19 CL   UNL     1       3.213  -1.808   9.429  0.00  0.00    -0.082 Cl
ATOM     20 CL   UNL     1       2.025   1.032   8.939  0.00  0.00    -0.082 Cl
ENDBRANCH  11  13
BRANCH   4  21
ATOM     21  O   UNL     1       0.097  -3.945  -1.924  0.00  0.00    -0.506 OA
ATOM     22  H   UNL     1       0.808  -4.473  -2.310  0.00  0.00    +0.292 HD
ENDBRANCH   4  21
BRANCH   5  23
ATOM     23  C   UNL     1      -0.538  -5.498   0.337  0.00  0.00    -0.036 C 
BRANCH  23  24
ATOM     24  N   UNL     1       0.504  -6.529   0.249  0.00  0.00    +0.383 N 
ATOM     25  H   UNL     1       1.118  -6.322  -0.524  0.00  0.00    -0.081 HD
BRANCH  24  26
ATOM     26  C   UNL     1       1.279  -6.549   1.497  0.00  0.00    -0.075 C 
BRANCH  26  27
ATOM     27  C   UNL     1       2.471  -7.496   1.343  0.00  0.00    -0.034 C 
ATOM     28  C   UNL     1       3.408  -6.963   0.258  0.00  0.00    +0.005 C 
ATOM     29  C   UNL     1       3.226  -7.587   2.670  0.00  0.00    +0.005 C 
ENDBRANCH  26  27
ENDBRANCH  24  26
BRANCH  24  30
ATOM     30  C   UNL     1      -0.121  -7.841   0.040  0.00  0.00    -0.075 C 
BRANCH  30  31
ATOM     31  C   UNL     1      -0.332  -8.072  -1.458  0.00  0.00    -0.034 C 
ATOM     32  C   UNL     1      -0.881  -9.483  -1.684  0.00  0.00    +0.005 C 
ATOM     33  C   UNL     1      -1.329  -7.045  -1.997  0.00  0.00    +0.005 C 
ENDBRANCH  30  31
ENDBRANCH  24  30
ENDBRANCH  23  24
ENDBRANCH   5  23
TORSDOF 8
