REMARK  Name = ZINC02891971
REMARK  8 active torsions:
REMARK  status: ('A' for Active; 'I' for Inactive)
REMARK    1  A    between atoms: C_1  and  C_2
REMARK    2  A    between atoms: C_2  and  C_3
REMARK    3  A    between atoms: C_8  and  C_29
REMARK    4  A    between atoms: C_9  and  C_28
REMARK    5  A    between atoms: C_12  and  C_15
REMARK    6  A    between atoms: C_13  and  O_14
REMARK    7  A    between atoms: C_15  and  C_17
REMARK    8  A    between atoms: C_15  and  N_65
REMARK                            x       y       z     vdW  Elec       q    Type
REMARK                         _______ _______ _______ _____ _____    ______ ____
ROOT
ATOM      1  C   UNL     1      -1.201  -2.730  -3.238  0.00  0.00    -0.005 A 
ATOM      2  C   UNL     1      -2.175  -2.117  -3.972  0.00  0.00    +0.022 A 
ATOM      3  C   UNL     1      -2.887  -1.049  -3.424  0.00  0.00    +0.065 A 
ATOM      4  C   UNL     1      -3.946  -0.363  -4.186  0.00  0.00    +0.200 A 
ATOM      5  O   UNL     1      -4.237  -0.702  -5.320  0.00  0.00    -0.286 OA
ATOM      6  C   UNL     1      -4.646   0.739  -3.505  0.00  0.00    +0.067 A 
ATOM      7  C   UNL     1      -4.273   1.067  -2.241  0.00  0.00    +0.114 A 
ATOM      8  O   UNL     1      -3.302   0.421  -1.588  0.00  0.00    -0.459 OA
ATOM      9  C   UNL     1      -2.610  -0.606  -2.118  0.00  0.00    +0.144 A 
ATOM     10  C   UNL     1      -1.612  -1.237  -1.388  0.00  0.00    +0.028 A 
ATOM     11  C   UNL     1      -0.914  -2.295  -1.946  0.00  0.00    +0.125 A 
ATOM     12  C   UNL     1      -4.980   2.202  -1.548  0.00  0.00    +0.087 C 
ENDROOT
BRANCH   6  13
ATOM     13  C   UNL     1      -5.729   1.485  -4.191  0.00  0.00    -0.011 A 
ATOM     14  C   UNL     1      -7.035   1.424  -3.706  0.00  0.00    +0.011 A 
ATOM     15  C   UNL     1      -8.038   2.124  -4.343  0.00  0.00    +0.039 A 
ATOM     16  C   UNL     1      -7.752   2.877  -5.471  0.00  0.00    +0.123 A 
ATOM     17  C   UNL     1      -6.457   2.936  -5.959  0.00  0.00    +0.039 A 
ATOM     18  C   UNL     1      -5.446   2.244  -5.325  0.00  0.00    +0.011 A 
ATOM     19  F   UNL     1      -8.739   3.557  -6.095  0.00  0.00    -0.205 F 
ENDBRANCH   6  13
BRANCH   1  21
ATOM     20  C   UNL     1      -1.077  -5.202  -3.397  0.00  0.00    +0.009 C 
ATOM     21  C   UNL     1      -0.431  -3.884  -3.828  0.00  0.00    +0.035 C 
ENDBRANCH   1  21
BRANCH  11  22
ATOM     22  O   UNL     1       0.057  -2.914  -1.227  0.00  0.00    -0.506 OA
ATOM     23  H   UNL     1      -0.260  -3.658  -0.697  0.00  0.00    +0.292 HD
ENDBRANCH  11  22
BRANCH  10  24
ATOM     24  C   UNL     1      -1.293  -0.775   0.011  0.00  0.00    +0.000 C 
BRANCH  24  30
ATOM     25  C   UNL     1      -2.371  -2.773   0.850  0.00  0.00    -0.078 C 
ATOM     26  C   UNL     1      -2.145  -4.049   1.664  0.00  0.00    -0.019 C 
ATOM     27  C   UNL     1      -1.813  -3.674   3.111  0.00  0.00    -0.004 C 
ATOM     28  C   UNL     1      -0.578  -2.769   3.124  0.00  0.00    -0.019 C 
ATOM     29  C   UNL     1      -0.850  -1.530   2.268  0.00  0.00    -0.078 C 
ATOM     30  N   UNL     1      -1.139  -1.958   0.883  0.00  0.00    +0.387 N 
ATOM     31  H   UNL     1      -0.355  -2.525   0.539  0.00  0.00    -0.080 HD
ENDBRANCH  24  30
BRANCH  24  32
ATOM     32  C   UNL     1       0.002  -0.004   0.002  0.00  0.00    -0.056 A 
ATOM     33  C   UNL     1      -0.017   1.378   0.010  0.00  0.00    +0.002 A 
ATOM     34  C   UNL     1       1.171   2.086   0.002  0.00  0.00    +0.000 A 
ATOM     35  C   UNL     1       2.377   1.411  -0.015  0.00  0.00    +0.000 A 
ATOM     36  C   UNL     1       2.396   0.029  -0.021  0.00  0.00    +0.000 A 
ATOM     37  C   UNL     1       1.208  -0.679  -0.013  0.00  0.00    +0.002 A 
ENDBRANCH  24  32
ENDBRANCH  10  24
TORSDOF 6
