REMARK  Name = ZINC67405681
REMARK  10 active torsions:
REMARK  status: ('A' for Active; 'I' for Inactive)
REMARK    1  A    between atoms: C_1  and  C_2
REMARK    2  A    between atoms: C_2  and  C_4
REMARK    3  A    between atoms: C_2  and  N_12
REMARK    4  A    between atoms: C_4  and  C_5
REMARK    5  A    between atoms: N_15  and  C_16
REMARK    6  A    between atoms: C_16  and  C_18
REMARK    7  A    between atoms: C_16  and  C_19
REMARK    8  A    between atoms: C_23  and  S_25
REMARK    9  A    between atoms: S_25  and  N_28
REMARK   10  A    between atoms: N_28  and  C_29
REMARK                            x       y       z     vdW  Elec       q    Type
REMARK                         _______ _______ _______ _____ _____    ______ ____
ROOT
ATOM      1  N   UNL     1      -1.372  -0.511   0.012  0.00  0.00    -0.297 N 
ATOM      2  C   UNL     1      -2.029  -0.655   1.181  0.00  0.00    +0.300 C 
ATOM      3  O   UNL     1      -1.480  -0.364   2.226  0.00  0.00    -0.253 OA
ATOM      4  N   UNL     1      -3.293  -1.122   1.190  0.00  0.00    -0.293 N 
ATOM      5  H   UNL     1      -1.810  -0.743  -0.822  0.00  0.00    +0.151 HD
ATOM      6  H   UNL     1      -3.731  -1.354   0.356  0.00  0.00    +0.151 HD
ENDROOT
BRANCH   1   8
ATOM      7  C   UNL     1      -0.019   1.526   0.010  0.00  0.00    +0.028 C 
ATOM      8  C   UNL     1       0.002  -0.004   0.002  0.00  0.00    +0.076 C 
BRANCH   8   9
ATOM      9  C   UNL     1       0.718  -0.497  -1.257  0.00  0.00    +0.057 C 
BRANCH   9  10
ATOM     10  C   UNL     1       0.847  -1.998  -1.206  0.00  0.00    -0.045 A 
ATOM     11  C   UNL     1       1.958  -2.576  -0.620  0.00  0.00    +0.006 A 
ATOM     12  C   UNL     1       2.078  -3.952  -0.573  0.00  0.00    +0.038 A 
ATOM     13  C   UNL     1       1.084  -4.752  -1.111  0.00  0.00    +0.123 A 
ATOM     14  C   UNL     1      -0.029  -4.172  -1.697  0.00  0.00    +0.038 A 
ATOM     15  C   UNL     1      -0.148  -2.796  -1.739  0.00  0.00    +0.006 A 
ATOM     16  F   UNL     1       1.199  -6.097  -1.065  0.00  0.00    -0.205 F 
ENDBRANCH   9  10
ENDBRANCH   8   9
ENDBRANCH   1   8
BRANCH   4  17
ATOM     17  C   UNL     1      -4.006  -1.278   2.460  0.00  0.00    +0.102 C 
ATOM     18  C   UNL     1      -3.657  -2.634   3.078  0.00  0.00    +0.033 C 
BRANCH  17  19
ATOM     19  C   UNL     1      -5.492  -1.206   2.214  0.00  0.00    -0.026 A 
ATOM     20  C   UNL     1      -6.039  -1.820   1.103  0.00  0.00    +0.005 A 
ATOM     21  C   UNL     1      -7.401  -1.753   0.878  0.00  0.00    +0.002 A 
ATOM     22  C   UNL     1      -8.216  -1.073   1.764  0.00  0.00    +0.028 A 
ATOM     23  C   UNL     1      -7.669  -0.460   2.875  0.00  0.00    +0.106 A 
ATOM     24  C   UNL     1      -6.307  -0.530   3.103  0.00  0.00    +0.034 A 
BRANCH  23  25
ATOM     25  S   UNL     1      -8.707   0.408   4.004  0.00  0.00    +0.058 S 
ATOM     26  O   UNL     1      -7.882   1.354   4.669  0.00  0.00    -0.153 OA
ATOM     27  O   UNL     1      -9.869   0.786   3.278  0.00  0.00    -0.153 OA
BRANCH  25  28
ATOM     28  N   UNL     1      -9.200  -0.680   5.151  0.00  0.00    -0.193 NA
ATOM     29  C   UNL     1      -8.219  -1.285   6.056  0.00  0.00    +0.127 C 
ATOM     30  H   UNL     1     -10.137  -0.917   5.224  0.00  0.00    +0.148 HD
ENDBRANCH  25  28
ENDBRANCH  23  25
ENDBRANCH  17  19
ENDBRANCH   4  17
TORSDOF 7
