REMARK  Name = ZINC63383698
REMARK  7 active torsions:
REMARK  status: ('A' for Active; 'I' for Inactive)
REMARK    1  A    between atoms: C_1  and  C_2
REMARK    2  A    between atoms: C_2  and  C_3
REMARK    3  A    between atoms: C_3  and  N_4
REMARK    4  A    between atoms: C_5  and  C_7
REMARK    5  A    between atoms: C_7  and  C_9
REMARK    6  A    between atoms: C_7  and  N_10
REMARK    7  A    between atoms: C_11  and  C_13
REMARK                            x       y       z     vdW  Elec       q    Type
REMARK                         _______ _______ _______ _____ _____    ______ ____
ROOT
ATOM      1  C   UNL     1       2.459  -6.311  -5.234  0.00  0.00    +0.167 C 
ATOM      2  C   UNL     1       2.148  -5.366  -6.411  0.00  0.00    +0.065 C 
ATOM      3  C   UNL     1       0.754  -5.692  -6.887  0.00  0.00    -0.034 C 
ATOM      4  C   UNL     1      -0.304  -4.911  -7.077  0.00  0.00    -0.001 A 
ATOM      5  C   UNL     1      -0.472  -3.451  -6.984  0.00  0.00    +0.010 A 
ATOM      6  C   UNL     1      -1.722  -2.975  -7.229  0.00  0.00    +0.001 A 
ATOM      7  C   UNL     1      -2.807  -3.794  -7.554  0.00  0.00    +0.002 A 
ATOM      8  C   UNL     1      -2.742  -5.144  -7.669  0.00  0.00    +0.026 A 
ATOM      9  C   UNL     1      -1.478  -5.761  -7.441  0.00  0.00    +0.043 A 
ATOM     10  N   UNL     1      -1.130  -7.012  -7.503  0.00  0.00    -0.375 N 
ATOM     11  C   UNL     1       0.307  -7.106  -7.240  0.00  0.00    +0.131 C 
ATOM     12  C   UNL     1       0.602  -7.973  -6.011  0.00  0.00    +0.134 C 
ATOM     13  N   UNL     1       1.984  -7.659  -5.575  0.00  0.00    -0.276 N 
ATOM     14  C   UNL     1       2.708  -8.792  -5.565  0.00  0.00    +0.248 C 
ATOM     15  O   UNL     1       3.858  -8.880  -5.183  0.00  0.00    -0.270 OA
ATOM     16  C   UNL     1       1.909  -9.906  -6.081  0.00  0.00    +0.042 A 
ATOM     17  C   UNL     1       0.593  -9.424  -6.368  0.00  0.00    -0.013 A 
ATOM     18  C   UNL     1      -0.397 -10.239  -6.871  0.00  0.00    +0.006 A 
ATOM     19  C   UNL     1      -0.066 -11.573  -7.090  0.00  0.00    +0.000 A 
ATOM     20  C   UNL     1       1.195 -12.065  -6.816  0.00  0.00    +0.001 A 
ATOM     21  C   UNL     1       2.243 -11.245  -6.299  0.00  0.00    +0.013 A 
ATOM     22  H   UNL     1      -1.722  -7.757  -7.691  0.00  0.00    +0.160 HD
ENDROOT
BRANCH   1  24
ATOM     23  N   UNL     1       2.027  -4.602  -3.498  0.00  0.00    -0.303 N 
ATOM     24  C   UNL     1       1.753  -5.825  -3.994  0.00  0.00    +0.234 C 
ATOM     25  O   UNL     1       0.939  -6.535  -3.442  0.00  0.00    -0.274 OA
ATOM     26  H   UNL     1       2.678  -4.035  -3.940  0.00  0.00    +0.149 HD
BRANCH  23  27
ATOM     27  C   UNL     1       1.341  -4.130  -2.293  0.00  0.00    +0.156 C 
ATOM     28  C   UNL     1       2.082  -4.636  -1.054  0.00  0.00    +0.038 C 
BRANCH  27  30
ATOM     29  N   UNL     1       0.738  -1.962  -1.265  0.00  0.00    -0.314 N 
ATOM     30  C   UNL     1       1.321  -2.623  -2.285  0.00  0.00    +0.233 C 
ATOM     31  O   UNL     1       1.829  -2.004  -3.196  0.00  0.00    -0.274 OA
ATOM     32  H   UNL     1       0.332  -2.457  -0.536  0.00  0.00    +0.149 HD
BRANCH  29  33
ATOM     33  C   UNL     1       0.718  -0.497  -1.257  0.00  0.00    +0.104 C 
BRANCH  33  35
ATOM     34  C   UNL     1      -0.019   1.526   0.010  0.00  0.00    +0.005 C 
ATOM     35  C   UNL     1       0.002  -0.004   0.002  0.00  0.00    +0.015 C 
ENDBRANCH  33  35
ENDBRANCH  29  33
ENDBRANCH  27  30
ENDBRANCH  23  27
ENDBRANCH   1  24
TORSDOF 5
