REMARK  Name = ZINC14733572
REMARK  10 active torsions:
REMARK  status: ('A' for Active; 'I' for Inactive)
REMARK    1  A    between atoms: C_1  and  C_2
REMARK    2  A    between atoms: C_5  and  C_9
REMARK    3  A    between atoms: C_6  and  C_8
REMARK    4  A    between atoms: C_9  and  N_72
REMARK    5  A    between atoms: C_14  and  C_26
REMARK    6  A    between atoms: N_16  and  C_17
REMARK    7  A    between atoms: C_17  and  C_18
REMARK    8  A    between atoms: C_22  and  O_24
REMARK    9  A    between atoms: O_24  and  C_25
REMARK   10  A    between atoms: C_32  and  O_35
REMARK                            x       y       z     vdW  Elec       q    Type
REMARK                         _______ _______ _______ _____ _____    ______ ____
ROOT
ATOM      1  C   UNL     1      -0.337   5.317   3.665  0.00  0.00    -0.072 C 
ATOM      2  C   UNL     1      -0.087   4.707   2.278  0.00  0.00    +0.037 C 
ATOM      3  C   UNL     1      -0.949   3.476   2.153  0.00  0.00    +0.040 A 
ATOM      4  C   UNL     1      -1.538   2.876   3.220  0.00  0.00    -0.011 A 
ATOM      5  C   UNL     1      -2.257   1.789   2.700  0.00  0.00    +0.149 A 
ATOM      6  N   UNL     1      -2.067   1.799   1.391  0.00  0.00    -0.166 NA
ATOM      7  N   UNL     1      -1.303   2.785   1.061  0.00  0.00    -0.263 N 
ATOM      8  C   UNL     1      -1.385   3.349   4.638  0.00  0.00    -0.038 C 
ATOM      9  N   UNL     1      -0.210   4.256   4.689  0.00  0.00    +0.385 N 
ATOM     10  H   UNL     1       0.639   3.711   4.500  0.00  0.00    -0.081 HD
ENDROOT
BRANCH   5  11
ATOM     11  C   UNL     1      -3.069   0.822   3.466  0.00  0.00    +0.267 C 
ATOM     12  O   UNL     1      -3.249   0.988   4.657  0.00  0.00    -0.268 OA
ATOM     13  N   UNL     1      -3.610  -0.245   2.845  0.00  0.00    -0.294 N 
ATOM     14  C   UNL     1      -4.528  -1.142   3.561  0.00  0.00    +0.108 C 
ATOM     15  C   UNL     1      -4.021  -2.577   3.434  0.00  0.00    +0.021 C 
ATOM     16  C   UNL     1      -3.832  -2.921   1.954  0.00  0.00    +0.034 C 
ATOM     17  C   UNL     1      -2.790  -1.982   1.340  0.00  0.00    +0.132 C 
ATOM     18  C   UNL     1      -3.288  -0.537   1.442  0.00  0.00    +0.139 C 
BRANCH  17  19
ATOM     19  O   UNL     1      -2.591  -2.323  -0.033  0.00  0.00    -0.390 OA
ATOM     20  H   UNL     1      -1.944  -1.766  -0.487  0.00  0.00    +0.210 HD
ENDBRANCH  17  19
ENDBRANCH   5  11
BRANCH   9  21
ATOM     21  C   UNL     1      -0.101   4.863   6.032  0.00  0.00    -0.042 C 
BRANCH  21  26
ATOM     22  C   UNL     1       4.306   8.601   6.049  0.00  0.00    +0.044 C 
ATOM     23  C   UNL     1       3.157   7.627   6.044  0.00  0.00    -0.050 A 
ATOM     24  C   UNL     1       1.863   8.084   5.876  0.00  0.00    +0.003 A 
ATOM     25  C   UNL     1       0.809   7.190   5.872  0.00  0.00    +0.002 A 
ATOM     26  C   UNL     1       1.049   5.838   6.036  0.00  0.00    -0.061 A 
ATOM     27  C   UNL     1       2.342   5.381   6.209  0.00  0.00    -0.049 A 
ATOM     28  C   UNL     1       3.396   6.275   6.208  0.00  0.00    +0.007 A 
ATOM     29  C   UNL     1       2.602   3.909   6.394  0.00  0.00    +0.044 C 
ENDBRANCH  21  26
ENDBRANCH   9  21
BRANCH   7  30
ATOM     30  C   UNL     1      -0.881   3.099  -0.306  0.00  0.00    +0.179 C 
BRANCH  30  31
ATOM     31  C   UNL     1      -1.878   4.037  -0.937  0.00  0.00    -0.023 A 
ATOM     32  C   UNL     1      -2.956   3.529  -1.639  0.00  0.00    +0.005 A 
ATOM     33  C   UNL     1      -3.875   4.387  -2.214  0.00  0.00    +0.004 A 
ATOM     34  C   UNL     1      -3.712   5.754  -2.098  0.00  0.00    +0.045 A 
ATOM     35  C   UNL     1      -2.628   6.266  -1.399  0.00  0.00    +0.120 A 
ATOM     36  C   UNL     1      -1.710   5.402  -0.818  0.00  0.00    +0.051 A 
BRANCH  35  37
ATOM     37  O   UNL     1      -2.466   7.610  -1.284  0.00  0.00    -0.495 OA
ATOM     38  C   UNL     1      -3.450   8.438  -1.907  0.00  0.00    +0.277 C 
ENDBRANCH  35  37
ENDBRANCH  30  31
ENDBRANCH   7  30
TORSDOF 7
