REMARK  Name = ZINC67057276
REMARK  9 active torsions:
REMARK  status: ('A' for Active; 'I' for Inactive)
REMARK    1  A    between atoms: C_1  and  C_2
REMARK    2  A    between atoms: N_4  and  C_5
REMARK    3  A    between atoms: C_5  and  C_6
REMARK    4  A    between atoms: C_9  and  C_11
REMARK    5  A    between atoms: N_13  and  C_14
REMARK    6  A    between atoms: C_14  and  C_15
REMARK    7  A    between atoms: C_15  and  C_16
REMARK    8  A    between atoms: C_15  and  C_17
REMARK    9  A    between atoms: C_15  and  C_18
REMARK                            x       y       z     vdW  Elec       q    Type
REMARK                         _______ _______ _______ _____ _____    ______ ____
ROOT
ATOM      1  C   UNL     1      -1.025  -3.939  -6.325  0.00  0.00    +0.251 C 
ATOM      2  O   UNL     1      -0.282  -4.248  -7.239  0.00  0.00    -0.270 OA
ATOM      3  N   UNL     1      -2.360  -4.011  -6.489  0.00  0.00    -0.310 N 
ATOM      4  H   UNL     1      -2.952  -3.765  -5.761  0.00  0.00    +0.149 HD
ENDROOT
BRANCH   1   8
ATOM      5  C   UNL     1       0.013  -2.631  -2.600  0.00  0.00    +0.008 A 
ATOM      6  C   UNL     1       1.079  -2.895  -3.396  0.00  0.00    +0.013 A 
ATOM      7  C   UNL     1       0.862  -3.343  -4.676  0.00  0.00    +0.021 A 
ATOM      8  C   UNL     1      -0.466  -3.488  -5.047  0.00  0.00    +0.074 A 
ATOM      9  S   UNL     1      -1.317  -2.989  -3.562  0.00  0.00    -0.087 S 
BRANCH   5  10
ATOM     10  C   UNL     1       0.020  -2.136  -1.177  0.00  0.00    +0.146 C 
BRANCH  10  14
ATOM     11  C   UNL     1      -0.018   1.503   0.010  0.00  0.00    +0.109 C 
ATOM     12  C   UNL     1       0.002  -0.004   0.002  0.00  0.00    +0.210 C 
ATOM     13  O   UNL     1       0.020  -0.616   1.049  0.00  0.00    -0.276 OA
ATOM     14  N   UNL     1       0.000  -0.672  -1.169  0.00  0.00    -0.311 N 
ATOM     15  H   UNL     1      -0.015  -0.182  -2.006  0.00  0.00    +0.149 HD
ENDBRANCH  10  14
ENDBRANCH   5  10
ENDBRANCH   1   8
BRANCH   3  16
ATOM     16  C   UNL     1      -2.919  -4.462  -7.766  0.00  0.00    +0.115 C 
BRANCH  16  17
ATOM     17  C   UNL     1      -4.447  -4.452  -7.686  0.00  0.00    +0.006 C 
ATOM     18  C   UNL     1      -4.905  -5.391  -6.569  0.00  0.00    +0.017 C 
ATOM     19  C   UNL     1      -4.933  -3.032  -7.390  0.00  0.00    +0.017 C 
BRANCH  17  20
ATOM     20  C   UNL     1      -5.021  -4.915  -9.000  0.00  0.00    -0.040 A 
ATOM     21  C   UNL     1      -4.178  -5.272 -10.036  0.00  0.00    +0.005 A 
ATOM     22  C   UNL     1      -4.704  -5.697 -11.241  0.00  0.00    +0.020 A 
ATOM     23  C   UNL     1      -6.075  -5.766 -11.411  0.00  0.00    +0.041 A 
ATOM     24  C   UNL     1      -6.919  -5.409 -10.374  0.00  0.00    +0.020 A 
ATOM     25  C   UNL     1      -6.391  -4.990  -9.167  0.00  0.00    +0.005 A 
ATOM     26 CL   UNL     1      -6.737  -6.300 -12.925  0.00  0.00    -0.084 Cl
ENDBRANCH  17  20
ENDBRANCH  16  17
ENDBRANCH   3  16
TORSDOF 6
