REMARK  Name = ZINC65394861
REMARK  9 active torsions:
REMARK  status: ('A' for Active; 'I' for Inactive)
REMARK    1  A    between atoms: C_1  and  C_2
REMARK    2  A    between atoms: C_2  and  C_3
REMARK    3  A    between atoms: C_2  and  C_4
REMARK    4  A    between atoms: C_6  and  C_9
REMARK    5  A    between atoms: N_14  and  C_15
REMARK    6  A    between atoms: C_15  and  C_16
REMARK    7  A    between atoms: C_22  and  C_24
REMARK    8  A    between atoms: C_24  and  O_25
REMARK    9  A    between atoms: O_25  and  C_26
REMARK                            x       y       z     vdW  Elec       q    Type
REMARK                         _______ _______ _______ _____ _____    ______ ____
ROOT
ATOM      1  C   UNL     1      -4.294  -2.409  -1.306  0.00  0.00    -0.015 C 
ATOM      2  C   UNL     1      -4.173  -3.898  -0.895  0.00  0.00    -0.011 C 
ATOM      3  C   UNL     1      -5.584  -4.436  -1.249  0.00  0.00    -0.020 C 
ATOM      4  C   UNL     1      -6.506  -3.246  -0.911  0.00  0.00    -0.077 C 
ATOM      5  N   UNL     1      -5.676  -2.026  -0.944  0.00  0.00    +0.391 N 
ATOM      6  H   UNL     1      -5.679  -1.589  -0.035  0.00  0.00    -0.080 HD
ENDROOT
BRANCH   1   9
ATOM      7  C   UNL     1      -1.412  -0.526   0.013  0.00  0.00    +0.140 A 
ATOM      8  C   UNL     1      -1.973  -1.310  -0.927  0.00  0.00    +0.069 A 
ATOM      9  C   UNL     1      -3.301  -1.572  -0.543  0.00  0.00    +0.070 A 
ATOM     10  N   UNL     1      -3.521  -0.963   0.588  0.00  0.00    -0.085 NA
ATOM     11  O   UNL     1      -2.330  -0.295   0.963  0.00  0.00    -0.359 OA
BRANCH   7  13
ATOM     12  C   UNL     1      -0.019   1.526   0.010  0.00  0.00    +0.015 C 
ATOM     13  C   UNL     1       0.002  -0.004   0.002  0.00  0.00    +0.052 C 
ATOM     14  C   UNL     1       0.742  -0.511   1.242  0.00  0.00    +0.015 C 
ENDBRANCH   7  13
ENDBRANCH   1   9
BRANCH   5  15
ATOM     15  C   UNL     1      -6.207  -1.090  -1.943  0.00  0.00    +0.020 C 
BRANCH  15  16
ATOM     16  C   UNL     1      -7.566  -0.608  -1.507  0.00  0.00    +0.202 C 
ATOM     17  O   UNL     1      -8.045  -1.005  -0.466  0.00  0.00    -0.277 OA
ATOM     18  N   UNL     1      -8.250   0.265  -2.274  0.00  0.00    -0.265 N 
ATOM     19  C   UNL     1      -9.505   0.710  -1.871  0.00  0.00    +0.188 A 
ATOM     20  N   UNL     1     -10.186   0.405  -0.784  0.00  0.00    -0.126 NA
ATOM     21  N   UNL     1     -11.327   0.895  -0.552  0.00  0.00    -0.142 NA
ATOM     22  C   UNL     1     -11.853   1.735  -1.421  0.00  0.00    +0.129 A 
ATOM     23  S   UNL     1     -10.548   1.787  -2.641  0.00  0.00    -0.033 S 
ATOM     24  H   UNL     1      -7.867   0.583  -3.106  0.00  0.00    +0.157 HD
BRANCH  22  25
ATOM     25  C   UNL     1     -13.177   2.454  -1.390  0.00  0.00    +0.224 C 
BRANCH  25  26
ATOM     26  O   UNL     1     -13.021   3.712  -0.732  0.00  0.00    -0.376 OA
ATOM     27  C   UNL     1     -14.225   4.478  -0.648  0.00  0.00    +0.194 C 
ENDBRANCH  25  26
ENDBRANCH  22  25
ENDBRANCH  15  16
ENDBRANCH   5  15
TORSDOF 6
