REMARK  Name = ZINC10038478
REMARK  8 active torsions:
REMARK  status: ('A' for Active; 'I' for Inactive)
REMARK    1  A    between atoms: C_1  and  C_2
REMARK    2  A    between atoms: C_2  and  O_3
REMARK    3  A    between atoms: O_3  and  C_4
REMARK    4  A    between atoms: C_4  and  C_6
REMARK    5  A    between atoms: C_10  and  N_11
REMARK    6  A    between atoms: C_12  and  C_14
REMARK    7  A    between atoms: C_21  and  C_23
REMARK    8  A    between atoms: C_27  and  N_29
REMARK                            x       y       z     vdW  Elec       q    Type
REMARK                         _______ _______ _______ _____ _____    ______ ____
ROOT
ATOM      1  N   UNL     1      -1.589   6.365  -2.872  0.00  0.00    -0.279 N 
ATOM      2  C   UNL     1      -1.733   7.632  -2.436  0.00  0.00    +0.222 C 
ATOM      3  O   UNL     1      -1.613   7.885  -1.256  0.00  0.00    -0.275 OA
ATOM      4  H   UNL     1      -1.685   6.163  -3.815  0.00  0.00    +0.155 HD
ENDROOT
BRANCH   1   9
ATOM      5  C   UNL     1      -1.120   3.998  -2.225  0.00  0.00    +0.091 A 
ATOM      6  C   UNL     1      -0.827   3.136  -1.092  0.00  0.00    -0.021 A 
ATOM      7  C   UNL     1      -0.764   3.760   0.104  0.00  0.00    -0.004 A 
ATOM      8  S   UNL     1      -1.086   5.463  -0.256  0.00  0.00    -0.077 S 
ATOM      9  C   UNL     1      -1.302   5.351  -1.971  0.00  0.00    +0.086 A 
ATOM     10  C   UNL     1      -0.483   3.135   1.436  0.00  0.00    +0.043 C 
ATOM     11  C   UNL     1      -0.648   1.614   1.299  0.00  0.00    +0.005 C 
ATOM     12  C   UNL     1       0.114   1.146   0.055  0.00  0.00    +0.005 C 
ATOM     13  C   UNL     1      -0.602   1.633  -1.206  0.00  0.00    +0.037 C 
BRANCH   5  14
ATOM     14  C   UNL     1      -1.219   3.459  -3.583  0.00  0.00    +0.342 C 
ATOM     15  O   UNL     1      -2.291   3.070  -4.006  0.00  0.00    -0.245 OA
BRANCH  14  16
ATOM     16  O   UNL     1      -0.122   3.395  -4.365  0.00  0.00    -0.461 OA
BRANCH  16  18
ATOM     17  C   UNL     1       1.050   2.857  -6.431  0.00  0.00    +0.048 C 
ATOM     18  C   UNL     1      -0.294   2.850  -5.699  0.00  0.00    +0.229 C 
ENDBRANCH  16  18
ENDBRANCH  14  16
ENDBRANCH   5  14
ENDBRANCH   1   9
BRANCH   2  19
ATOM     19  C   UNL     1      -2.044   8.735  -3.415  0.00  0.00    +0.090 C 
ATOM     20  C   UNL     1      -1.045   9.923  -3.239  0.00  0.00    +0.024 C 
ATOM     21  C   UNL     1      -1.917  11.109  -3.798  0.00  0.00    +0.016 C 
ATOM     22  C   UNL     1      -3.088  10.854  -2.780  0.00  0.00    +0.020 C 
ATOM     23  C   UNL     1      -3.425   9.364  -3.106  0.00  0.00    +0.038 C 
ATOM     24  C   UNL     1      -2.287  10.778  -1.474  0.00  0.00    -0.027 C 
ATOM     25  C   UNL     1      -1.105  10.242  -1.740  0.00  0.00    -0.027 C 
BRANCH  23  26
ATOM     26  C   UNL     1      -4.059   8.691  -1.915  0.00  0.00    -0.041 A 
ATOM     27  C   UNL     1      -4.249   7.322  -1.915  0.00  0.00    +0.004 A 
ATOM     28  C   UNL     1      -4.826   6.704  -0.821  0.00  0.00    +0.002 A 
ATOM     29  C   UNL     1      -5.222   7.458   0.268  0.00  0.00    +0.033 A 
ATOM     30  C   UNL     1      -5.037   8.827   0.266  0.00  0.00    +0.126 A 
ATOM     31  C   UNL     1      -4.455   9.444  -0.827  0.00  0.00    +0.036 A 
BRANCH  30  32
ATOM     32  N   UNL     1      -5.461   9.634   1.432  0.00  0.00    +0.056 N 
ATOM     33  O   UNL     1      -5.298  10.841   1.430  0.00  0.00    -0.126 OA
ATOM     34  O   UNL     1      -5.974   9.090   2.394  0.00  0.00    -0.126 OA
ENDBRANCH  30  32
ENDBRANCH  23  26
ENDBRANCH   2  19
TORSDOF 7
