REMARK  Name = ZINC17526281
REMARK  6 active torsions:
REMARK  status: ('A' for Active; 'I' for Inactive)
REMARK    1  A    between atoms: C_1  and  C_2
REMARK    2  A    between atoms: N_11  and  C_15
REMARK    3  A    between atoms: C_15  and  C_16
REMARK    4  A    between atoms: N_18  and  N_19
REMARK    5  A    between atoms: C_20  and  C_22
REMARK    6  A    between atoms: C_27  and  O_28
REMARK                            x       y       z     vdW  Elec       q    Type
REMARK                         _______ _______ _______ _____ _____    ______ ____
ROOT
ATOM      1  C   UNL     1      -2.950   1.351   1.441  0.00  0.00    +0.247 C 
ATOM      2  O   UNL     1      -2.203   1.606   2.362  0.00  0.00    -0.273 OA
ATOM      3  N   UNL     1      -4.200   0.911   1.689  0.00  0.00    -0.233 N 
ATOM      4  H   UNL     1      -4.797   0.707   0.953  0.00  0.00    +0.173 HD
ENDROOT
BRANCH   3   5
ATOM      5  N   UNL     1      -4.636   0.749   3.011  0.00  0.00    -0.230 N 
ATOM      6  C   UNL     1      -5.885   0.308   3.259  0.00  0.00    +0.264 C 
ATOM      7  O   UNL     1      -6.634   0.052   2.336  0.00  0.00    -0.269 OA
ATOM      8  H   UNL     1      -4.038   0.953   3.747  0.00  0.00    +0.173 HD
BRANCH   6   9
ATOM      9  C   UNL     1      -6.344   0.138   4.651  0.00  0.00    +0.079 A 
ATOM     10  C   UNL     1      -5.485   0.425   5.714  0.00  0.00    +0.017 A 
ATOM     11  C   UNL     1      -5.921   0.267   7.012  0.00  0.00    +0.001 A 
ATOM     12  C   UNL     1      -7.206  -0.184   7.268  0.00  0.00    +0.004 A 
ATOM     13  C   UNL     1      -8.063  -0.477   6.226  0.00  0.00    +0.046 A 
ATOM     14  C   UNL     1      -7.643  -0.320   4.914  0.00  0.00    +0.129 A 
BRANCH  14  15
ATOM     15  O   UNL     1      -8.484  -0.607   3.889  0.00  0.00    -0.506 OA
ATOM     16  H   UNL     1      -8.436  -1.524   3.586  0.00  0.00    +0.292 HD
ENDBRANCH  14  15
ENDBRANCH   6   9
ENDBRANCH   3   5
BRANCH   1  17
ATOM     17  C   UNL     1      -2.482   1.526   0.020  0.00  0.00    +0.215 C 
BRANCH  17  27
ATOM     18  C   UNL     1       1.115   2.130  -2.491  0.00  0.00    +0.010 C 
ATOM     19  C   UNL     1       2.005   1.934  -1.261  0.00  0.00    +0.018 C 
ATOM     20  C   UNL     1       2.582   0.517  -1.270  0.00  0.00    +0.006 C 
ATOM     21  C   UNL     1       3.455   0.315  -0.029  0.00  0.00    +0.000 C 
ATOM     22  C   UNL     1       2.606   0.503   1.230  0.00  0.00    +0.003 C 
ATOM     23  C   UNL     1       2.028   1.921   1.248  0.00  0.00    +0.035 C 
ATOM     24  C   UNL     1       1.176   2.139   0.002  0.00  0.00    +0.115 C 
ATOM     25  C   UNL     1      -0.014   1.208   0.009  0.00  0.00    +0.247 C 
ATOM     26  O   UNL     1       0.002  -0.004   0.002  0.00  0.00    -0.273 OA
ATOM     27  N   UNL     1      -1.099   2.010   0.017  0.00  0.00    -0.215 N 
ATOM     28  C   UNL     1      -0.755   3.304   0.027  0.00  0.00    +0.310 C 
ATOM     29  O   UNL     1      -1.558   4.216   0.039  0.00  0.00    -0.252 OA
ATOM     30  N   UNL     1       0.580   3.481   0.015  0.00  0.00    -0.285 N 
ATOM     31  H   UNL     1       1.053   4.327   0.016  0.00  0.00    +0.151 HD
ENDBRANCH  17  27
ENDBRANCH   1  17
TORSDOF 5
