REMARK  Name = ZINC14531478
REMARK  11 active torsions:
REMARK  status: ('A' for Active; 'I' for Inactive)
REMARK    1  A    between atoms: C_1  and  C_2
REMARK    2  A    between atoms: C_2  and  O_3
REMARK    3  A    between atoms: O_3  and  C_4
REMARK    4  A    between atoms: C_4  and  C_6
REMARK    5  A    between atoms: N_9  and  C_11
REMARK    6  A    between atoms: C_11  and  C_12
REMARK    7  A    between atoms: C_12  and  C_13
REMARK    8  A    between atoms: C_14  and  C_18
REMARK    9  A    between atoms: C_23  and  C_25
REMARK   10  A    between atoms: C_25  and  S_26
REMARK   11  A    between atoms: S_26  and  C_27
REMARK                            x       y       z     vdW  Elec       q    Type
REMARK                         _______ _______ _______ _____ _____    ______ ____
ROOT
ATOM      1  C   UNL     1       1.281   1.063  -4.099  0.00  0.00    +0.174 A 
ATOM      2  C   UNL     1       0.505  -0.107  -4.134  0.00  0.00    +0.025 A 
ATOM      3  C   UNL     1      -0.330  -0.036  -3.069  0.00  0.00    +0.046 A 
ATOM      4  N   UNL     1      -0.067   1.120  -2.437  0.00  0.00    -0.267 N 
ATOM      5  N   UNL     1       0.873   1.755  -3.048  0.00  0.00    -0.164 NA
ATOM      6  C   UNL     1      -1.342  -1.095  -2.713  0.00  0.00    +0.074 C 
ATOM      7  C   UNL     1      -1.582  -1.982  -3.941  0.00  0.00    +0.114 C 
ATOM      8  N   UNL     1      -0.289  -2.331  -4.549  0.00  0.00    -0.296 N 
ATOM      9  C   UNL     1       0.533  -1.246  -5.118  0.00  0.00    +0.147 C 
ATOM     10  C   UNL     1       0.134  -3.610  -4.587  0.00  0.00    +0.226 C 
ATOM     11  O   UNL     1       1.202  -3.881  -5.093  0.00  0.00    -0.275 OA
ENDROOT
BRANCH   1  12
ATOM     12  C   UNL     1       2.341   1.448  -5.051  0.00  0.00    +0.360 C 
ATOM     13  O   UNL     1       2.616   0.718  -5.981  0.00  0.00    -0.243 OA
BRANCH  12  14
ATOM     14  O   UNL     1       3.004   2.609  -4.887  0.00  0.00    -0.460 OA
BRANCH  14  16
ATOM     15  C   UNL     1       4.671   4.270  -5.514  0.00  0.00    +0.048 C 
ATOM     16  C   UNL     1       4.034   2.923  -5.861  0.00  0.00    +0.229 C 
ENDBRANCH  14  16
ENDBRANCH  12  14
ENDBRANCH   1  12
BRANCH   4  17
ATOM     17  C   UNL     1      -0.753   1.593  -1.232  0.00  0.00    +0.149 C 
BRANCH  17  18
ATOM     18  C   UNL     1      -0.013   1.086   0.008  0.00  0.00    +0.067 C 
BRANCH  18  19
ATOM     19  C   UNL     1      -0.718   1.572   1.248  0.00  0.00    +0.014 A 
ATOM     20  C   UNL     1      -1.715   0.991   1.962  0.00  0.00    +0.049 A 
ATOM     21  N   UNL     1      -2.173   1.620   3.024  0.00  0.00    -0.252 NA
ATOM     22  C   UNL     1      -1.687   2.782   3.395  0.00  0.00    +0.156 A 
ATOM     23  S   UNL     1      -0.469   3.070   2.190  0.00  0.00    -0.080 S 
ATOM     24  C   UNL     1      -2.284  -0.343   1.551  0.00  0.00    +0.066 C 
ENDBRANCH  18  19
ENDBRANCH  17  18
ENDBRANCH   4  17
BRANCH  10  25
ATOM     25  C   UNL     1      -0.721  -4.704  -4.000  0.00  0.00    +0.173 C 
BRANCH  25  26
ATOM     26  S   UNL     1       0.114  -6.297  -4.203  0.00  0.00    -0.077 S 
BRANCH  26  27
ATOM     27  C   UNL     1      -1.072  -7.362  -3.452  0.00  0.00    +0.189 A 
ATOM     28  N   UNL     1      -2.184  -6.842  -2.953  0.00  0.00    -0.230 NA
ATOM     29  C   UNL     1      -3.097  -7.614  -2.387  0.00  0.00    +0.115 A 
ATOM     30  C   UNL     1      -2.874  -8.980  -2.311  0.00  0.00    +0.039 A 
ATOM     31  C   UNL     1      -1.698  -9.490  -2.838  0.00  0.00    +0.115 A 
ATOM     32  N   UNL     1      -0.828  -8.664  -3.395  0.00  0.00    -0.230 NA
ENDBRANCH  26  27
ENDBRANCH  25  26
ENDBRANCH  10  25
TORSDOF 9
