REMARK  Name = ZINC35031517
REMARK  12 active torsions:
REMARK  status: ('A' for Active; 'I' for Inactive)
REMARK    1  A    between atoms: C_1  and  C_2
REMARK    2  A    between atoms: C_5  and  O_12
REMARK    3  A    between atoms: C_8  and  C_10
REMARK    4  A    between atoms: C_8  and  C_11
REMARK    5  A    between atoms: O_12  and  C_13
REMARK    6  A    between atoms: C_13  and  C_14
REMARK    7  A    between atoms: C_14  and  C_16
REMARK    8  A    between atoms: C_14  and  O_36
REMARK    9  A    between atoms: C_16  and  N_17
REMARK   10  A    between atoms: N_20  and  C_23
REMARK   11  A    between atoms: C_23  and  C_24
REMARK   12  A    between atoms: C_23  and  C_30
REMARK                            x       y       z     vdW  Elec       q    Type
REMARK                         _______ _______ _______ _____ _____    ______ ____
ROOT
ATOM      1  N   UNL     1      -6.790  -3.763  -2.406  0.00  0.00    -0.303 NA
ATOM      2  C   UNL     1      -7.567  -2.712  -1.735  0.00  0.00    +0.066 C 
ATOM      3  C   UNL     1      -9.013  -3.183  -1.560  0.00  0.00    -0.062 C 
ATOM      4  N   UNL     1      -9.593  -3.481  -2.876  0.00  0.00    +0.389 N 
ATOM      5  C   UNL     1      -8.821  -4.550  -3.523  0.00  0.00    -0.062 C 
ATOM      6  C   UNL     1      -7.374  -4.090  -3.715  0.00  0.00    +0.066 C 
ATOM      7  H   UNL     1      -9.567  -2.652  -3.451  0.00  0.00    -0.080 HD
ENDROOT
BRANCH   1   8
ATOM      8  C   UNL     1      -5.381  -3.371  -2.542  0.00  0.00    +0.117 C 
BRANCH   8   9
ATOM      9  C   UNL     1      -4.741  -3.281  -1.155  0.00  0.00    +0.154 C 
BRANCH   9  10
ATOM     10  O   UNL     1      -4.716  -4.579  -0.557  0.00  0.00    -0.388 OA
ATOM     11  H   UNL     1      -4.214  -5.234  -1.061  0.00  0.00    +0.210 HD
ENDBRANCH   9  10
BRANCH   9  12
ATOM     12  C   UNL     1      -3.311  -2.752  -1.287  0.00  0.00    +0.192 C 
BRANCH  12  13
ATOM     13  O   UNL     1      -2.753  -2.558   0.015  0.00  0.00    -0.374 OA
BRANCH  13  17
ATOM     14  C   UNL     1      -0.019   1.526   0.010  0.00  0.00    +0.007 C 
ATOM     15  C   UNL     1       0.002  -0.004   0.002  0.00  0.00    -0.011 C 
ATOM     16  C   UNL     1      -1.433  -0.534   0.013  0.00  0.00    +0.035 C 
ATOM     17  C   UNL     1      -1.413  -2.063   0.004  0.00  0.00    +0.119 C 
ATOM     18  C   UNL     1      -0.673  -2.570   1.244  0.00  0.00    +0.038 C 
ATOM     19  C   UNL     1       0.763  -2.041   1.233  0.00  0.00    -0.032 C 
ATOM     20  C   UNL     1       0.742  -0.511   1.242  0.00  0.00    +0.009 C 
ATOM     21  C   UNL     1       1.479  -2.534  -0.026  0.00  0.00    +0.011 C 
ATOM     22  C   UNL     1       1.503  -2.548   2.473  0.00  0.00    +0.011 C 
ENDBRANCH  13  17
ENDBRANCH  12  13
ENDBRANCH   9  12
ENDBRANCH   8   9
ENDBRANCH   1   8
BRANCH   4  23
ATOM     23  C   UNL     1     -10.986  -3.917  -2.709  0.00  0.00    -0.007 C 
BRANCH  23  24
ATOM     24  C   UNL     1     -11.780  -2.820  -2.047  0.00  0.00    -0.057 A 
ATOM     25  C   UNL     1     -11.569  -1.501  -2.406  0.00  0.00    +0.002 A 
ATOM     26  C   UNL     1     -12.297  -0.495  -1.799  0.00  0.00    +0.000 A 
ATOM     27  C   UNL     1     -13.235  -0.807  -0.832  0.00  0.00    +0.000 A 
ATOM     28  C   UNL     1     -13.446  -2.125  -0.474  0.00  0.00    +0.000 A 
ATOM     29  C   UNL     1     -12.721  -3.132  -1.085  0.00  0.00    +0.002 A 
ENDBRANCH  23  24
BRANCH  23  30
ATOM     30  C   UNL     1     -11.582  -4.223  -4.059  0.00  0.00    -0.057 A 
ATOM     31  C   UNL     1     -11.292  -3.414  -5.142  0.00  0.00    +0.002 A 
ATOM     32  C   UNL     1     -11.839  -3.694  -6.380  0.00  0.00    +0.000 A 
ATOM     33  C   UNL     1     -12.675  -4.784  -6.536  0.00  0.00    +0.000 A 
ATOM     34  C   UNL     1     -12.964  -5.593  -5.453  0.00  0.00    +0.000 A 
ATOM     35  C   UNL     1     -12.414  -5.315  -4.216  0.00  0.00    +0.002 A 
ENDBRANCH  23  30
ENDBRANCH   4  23
TORSDOF 9
