REMARK  Name = ZINC63809896
REMARK  8 active torsions:
REMARK  status: ('A' for Active; 'I' for Inactive)
REMARK    1  A    between atoms: C_1  and  C_2
REMARK    2  A    between atoms: C_5  and  C_8
REMARK    3  A    between atoms: C_9  and  C_19
REMARK    4  A    between atoms: C_11  and  C_13
REMARK    5  A    between atoms: C_19  and  C_20
REMARK    6  A    between atoms: N_22  and  C_23
REMARK    7  A    between atoms: N_22  and  C_24
REMARK    8  A    between atoms: C_24  and  C_25
REMARK                            x       y       z     vdW  Elec       q    Type
REMARK                         _______ _______ _______ _____ _____    ______ ____
ROOT
ATOM      1  C   UNL     1      -0.001  -4.253  -0.015  0.00  0.00    +0.043 A 
ATOM      2  C   UNL     1       0.163  -5.133   1.026  0.00  0.00    +0.066 A 
ATOM      3  N   UNL     1       0.217  -6.418   0.784  0.00  0.00    -0.243 NA
ATOM      4  C   UNL     1       0.117  -6.894  -0.450  0.00  0.00    +0.109 A 
ATOM      5  S   UNL     1      -0.083  -5.389  -1.395  0.00  0.00    -0.067 S 
ENDROOT
BRANCH   1  10
ATOM      6  C   UNL     1      -0.351   1.490   0.041  0.00  0.00    +0.044 C 
ATOM      7  C   UNL     1      -0.259  -0.014   0.026  0.00  0.00    -0.050 A 
ATOM      8  C   UNL     1       0.767  -0.648   0.704  0.00  0.00    +0.004 A 
ATOM      9  C   UNL     1       0.857  -2.025   0.695  0.00  0.00    +0.009 A 
ATOM     10  C   UNL     1      -0.091  -2.778  -0.001  0.00  0.00    -0.009 A 
ATOM     11  C   UNL     1      -1.124  -2.132  -0.682  0.00  0.00    +0.009 A 
ATOM     12  C   UNL     1      -1.205  -0.755  -0.660  0.00  0.00    +0.004 A 
ENDBRANCH   1  10
BRANCH   4  13
ATOM     13  C   UNL     1       0.154  -8.295  -0.919  0.00  0.00    +0.007 A 
ATOM     14  C   UNL     1       0.310  -9.337  -0.003  0.00  0.00    +0.010 A 
ATOM     15  C   UNL     1       0.344 -10.643  -0.447  0.00  0.00    +0.001 A 
ATOM     16  C   UNL     1       0.224 -10.921  -1.797  0.00  0.00    +0.000 A 
ATOM     17  C   UNL     1       0.070  -9.893  -2.710  0.00  0.00    +0.001 A 
ATOM     18  C   UNL     1       0.029  -8.583  -2.279  0.00  0.00    +0.010 A 
ENDBRANCH   4  13
BRANCH   2  19
ATOM     19  C   UNL     1       0.281  -4.622   2.439  0.00  0.00    +0.152 C 
BRANCH  19  20
ATOM     20  C   UNL     1      -1.084  -4.586   3.076  0.00  0.00    +0.222 C 
ATOM     21  O   UNL     1      -2.057  -4.941   2.445  0.00  0.00    -0.275 OA
ATOM     22  N   UNL     1      -1.224  -4.161   4.347  0.00  0.00    -0.295 N 
ATOM     23  C   UNL     1      -0.049  -3.732   5.110  0.00  0.00    +0.132 C 
BRANCH  22  24
ATOM     24  C   UNL     1      -2.552  -4.126   4.966  0.00  0.00    +0.202 C 
BRANCH  24  25
ATOM     25  C   UNL     1      -2.824  -5.444   5.644  0.00  0.00    +0.228 C 
ATOM     26  O   UNL     1      -1.992  -6.325   5.613  0.00  0.00    -0.274 OA
ATOM     27  N   UNL     1      -3.993  -5.643   6.285  0.00  0.00    -0.328 N 
ATOM     28  H   UNL     1      -4.659  -4.938   6.309  0.00  0.00    +0.145 HD
ATOM     29  H   UNL     1      -4.169  -6.492   6.721  0.00  0.00    +0.145 HD
ENDBRANCH  24  25
ENDBRANCH  22  24
ENDBRANCH  19  20
ENDBRANCH   2  19
TORSDOF 6
