REMARK  Name = ZINC01297418
REMARK  9 active torsions:
REMARK  status: ('A' for Active; 'I' for Inactive)
REMARK    1  A    between atoms: C_1  and  C_2
REMARK    2  A    between atoms: C_2  and  O_3
REMARK    3  A    between atoms: O_3  and  C_4
REMARK    4  A    between atoms: C_4  and  C_6
REMARK    5  A    between atoms: C_7  and  C_25
REMARK    6  A    between atoms: C_9  and  N_24
REMARK    7  A    between atoms: C_10  and  C_22
REMARK    8  A    between atoms: C_11  and  C_13
REMARK    9  A    between atoms: C_16  and  N_19
REMARK                            x       y       z     vdW  Elec       q    Type
REMARK                         _______ _______ _______ _____ _____    ______ ____
ROOT
ATOM      1  C   UNL     1       1.213   1.929  -0.116  0.00  0.00    +0.088 C 
ATOM      2  C   UNL     1       2.363   1.276   0.093  0.00  0.00    +0.133 C 
ATOM      3  O   UNL     1       3.538   1.913   0.204  0.00  0.00    -0.444 OA
ATOM      4  C   UNL     1       3.653   3.172  -0.253  0.00  0.00    +0.198 C 
ATOM      5  C   UNL     1       2.568   3.951  -0.480  0.00  0.00    +0.098 C 
ATOM      6  C   UNL     1       1.179   3.429  -0.227  0.00  0.00    +0.105 C 
ENDROOT
BRANCH   6   7
ATOM      7  C   UNL     1       0.649   4.015   1.055  0.00  0.00    -0.034 A 
ATOM      8  C   UNL     1       1.307   3.778   2.248  0.00  0.00    +0.007 A 
ATOM      9  C   UNL     1       0.823   4.320   3.424  0.00  0.00    +0.033 A 
ATOM     10  C   UNL     1      -0.325   5.090   3.409  0.00  0.00    +0.126 A 
ATOM     11  C   UNL     1      -0.986   5.323   2.217  0.00  0.00    +0.033 A 
ATOM     12  C   UNL     1      -0.499   4.785   1.041  0.00  0.00    +0.007 A 
BRANCH  10  13
ATOM     13  N   UNL     1      -0.847   5.665   4.669  0.00  0.00    +0.056 N 
ATOM     14  O   UNL     1      -1.858   6.343   4.656  0.00  0.00    -0.126 OA
ATOM     15  O   UNL     1      -0.264   5.460   5.719  0.00  0.00    -0.126 OA
ENDBRANCH  10  13
ENDBRANCH   6   7
BRANCH   4  16
ATOM     16  N   UNL     1       4.904   3.682  -0.497  0.00  0.00    -0.328 N 
ATOM     17  H   UNL     1       5.002   4.589  -0.828  0.00  0.00    +0.145 HD
ATOM     18  H   UNL     1       5.690   3.136  -0.340  0.00  0.00    +0.145 HD
ENDBRANCH   4  16
BRANCH   1  19
ATOM     19  C   UNL     1       0.006   1.195  -0.228  0.00  0.00    +0.339 C 
ATOM     20  O   UNL     1      -0.464   0.962  -1.325  0.00  0.00    -0.245 OA
BRANCH  19  21
ATOM     21  O   UNL     1      -0.624   0.760   0.883  0.00  0.00    -0.462 OA
BRANCH  21  23
ATOM     22  C   UNL     1      -2.405  -0.376   2.057  0.00  0.00    +0.048 C 
ATOM     23  C   UNL     1      -1.839   0.031   0.695  0.00  0.00    +0.229 C 
ENDBRANCH  21  23
ENDBRANCH  19  21
ENDBRANCH   1  19
BRANCH   5  24
ATOM     24  C   UNL     1       2.744   5.287  -0.966  0.00  0.00    +0.101 C 
ATOM     25  N   UNL     1       2.884   6.346  -1.351  0.00  0.00    -0.191 NA
ENDBRANCH   5  24
BRANCH   2  26
ATOM     26  C   UNL     1       2.337  -0.227   0.202  0.00  0.00    +0.183 C 
ATOM     27 CL   UNL     1       2.686  -0.952  -1.412  0.00  0.00    -0.117 Cl
ENDBRANCH   2  26
TORSDOF 8
