REMARK  Name = ZINC04826276
REMARK  11 active torsions:
REMARK  status: ('A' for Active; 'I' for Inactive)
REMARK    1  A    between atoms: C_4  and  C_7
REMARK    2  A    between atoms: C_7  and  O_8
REMARK    3  A    between atoms: O_8  and  C_9
REMARK    4  A    between atoms: C_12  and  C_23
REMARK    5  A    between atoms: C_13  and  O_15
REMARK    6  A    between atoms: O_15  and  C_16
REMARK    7  A    between atoms: C_16  and  C_17
REMARK    8  A    between atoms: C_23  and  C_38
REMARK    9  A    between atoms: C_27  and  O_37
REMARK   10  A    between atoms: C_29  and  C_35
REMARK   11  A    between atoms: C_35  and  O_36
REMARK                            x       y       z     vdW  Elec       q    Type
REMARK                         _______ _______ _______ _____ _____    ______ ____
ROOT
ATOM      1  C   UNL     1       4.746   7.428  -5.242  0.00  0.00    +0.218 A 
ATOM      2  C   UNL     1       4.541   6.245  -5.939  0.00  0.00    +0.068 A 
ATOM      3  C   UNL     1       3.809   5.229  -5.348  0.00  0.00    +0.020 A 
ATOM      4  C   UNL     1       3.296   5.435  -4.077  0.00  0.00    +0.078 A 
ATOM      5  C   UNL     1       3.539   6.642  -3.436  0.00  0.00    +0.227 A 
ATOM      6  N   UNL     1       4.247   7.591  -4.027  0.00  0.00    -0.177 NA
ENDROOT
BRANCH   4   7
ATOM      7  C   UNL     1       2.490   4.359  -3.396  0.00  0.00    +0.232 C 
ATOM      8  O   UNL     1       1.290   4.929  -2.849  0.00  0.00    -0.330 OA
ATOM      9  C   UNL     1       0.272   4.702  -3.847  0.00  0.00    +0.209 C 
ATOM     10  C   UNL     1      -1.061   4.379  -3.139  0.00  0.00    +0.179 C 
ATOM     11  C   UNL     1      -1.054   2.849  -2.971  0.00  0.00    +0.178 C 
ATOM     12  O   UNL     1       0.206   2.369  -3.461  0.00  0.00    -0.340 OA
ATOM     13  C   UNL     1       0.694   3.317  -4.429  0.00  0.00    +0.286 C 
ATOM     14  O   UNL     1       2.131   3.354  -4.352  0.00  0.00    -0.309 OA
BRANCH   7  15
ATOM     15  C   UNL     1       3.305   3.739  -2.291  0.00  0.00    +0.016 A 
ATOM     16  C   UNL     1       3.259   4.271  -1.016  0.00  0.00    +0.009 A 
ATOM     17  C   UNL     1       4.004   3.699  -0.001  0.00  0.00    +0.000 A 
ATOM     18  C   UNL     1       4.801   2.601  -0.264  0.00  0.00    +0.000 A 
ATOM     19  C   UNL     1       4.850   2.071  -1.540  0.00  0.00    +0.000 A 
ATOM     20  C   UNL     1       4.103   2.641  -2.553  0.00  0.00    +0.009 A 
ENDBRANCH   7  15
BRANCH  10  21
ATOM     21  O   UNL     1      -1.115   5.021  -1.864  0.00  0.00    -0.386 OA
ATOM     22  H   UNL     1      -1.910   4.813  -1.353  0.00  0.00    +0.210 HD
ENDBRANCH  10  21
BRANCH  11  23
ATOM     23  C   UNL     1      -1.208   2.489  -1.492  0.00  0.00    +0.190 C 
BRANCH  23  24
ATOM     24  O   UNL     1      -1.303   1.069  -1.355  0.00  0.00    -0.392 OA
ATOM     25  H   UNL     1      -1.402   0.768  -0.441  0.00  0.00    +0.210 HD
ENDBRANCH  23  24
ENDBRANCH  11  23
ENDBRANCH   4   7
BRANCH   1  26
ATOM     26  O   UNL     1       5.466   8.427  -5.811  0.00  0.00    -0.472 OA
BRANCH  26  27
ATOM     27  C   UNL     1       5.643   9.618  -5.043  0.00  0.00    +0.266 C 
BRANCH  27  31
ATOM     28  C   UNL     1       7.964  12.423  -7.278  0.00  0.00    +0.000 A 
ATOM     29  C   UNL     1       6.586  12.422  -7.388  0.00  0.00    +0.000 A 
ATOM     30  C   UNL     1       5.835  11.514  -6.665  0.00  0.00    +0.007 A 
ATOM     31  C   UNL     1       6.461  10.608  -5.831  0.00  0.00    -0.010 A 
ATOM     32  C   UNL     1       7.839  10.612  -5.716  0.00  0.00    +0.007 A 
ATOM     33  C   UNL     1       8.590  11.516  -6.443  0.00  0.00    +0.000 A 
ENDBRANCH  27  31
ENDBRANCH  26  27
ENDBRANCH   1  26
BRANCH   5  34
ATOM     34  O   UNL     1       3.046   6.850  -2.189  0.00  0.00    -0.471 OA
BRANCH  34  35
ATOM     35  C   UNL     1       3.331   8.112  -1.582  0.00  0.00    +0.266 C 
BRANCH  35  36
ATOM     36  C   UNL     1       2.707   8.162  -0.211  0.00  0.00    -0.010 A 
ATOM     37  C   UNL     1       1.421   8.643  -0.053  0.00  0.00    +0.007 A 
ATOM     38  C   UNL     1       0.847   8.684   1.204  0.00  0.00    +0.000 A 
ATOM     39  C   UNL     1       1.564   8.253   2.305  0.00  0.00    +0.000 A 
ATOM     40  C   UNL     1       2.852   7.778   2.148  0.00  0.00    +0.000 A 
ATOM     41  C   UNL     1       3.424   7.732   0.890  0.00  0.00    +0.007 A 
ENDBRANCH  35  36
ENDBRANCH  34  35
ENDBRANCH   5  34
TORSDOF 11
