REMARK  Name = ZINC27345552
REMARK  8 active torsions:
REMARK  status: ('A' for Active; 'I' for Inactive)
REMARK    1  A    between atoms: C_1  and  C_2
REMARK    2  A    between atoms: C_2  and  C_28
REMARK    3  A    between atoms: N_5  and  C_9
REMARK    4  A    between atoms: C_9  and  C_10
REMARK    5  A    between atoms: N_12  and  C_13
REMARK    6  A    between atoms: C_13  and  C_14
REMARK    7  A    between atoms: C_14  and  C_16
REMARK    8  A    between atoms: C_14  and  N_23
REMARK                            x       y       z     vdW  Elec       q    Type
REMARK                         _______ _______ _______ _____ _____    ______ ____
ROOT
ATOM      1  C   UNL     1       0.297  -3.220  -1.744  0.00  0.00    +0.231 C 
ATOM      2  O   UNL     1      -0.398  -2.967  -2.705  0.00  0.00    -0.274 OA
ATOM      3  N   UNL     1       1.395  -3.988  -1.891  0.00  0.00    -0.315 N 
ATOM      4  H   UNL     1       2.026  -4.218  -1.020  0.00  0.00    +0.149 HD
ENDROOT
BRANCH   1   5
ATOM      5  C   UNL     1      -0.066  -2.677  -0.386  0.00  0.00    +0.213 C 
BRANCH   5  10
ATOM      6  C   UNL     1      -4.292  -0.959   0.736  0.00  0.00    +0.047 C 
ATOM      7  C   UNL     1      -3.472  -1.203  -0.533  0.00  0.00    +0.135 C 
ATOM      8  C   UNL     1      -2.534  -2.379  -0.344  0.00  0.00    +0.251 C 
ATOM      9  O   UNL     1      -2.838  -3.528  -0.109  0.00  0.00    -0.272 OA
ATOM     10  N   UNL     1      -1.291  -1.879  -0.491  0.00  0.00    -0.215 N 
ATOM     11  C   UNL     1      -1.313  -0.566  -0.744  0.00  0.00    +0.310 C 
ATOM     12  O   UNL     1      -0.315   0.106  -0.915  0.00  0.00    -0.252 OA
ATOM     13  N   UNL     1      -2.564  -0.072  -0.789  0.00  0.00    -0.281 N 
ATOM     14  H   UNL     1      -2.974   0.933  -0.966  0.00  0.00    +0.152 HD
BRANCH   7  15
ATOM     15  C   UNL     1      -4.379  -1.433  -1.715  0.00  0.00    -0.015 A 
ATOM     16  C   UNL     1      -4.739  -2.720  -2.069  0.00  0.00    +0.009 A 
ATOM     17  C   UNL     1      -5.574  -2.932  -3.150  0.00  0.00    +0.039 A 
ATOM     18  C   UNL     1      -6.041  -1.855  -3.884  0.00  0.00    +0.123 A 
ATOM     19  C   UNL     1      -5.675  -0.567  -3.532  0.00  0.00    +0.039 A 
ATOM     20  C   UNL     1      -4.845  -0.357  -2.447  0.00  0.00    +0.009 A 
ATOM     21  F   UNL     1      -6.854  -2.061  -4.944  0.00  0.00    -0.205 F 
ENDBRANCH   7  15
ENDBRANCH   5  10
ENDBRANCH   1   5
BRANCH   3  22
ATOM     22  C   UNL     1       1.748  -4.517  -3.211  0.00  0.00    +0.093 C 
BRANCH  22  23
ATOM     23  C   UNL     1       3.027  -5.349  -3.101  0.00  0.00    -0.019 C 
BRANCH  23  24
ATOM     24  C   UNL     1       3.389  -5.896  -4.458  0.00  0.00    -0.041 A 
ATOM     25  C   UNL     1       3.139  -7.222  -4.759  0.00  0.00    +0.003 A 
ATOM     26  C   UNL     1       3.471  -7.723  -6.003  0.00  0.00    +0.000 A 
ATOM     27  C   UNL     1       4.052  -6.898  -6.949  0.00  0.00    +0.001 A 
ATOM     28  C   UNL     1       4.302  -5.572  -6.650  0.00  0.00    +0.020 A 
ATOM     29  C   UNL     1       3.965  -5.069  -5.406  0.00  0.00    +0.043 A 
ATOM     30 CL   UNL     1       4.272  -3.401  -5.032  0.00  0.00    -0.083 Cl
ENDBRANCH  23  24
BRANCH  23  31
ATOM     31  N   UNL     1       2.809  -6.462  -2.168  0.00  0.00    +0.385 N 
ATOM     32  C   UNL     1       1.544  -7.176  -2.478  0.00  0.00    -0.078 C 
ATOM     33  C   UNL     1       1.739  -8.554  -1.797  0.00  0.00    -0.020 C 
ATOM     34  C   UNL     1       3.238  -8.848  -2.033  0.00  0.00    -0.020 C 
ATOM     35  C   UNL     1       3.882  -7.473  -2.287  0.00  0.00    -0.078 C 
ATOM     36  H   UNL     1       2.789  -6.012  -1.165  0.00  0.00    -0.081 HD
ENDBRANCH  23  31
ENDBRANCH  22  23
ENDBRANCH   3  22
TORSDOF 7
