REMARK  Name = ZINC64502923
REMARK  4 active torsions:
REMARK  status: ('A' for Active; 'I' for Inactive)
REMARK    1  A    between atoms: C_1  and  C_2
REMARK    2  A    between atoms: C_5  and  N_8
REMARK    3  A    between atoms: C_13  and  N_16
REMARK    4  A    between atoms: C_23  and  C_25
REMARK                            x       y       z     vdW  Elec       q    Type
REMARK                         _______ _______ _______ _____ _____    ______ ____
ROOT
ATOM      1  N   UNL     1       3.145  -4.807  -0.258  0.00  0.00    -0.281 NA
ATOM      2  C   UNL     1       4.135  -5.837  -0.567  0.00  0.00    +0.088 C 
ATOM      3  C   UNL     1       5.416  -5.172  -1.020  0.00  0.00    +0.034 C 
ATOM      4  C   UNL     1       6.345  -4.963   0.187  0.00  0.00    +0.109 C 
ATOM      5  N   UNL     1       5.587  -4.535   1.379  0.00  0.00    -0.298 N 
ATOM      6  C   UNL     1       4.515  -3.563   1.313  0.00  0.00    +0.123 C 
ATOM      7  C   UNL     1       3.170  -4.285   1.057  0.00  0.00    +0.105 C 
ATOM      8  C   UNL     1       5.904  -5.070   2.575  0.00  0.00    +0.242 C 
ATOM      9  O   UNL     1       5.237  -4.807   3.553  0.00  0.00    -0.273 OA
ENDROOT
BRANCH   8  10
ATOM     10  C   UNL     1       7.088  -5.994   2.697  0.00  0.00    +0.190 C 
ATOM     11  C   UNL     1       6.676  -7.414   2.381  0.00  0.00    +0.016 C 
ATOM     12  C   UNL     1       6.919  -8.133   3.501  0.00  0.00    -0.002 A 
ATOM     13  C   UNL     1       6.735  -9.552   3.830  0.00  0.00    +0.029 A 
ATOM     14  C   UNL     1       7.078  -9.988   5.064  0.00  0.00    +0.042 A 
ATOM     15  C   UNL     1       7.604  -9.121   6.033  0.00  0.00    +0.022 A 
ATOM     16  C   UNL     1       7.802  -7.806   5.804  0.00  0.00    +0.027 A 
ATOM     17  C   UNL     1       7.475  -7.239   4.541  0.00  0.00    +0.043 A 
ATOM     18  N   UNL     1       7.574  -6.013   4.082  0.00  0.00    -0.370 N 
ATOM     19 CL   UNL     1       6.862 -11.665   5.459  0.00  0.00    -0.084 Cl
ATOM     20  H   UNL     1       7.911  -5.249   4.574  0.00  0.00    +0.161 HD
ENDBRANCH   8  10
BRANCH   1  26
ATOM     21  N   UNL     1       1.004  -3.096  -1.142  0.00  0.00    -0.200 N 
ATOM     22  C   UNL     1       1.319  -3.250  -2.444  0.00  0.00    +0.257 C 
ATOM     23  O   UNL     1       1.430  -2.282  -3.172  0.00  0.00    -0.269 OA
ATOM     24  C   UNL     1       1.526  -4.613  -2.970  0.00  0.00    +0.068 C 
ATOM     25  C   UNL     1       1.756  -5.591  -2.090  0.00  0.00    +0.014 C 
ATOM     26  C   UNL     1       1.792  -5.250  -0.622  0.00  0.00    +0.166 C 
ATOM     27  N   UNL     1       0.842  -4.178  -0.331  0.00  0.00    -0.212 NA
ATOM     28  H   UNL     1      -0.107  -4.519  -0.369  0.00  0.00    +0.147 HD
BRANCH  21  33
ATOM     29  C   UNL     1       0.373   2.123   0.988  0.00  0.00    +0.044 C 
ATOM     30  C   UNL     1       0.540   0.737   0.422  0.00  0.00    -0.050 A 
ATOM     31  C   UNL     1       1.656   0.431  -0.335  0.00  0.00    +0.005 A 
ATOM     32  C   UNL     1       1.813  -0.839  -0.855  0.00  0.00    +0.025 A 
ATOM     33  C   UNL     1       0.849  -1.810  -0.617  0.00  0.00    +0.053 A 
ATOM     34  C   UNL     1      -0.271  -1.499   0.145  0.00  0.00    +0.025 A 
ATOM     35  C   UNL     1      -0.419  -0.229   0.666  0.00  0.00    +0.005 A 
ENDBRANCH  21  33
ENDBRANCH   1  26
TORSDOF 3
