REMARK  Name = ZINC20153359
REMARK  9 active torsions:
REMARK  status: ('A' for Active; 'I' for Inactive)
REMARK    1  A    between atoms: C_4  and  C_27
REMARK    2  A    between atoms: C_6  and  N_7
REMARK    3  A    between atoms: N_7  and  C_8
REMARK    4  A    between atoms: C_8  and  N_10
REMARK    5  A    between atoms: C_11  and  C_13
REMARK    6  A    between atoms: C_15  and  N_24
REMARK    7  A    between atoms: C_18  and  N_19
REMARK    8  A    between atoms: C_30  and  C_32
REMARK    9  A    between atoms: C_32  and  O_33
REMARK                            x       y       z     vdW  Elec       q    Type
REMARK                         _______ _______ _______ _____ _____    ______ ____
ROOT
ATOM      1  C   UNL     1      -2.373  -0.066   0.127  0.00  0.00    +0.141 C 
ATOM      2  S   UNL     1      -2.402   1.646   0.137  0.00  0.00    -0.018 S 
ENDROOT
BRANCH   1   3
ATOM      3  N   UNL     1      -3.523  -0.760   0.236  0.00  0.00    -0.264 N 
ATOM      4  C   UNL     1      -4.696  -0.106   0.353  0.00  0.00    +0.251 C 
ATOM      5  O   UNL     1      -4.716   1.109   0.360  0.00  0.00    -0.270 OA
ATOM      6  H   UNL     1      -3.507  -1.730   0.231  0.00  0.00    +0.157 HD
BRANCH   4   7
ATOM      7  C   UNL     1      -5.954  -0.865   0.473  0.00  0.00    +0.060 A 
ATOM      8  C   UNL     1      -5.935  -2.262   0.471  0.00  0.00    +0.047 A 
ATOM      9  C   UNL     1      -7.114  -2.965   0.584  0.00  0.00    +0.127 A 
ATOM     10  C   UNL     1      -8.322  -2.294   0.698  0.00  0.00    +0.034 A 
ATOM     11  C   UNL     1      -8.357  -0.915   0.701  0.00  0.00    +0.026 A 
ATOM     12  C   UNL     1      -7.178  -0.188   0.595  0.00  0.00    +0.042 A 
BRANCH  12  13
ATOM     13  N   UNL     1      -7.210   1.200   0.603  0.00  0.00    -0.329 N 
ATOM     14  C   UNL     1      -7.353   2.061  -0.580  0.00  0.00    +0.105 C 
ATOM     15  C   UNL     1      -7.311   3.524  -0.089  0.00  0.00    +0.020 C 
ATOM     16  C   UNL     1      -6.580   3.413   1.275  0.00  0.00    +0.020 C 
ATOM     17  C   UNL     1      -7.114   2.054   1.801  0.00  0.00    +0.105 C 
ENDBRANCH  12  13
BRANCH   9  18
ATOM     18  N   UNL     1      -7.092  -4.445   0.582  0.00  0.00    +0.056 N 
ATOM     19  O   UNL     1      -6.041  -5.034   0.481  0.00  0.00    -0.126 OA
ATOM     20  O   UNL     1      -8.125  -5.065   0.680  0.00  0.00    -0.126 OA
ENDBRANCH   9  18
ENDBRANCH   4   7
ENDBRANCH   1   3
BRANCH   1  21
ATOM     21  N   UNL     1      -1.200  -0.720   0.010  0.00  0.00    -0.297 N 
ATOM     22  H   UNL     1      -1.189  -1.688  -0.057  0.00  0.00    +0.154 HD
BRANCH  21  28
ATOM     23  C   UNL     1       1.079  -0.428   0.753  0.00  0.00    +0.025 A 
ATOM     24  C   UNL     1       2.269   0.276   0.732  0.00  0.00    +0.022 A 
ATOM     25  C   UNL     1       2.393   1.407  -0.050  0.00  0.00    +0.052 A 
ATOM     26  C   UNL     1       1.315   1.842  -0.825  0.00  0.00    +0.037 A 
ATOM     27  C   UNL     1       0.116   1.131  -0.804  0.00  0.00    +0.036 A 
ATOM     28  C   UNL     1       0.001  -0.003  -0.014  0.00  0.00    +0.033 A 
ATOM     29 CL   UNL     1       3.889   2.288  -0.071  0.00  0.00    -0.083 Cl
BRANCH  26  30
ATOM     30  C   UNL     1       1.444   3.053  -1.663  0.00  0.00    +0.137 A 
ATOM     31  C   UNL     1       1.916   4.260  -1.254  0.00  0.00    +0.050 A 
ATOM     32  C   UNL     1       1.864   5.117  -2.372  0.00  0.00    +0.047 A 
ATOM     33  C   UNL     1       1.367   4.397  -3.397  0.00  0.00    +0.131 A 
ATOM     34  O   UNL     1       1.121   3.149  -2.967  0.00  0.00    -0.457 OA
BRANCH  33  35
ATOM     35  C   UNL     1       1.133   4.907  -4.796  0.00  0.00    +0.230 C 
BRANCH  35  36
ATOM     36  O   UNL     1       2.308   4.697  -5.582  0.00  0.00    -0.387 OA
ATOM     37  H   UNL     1       2.229   5.002  -6.496  0.00  0.00    +0.210 HD
ENDBRANCH  35  36
ENDBRANCH  33  35
ENDBRANCH  26  30
ENDBRANCH  21  28
ENDBRANCH   1  21
TORSDOF 9
