REMARK  Name = ZINC38079306
REMARK  5 active torsions:
REMARK  status: ('A' for Active; 'I' for Inactive)
REMARK    1  A    between atoms: C_3  and  S_8
REMARK    2  A    between atoms: C_6  and  O_7
REMARK    3  A    between atoms: S_8  and  C_9
REMARK    4  A    between atoms: C_9  and  C_10
REMARK    5  A    between atoms: C_14  and  N_16
REMARK                            x       y       z     vdW  Elec       q    Type
REMARK                         _______ _______ _______ _____ _____    ______ ____
ROOT
ATOM      1  C   UNL     1       5.173   1.025  -0.042  0.00  0.00    +0.109 C 
ENDROOT
BRANCH   1   2
ATOM      2  C   UNL     1       6.535   1.669  -0.052  0.00  0.00    -0.035 A 
ATOM      3  C   UNL     1       7.146   1.975  -1.254  0.00  0.00    +0.006 A 
ATOM      4  C   UNL     1       8.396   2.566  -1.264  0.00  0.00    +0.022 A 
ATOM      5  C   UNL     1       9.035   2.850  -0.071  0.00  0.00    +0.071 A 
ATOM      6  C   UNL     1       8.424   2.543   1.132  0.00  0.00    +0.145 A 
ATOM      7  C   UNL     1       7.172   1.958   1.140  0.00  0.00    +0.038 A 
ATOM      8 CL   UNL     1      10.605   3.592  -0.082  0.00  0.00    -0.081 Cl
BRANCH   6   9
ATOM      9  N   UNL     1       9.107   2.848   2.409  0.00  0.00    +0.058 N 
ATOM     10  O   UNL     1       8.573   2.579   3.459  0.00  0.00    -0.126 OA
ATOM     11  O   UNL     1      10.200   3.364   2.401  0.00  0.00    -0.126 OA
ENDBRANCH   6   9
ENDBRANCH   1   2
BRANCH   1  12
ATOM     12  S   UNL     1       3.896   2.313  -0.023  0.00  0.00    -0.121 S 
BRANCH  12  15
ATOM     13  C   UNL     1      -0.017   1.383   0.010  0.00  0.00    +0.046 A 
ATOM     14  C   UNL     1       1.169   2.090   0.002  0.00  0.00    +0.018 A 
ATOM     15  C   UNL     1       2.382   1.412  -0.013  0.00  0.00    +0.008 A 
ATOM     16  C   UNL     1       2.399   0.023  -0.021  0.00  0.00    +0.018 A 
ATOM     17  C   UNL     1       1.212  -0.682  -0.013  0.00  0.00    +0.046 A 
ATOM     18  C   UNL     1       0.002  -0.004   0.002  0.00  0.00    +0.117 A 
BRANCH  18  19
ATOM     19  O   UNL     1      -1.167  -0.700   0.010  0.00  0.00    -0.507 OA
ATOM     20  H   UNL     1      -1.513  -0.896  -0.871  0.00  0.00    +0.292 HD
ENDBRANCH  18  19
ENDBRANCH  12  15
ENDBRANCH   1  12
TORSDOF 5
