REMARK  Name = ZINC59168804
REMARK  5 active torsions:
REMARK  status: ('A' for Active; 'I' for Inactive)
REMARK    1  A    between atoms: C_4  and  O_7
REMARK    2  A    between atoms: O_7  and  C_8
REMARK    3  A    between atoms: C_8  and  C_9
REMARK    4  A    between atoms: C_15  and  C_18
REMARK    5  A    between atoms: C_23  and  O_24
REMARK                            x       y       z     vdW  Elec       q    Type
REMARK                         _______ _______ _______ _____ _____    ______ ____
ROOT
ATOM      1  C   UNL     1       4.932  -2.615  -0.061  0.00  0.00    +0.189 A 
ATOM      2  N   UNL     1       5.634  -2.886  -1.122  0.00  0.00    -0.128 NA
ATOM      3  N   UNL     1       6.782  -3.357  -0.783  0.00  0.00    -0.121 NA
ATOM      4  C   UNL     1       6.857  -3.423   0.510  0.00  0.00    +0.211 A 
ATOM      5  N   UNL     1       5.700  -2.921   1.048  0.00  0.00    -0.221 N 
ATOM      6  N   UNL     1       5.583  -2.827   2.404  0.00  0.00    -0.263 N 
ATOM      7  C   UNL     1       6.491  -3.717   3.175  0.00  0.00    +0.186 C 
ATOM      8  S   UNL     1       7.833  -3.892   1.923  0.00  0.00    -0.056 S 
ATOM      9  H   UNL     1       5.670  -1.869   2.708  0.00  0.00    +0.168 HD
ENDROOT
BRANCH   7  10
ATOM     10  C   UNL     1       6.982  -3.050   4.435  0.00  0.00    +0.028 A 
ATOM     11  C   UNL     1       6.350  -1.916   4.908  0.00  0.00    +0.025 A 
ATOM     12  C   UNL     1       6.799  -1.303   6.064  0.00  0.00    +0.020 A 
ATOM     13  C   UNL     1       7.882  -1.825   6.749  0.00  0.00    +0.039 A 
ATOM     14  C   UNL     1       8.517  -2.959   6.280  0.00  0.00    +0.084 A 
ATOM     15  C   UNL     1       8.064  -3.578   5.123  0.00  0.00    +0.141 A 
ATOM     16 CL   UNL     1       9.876  -3.613   7.140  0.00  0.00    -0.080 Cl
ATOM     17 BR   UNL     1       5.932   0.249   6.708  0.00  0.00    -0.050 Br
BRANCH  15  18
ATOM     18  O   UNL     1       8.683  -4.697   4.662  0.00  0.00    -0.505 OA
ATOM     19  H   UNL     1       9.410  -4.521   4.050  0.00  0.00    +0.292 HD
ENDBRANCH  15  18
ENDBRANCH   7  10
BRANCH   1  20
ATOM     20  C   UNL     1       3.531  -2.060  -0.044  0.00  0.00    +0.306 C 
BRANCH  20  21
ATOM     21  O   UNL     1       3.586  -0.632  -0.037  0.00  0.00    -0.484 OA
BRANCH  21  25
ATOM     22  C   UNL     1      -0.017   1.378   0.010  0.00  0.00    +0.000 A 
ATOM     23  C   UNL     1       1.170   2.088   0.002  0.00  0.00    +0.004 A 
ATOM     24  C   UNL     1       2.377   1.417  -0.013  0.00  0.00    +0.045 A 
ATOM     25  C   UNL     1       2.399   0.030  -0.021  0.00  0.00    +0.121 A 
ATOM     26  C   UNL     1       1.207  -0.680  -0.013  0.00  0.00    +0.045 A 
ATOM     27  C   UNL     1       0.002  -0.004   0.002  0.00  0.00    +0.004 A 
ENDBRANCH  21  25
ENDBRANCH  20  21
ENDBRANCH   1  20
TORSDOF 5
