REMARK  Name = ZINC42361786
REMARK  7 active torsions:
REMARK  status: ('A' for Active; 'I' for Inactive)
REMARK    1  A    between atoms: C_1  and  N_2
REMARK    2  A    between atoms: N_2  and  C_3
REMARK    3  A    between atoms: N_2  and  C_10
REMARK    4  A    between atoms: C_3  and  C_4
REMARK    5  A    between atoms: C_10  and  C_12
REMARK    6  A    between atoms: C_10  and  C_14
REMARK    7  A    between atoms: C_12  and  N_13
REMARK                            x       y       z     vdW  Elec       q    Type
REMARK                         _______ _______ _______ _____ _____    ______ ____
ROOT
ATOM      1  C   UNL     1      -1.182  -0.953  -0.398  0.00  0.00    +0.069 C 
ENDROOT
BRANCH   1   2
ATOM      2  C   UNL     1      -1.633  -0.541  -1.775  0.00  0.00    -0.031 A 
ATOM      3  C   UNL     1      -1.376   0.738  -2.233  0.00  0.00    +0.008 A 
ATOM      4  C   UNL     1      -1.789   1.117  -3.496  0.00  0.00    +0.040 A 
ATOM      5  C   UNL     1      -2.459   0.214  -4.305  0.00  0.00    +0.137 A 
ATOM      6  C   UNL     1      -2.716  -1.067  -3.845  0.00  0.00    +0.053 A 
ATOM      7  C   UNL     1      -2.298  -1.445  -2.583  0.00  0.00    +0.023 A 
ATOM      8 BR   UNL     1      -3.632  -2.301  -4.947  0.00  0.00    -0.047 Br
ATOM      9  F   UNL     1      -2.864   0.584  -5.540  0.00  0.00    -0.204 F 
ENDBRANCH   1   2
BRANCH   1  11
ATOM     10  C   UNL     1      -0.725   1.185   0.643  0.00  0.00    +0.105 C 
ATOM     11  N   UNL     1      -0.137  -0.033   0.070  0.00  0.00    -0.296 NA
BRANCH  11  12
ATOM     12  C   UNL     1       0.751  -0.693   1.037  0.00  0.00    +0.120 C 
BRANCH  12  13
ATOM     13  C   UNL     1       2.065   0.043   1.096  0.00  0.00    -0.025 A 
ATOM     14  C   UNL     1       3.103  -0.306   0.252  0.00  0.00    +0.028 A 
ATOM     15  C   UNL     1       4.272   0.376   0.331  0.00  0.00    +0.055 A 
ATOM     16  S   UNL     1       3.926   1.553   1.628  0.00  0.00    -0.090 S 
ATOM     17  C   UNL     1       2.245   1.060   1.973  0.00  0.00    +0.051 A 
ATOM     18 BR   UNL     1       5.859   0.142  -0.672  0.00  0.00    -0.043 Br
ENDBRANCH  12  13
ENDBRANCH  11  12
ENDBRANCH   1  11
BRANCH   1  19
ATOM     19  C   UNL     1      -2.371  -0.905   0.564  0.00  0.00    -0.063 C 
BRANCH  19  20
ATOM     20  N   UNL     1      -1.927  -1.286   1.911  0.00  0.00    +0.379 N 
ATOM     21  H   UNL     1      -1.416  -2.155   1.864  0.00  0.00    -0.090 HD
ATOM     22  H   UNL     1      -1.330  -0.564   2.286  0.00  0.00    -0.090 HD
ATOM     23  H   UNL     1      -2.731  -1.402   2.510  0.00  0.00    -0.090 HD
ENDBRANCH  19  20
ENDBRANCH   1  19
TORSDOF 6
