REMARK  Name = ZINC15032824
REMARK  8 active torsions:
REMARK  status: ('A' for Active; 'I' for Inactive)
REMARK    1  A    between atoms: C_1  and  C_2
REMARK    2  A    between atoms: C_4  and  N_11
REMARK    3  A    between atoms: C_6  and  C_8
REMARK    4  A    between atoms: C_8  and  C_9
REMARK    5  A    between atoms: C_8  and  C_10
REMARK    6  A    between atoms: N_14  and  C_17
REMARK    7  A    between atoms: C_17  and  C_18
REMARK    8  A    between atoms: C_23  and  C_28
REMARK                            x       y       z     vdW  Elec       q    Type
REMARK                         _______ _______ _______ _____ _____    ______ ____
ROOT
ATOM      1  N   UNL     1      -0.220  -2.762  -2.224  0.00  0.00    -0.313 N 
ATOM      2  C   UNL     1      -0.443  -4.206  -2.049  0.00  0.00    +0.122 C 
ATOM      3  C   UNL     1      -1.478  -4.667  -3.081  0.00  0.00    +0.104 C 
ATOM      4  N   UNL     1      -1.038  -4.264  -4.423  0.00  0.00    -0.294 NA
ATOM      5  C   UNL     1      -0.965  -2.802  -4.544  0.00  0.00    +0.104 C 
ATOM      6  C   UNL     1       0.085  -2.264  -3.574  0.00  0.00    +0.122 C 
ENDROOT
BRANCH   1  10
ATOM      7  C   UNL     1       0.376   1.718  -0.275  0.00  0.00    +0.063 C 
ATOM      8  C   UNL     1      -0.019   0.267  -0.180  0.00  0.00    +0.017 A 
ATOM      9  C   UNL     1       0.079  -0.558  -1.283  0.00  0.00    +0.064 A 
ATOM     10  C   UNL     1      -0.299  -1.895  -1.147  0.00  0.00    +0.125 A 
ATOM     11  N   UNL     1      -0.737  -2.322   0.034  0.00  0.00    -0.219 NA
ATOM     12  C   UNL     1      -0.814  -1.500   1.061  0.00  0.00    +0.112 A 
ATOM     13  N   UNL     1      -0.461  -0.234   0.965  0.00  0.00    -0.347 N 
ATOM     14  H   UNL     1      -0.527   0.341   1.744  0.00  0.00    +0.167 HD
BRANCH  12  15
ATOM     15  C   UNL     1      -1.315  -2.023   2.382  0.00  0.00    +0.049 C 
ATOM     16  C   UNL     1      -0.126  -2.427   3.255  0.00  0.00    +0.015 C 
ATOM     17  C   UNL     1      -2.120  -0.931   3.091  0.00  0.00    +0.015 C 
ENDBRANCH  12  15
ENDBRANCH   1  10
BRANCH   4  18
ATOM     18  C   UNL     1      -1.913  -4.835  -5.457  0.00  0.00    +0.138 C 
BRANCH  18  19
ATOM     19  C   UNL     1      -1.580  -6.292  -5.649  0.00  0.00    +0.037 A 
ATOM     20  C   UNL     1      -2.499  -7.269  -5.331  0.00  0.00    +0.093 A 
ATOM     21  C   UNL     1      -2.172  -8.613  -5.516  0.00  0.00    +0.259 A 
ATOM     22  O   UNL     1      -2.982  -9.483  -5.237  0.00  0.00    -0.267 OA
ATOM     23  N   UNL     1      -0.945  -8.954  -6.010  0.00  0.00    -0.261 N 
ATOM     24  C   UNL     1      -0.478 -10.225  -6.247  0.00  0.00    +0.033 A 
ATOM     25  C   UNL     1       0.745 -10.429  -6.734  0.00  0.00    +0.070 A 
ATOM     26  S   UNL     1       1.356  -8.759  -6.902  0.00  0.00    -0.059 S 
ATOM     27  C   UNL     1      -0.094  -7.921  -6.299  0.00  0.00    +0.158 A 
ATOM     28  N   UNL     1      -0.396  -6.657  -6.133  0.00  0.00    -0.337 N 
ATOM     29  C   UNL     1      -1.365 -11.407  -5.951  0.00  0.00    +0.064 C 
ATOM     30  H   UNL     1       0.256  -5.977  -6.363  0.00  0.00    +0.168 HD
ENDBRANCH  18  19
ENDBRANCH   4  18
TORSDOF 4
