REMARK  Name = ZINC44918190
REMARK  6 active torsions:
REMARK  status: ('A' for Active; 'I' for Inactive)
REMARK    1  A    between atoms: C_1  and  C_2
REMARK    2  A    between atoms: C_2  and  C_32
REMARK    3  A    between atoms: C_4  and  N_13
REMARK    4  A    between atoms: C_14  and  C_16
REMARK    5  A    between atoms: N_21  and  C_23
REMARK    6  A    between atoms: C_23  and  C_24
REMARK                            x       y       z     vdW  Elec       q    Type
REMARK                         _______ _______ _______ _____ _____    ______ ____
ROOT
ATOM      1  N   UNL     1      -3.410  -0.634   1.479  0.00  0.00    -0.308 N 
ATOM      2  C   UNL     1      -4.418  -0.011   2.120  0.00  0.00    +0.215 C 
ATOM      3  O   UNL     1      -4.277   1.128   2.512  0.00  0.00    -0.276 OA
ATOM      4  H   UNL     1      -3.523  -1.545   1.166  0.00  0.00    +0.149 HD
ENDROOT
BRANCH   1   8
ATOM      5  C   UNL     1      -0.019   1.526   0.010  0.00  0.00    +0.055 C 
ATOM      6  C   UNL     1       0.002  -0.004   0.002  0.00  0.00    +0.107 C 
ATOM      7  C   UNL     1      -1.435  -0.540   0.040  0.00  0.00    +0.074 C 
ATOM      8  C   UNL     1      -2.142   0.066   1.254  0.00  0.00    +0.110 C 
ATOM      9  C   UNL     1      -1.268  -0.077   2.474  0.00  0.00    +0.015 A 
ATOM     10  C   UNL     1      -1.846   0.054   3.727  0.00  0.00    +0.009 A 
ATOM     11  C   UNL     1      -1.075  -0.067   4.866  0.00  0.00    +0.001 A 
ATOM     12  C   UNL     1       0.281  -0.320   4.759  0.00  0.00    +0.004 A 
ATOM     13  C   UNL     1       0.861  -0.454   3.515  0.00  0.00    +0.046 A 
ATOM     14  C   UNL     1       0.087  -0.334   2.365  0.00  0.00    +0.126 A 
ATOM     15  O   UNL     1       0.692  -0.482   1.158  0.00  0.00    -0.486 OA
ATOM     16  C   UNL     1       0.706  -0.503  -1.262  0.00  0.00    +0.055 C 
ENDBRANCH   1   8
BRANCH   2  17
ATOM     17  C   UNL     1      -5.722  -0.730   2.352  0.00  0.00    +0.058 C 
ATOM     18  C   UNL     1      -6.333  -1.127   1.004  0.00  0.00    +0.009 C 
ATOM     19  C   UNL     1      -7.694  -1.787   1.247  0.00  0.00    -0.018 C 
ATOM     20  C   UNL     1      -8.590  -0.823   2.028  0.00  0.00    -0.078 C 
ATOM     21  N   UNL     1      -7.963  -0.503   3.317  0.00  0.00    +0.383 N 
ATOM     22  C   UNL     1      -6.691   0.194   3.093  0.00  0.00    -0.066 C 
ATOM     23  H   UNL     1      -7.793  -1.356   3.828  0.00  0.00    -0.081 HD
BRANCH  21  24
ATOM     24  C   UNL     1      -8.862   0.359   4.095  0.00  0.00    -0.043 C 
BRANCH  24  25
ATOM     25  C   UNL     1     -10.116  -0.403   4.439  0.00  0.00    -0.062 A 
ATOM     26  C   UNL     1     -11.200  -0.373   3.581  0.00  0.00    +0.003 A 
ATOM     27  C   UNL     1     -12.350  -1.071   3.895  0.00  0.00    +0.021 A 
ATOM     28  C   UNL     1     -12.418  -1.800   5.069  0.00  0.00    +0.059 A 
ATOM     29  C   UNL     1     -11.333  -1.829   5.929  0.00  0.00    +0.059 A 
ATOM     30  C   UNL     1     -10.180  -1.135   5.610  0.00  0.00    +0.023 A 
ATOM     31 CL   UNL     1     -11.417  -2.743   7.403  0.00  0.00    -0.082 Cl
ATOM     32 CL   UNL     1     -13.864  -2.676   5.465  0.00  0.00    -0.082 Cl
ENDBRANCH  24  25
ENDBRANCH  21  24
ENDBRANCH   2  17
TORSDOF 4
