REMARK  Name = ZINC12272068
REMARK  8 active torsions:
REMARK  status: ('A' for Active; 'I' for Inactive)
REMARK    1  A    between atoms: C_4  and  C_7
REMARK    2  A    between atoms: C_7  and  C_9
REMARK    3  A    between atoms: C_7  and  N_14
REMARK    4  A    between atoms: C_15  and  C_17
REMARK    5  A    between atoms: C_17  and  C_18
REMARK    6  A    between atoms: C_18  and  S_19
REMARK    7  A    between atoms: S_19  and  C_20
REMARK    8  A    between atoms: C_20  and  C_21
REMARK                            x       y       z     vdW  Elec       q    Type
REMARK                         _______ _______ _______ _____ _____    ______ ____
ROOT
ATOM      1  C   UNL     1      -2.516   9.556  -5.938  0.00  0.00    +0.079 C 
ENDROOT
BRANCH   1   2
ATOM      2  C   UNL     1      -2.619  11.005  -5.457  0.00  0.00    +0.106 C 
BRANCH   2   4
ATOM      3  N   UNL     1      -3.059  13.230  -6.443  0.00  0.00    -0.304 N 
ATOM      4  C   UNL     1      -2.923  11.902  -6.629  0.00  0.00    +0.215 C 
ATOM      5  O   UNL     1      -3.046  11.430  -7.739  0.00  0.00    -0.276 OA
ATOM      6  H   UNL     1      -2.961  13.608  -5.555  0.00  0.00    +0.150 HD
BRANCH   3   7
ATOM      7  C   UNL     1      -3.355  14.103  -7.582  0.00  0.00    +0.140 C 
BRANCH   7  11
ATOM      8  C   UNL     1      -1.975  18.057  -6.743  0.00  0.00    +0.000 A 
ATOM      9  C   UNL     1      -1.816  17.524  -8.008  0.00  0.00    +0.000 A 
ATOM     10  C   UNL     1      -2.263  16.244  -8.280  0.00  0.00    +0.006 A 
ATOM     11  C   UNL     1      -2.868  15.498  -7.286  0.00  0.00    -0.022 A 
ATOM     12  C   UNL     1      -3.031  16.033  -6.022  0.00  0.00    +0.006 A 
ATOM     13  C   UNL     1      -2.581  17.311  -5.749  0.00  0.00    +0.000 A 
ENDBRANCH   7  11
BRANCH   7  14
ATOM     14  C   UNL     1      -4.843  14.130  -7.821  0.00  0.00    +0.014 A 
ATOM     15  C   UNL     1      -5.519  14.122  -8.996  0.00  0.00    +0.013 A 
ATOM     16  C   UNL     1      -6.901  14.151  -8.974  0.00  0.00    +0.008 A 
ATOM     17  C   UNL     1      -7.539  14.187  -7.778  0.00  0.00    +0.045 A 
ATOM     18  S   UNL     1      -6.172  14.174  -6.630  0.00  0.00    -0.099 S 
ENDBRANCH   7  14
ENDBRANCH   3   7
ENDBRANCH   2   4
ENDBRANCH   1   2
BRANCH   1  19
ATOM     19  S   UNL     1      -2.150   8.475  -4.528  0.00  0.00    -0.153 S 
BRANCH  19  20
ATOM     20  C   UNL     1      -2.062   6.816  -5.257  0.00  0.00    +0.143 C 
BRANCH  20  21
ATOM     21  C   UNL     1      -1.759   5.809  -4.178  0.00  0.00    +0.121 A 
ATOM     22  N   UNL     1      -1.651   4.504  -4.524  0.00  0.00    -0.310 N 
ATOM     23  H   UNL     1      -1.773   4.261  -5.456  0.00  0.00    +0.170 HD
ATOM     24  C   UNL     1      -1.382   3.522  -3.632  0.00  0.00    +0.260 A 
ATOM     25  O   UNL     1      -1.288   2.352  -3.962  0.00  0.00    -0.267 OA
ATOM     26  C   UNL     1      -1.213   3.947  -2.271  0.00  0.00    +0.075 A 
ATOM     27  C   UNL     1      -0.921   3.104  -1.126  0.00  0.00    -0.023 A 
ATOM     28  C   UNL     1      -0.803   3.725   0.071  0.00  0.00    -0.004 A 
ATOM     29  S   UNL     1      -1.074   5.446  -0.270  0.00  0.00    -0.073 S 
ATOM     30  C   UNL     1      -1.343   5.329  -2.010  0.00  0.00    +0.116 A 
ATOM     31  N   UNL     1      -1.610   6.237  -2.944  0.00  0.00    -0.226 NA
ATOM     32  C   UNL     1      -0.510   3.093   1.397  0.00  0.00    +0.043 C 
ATOM     33  C   UNL     1      -0.726   1.578   1.270  0.00  0.00    +0.005 C 
ATOM     34  C   UNL     1      -0.013   1.086   0.008  0.00  0.00    +0.005 C 
ATOM     35  C   UNL     1      -0.749   1.591  -1.233  0.00  0.00    +0.037 C 
ENDBRANCH  20  21
ENDBRANCH  19  20
ENDBRANCH   1  19
TORSDOF 8
