REMARK  Name = ZINC09790142
REMARK  9 active torsions:
REMARK  status: ('A' for Active; 'I' for Inactive)
REMARK    1  A    between atoms: C_1  and  C_2
REMARK    2  A    between atoms: C_2  and  C_3
REMARK    3  A    between atoms: C_2  and  N_4
REMARK    4  A    between atoms: C_9  and  C_19
REMARK    5  A    between atoms: C_11  and  C_13
REMARK    6  A    between atoms: N_21  and  C_22
REMARK    7  A    between atoms: C_22  and  C_23
REMARK    8  A    between atoms: C_23  and  C_25
REMARK    9  A    between atoms: C_23  and  N_62
REMARK                            x       y       z     vdW  Elec       q    Type
REMARK                         _______ _______ _______ _____ _____    ______ ____
ROOT
ATOM      1  N   UNL     1      -0.597   1.468   1.273  0.00  0.00    -0.244 N 
ATOM      2  C   UNL     1      -1.090   0.695   2.293  0.00  0.00    +0.160 A 
ATOM      3  C   UNL     1      -1.729   1.578   3.187  0.00  0.00    +0.051 A 
ATOM      4  C   UNL     1      -1.591   2.878   2.655  0.00  0.00    +0.145 A 
ATOM      5  N   UNL     1      -0.924   2.802   1.539  0.00  0.00    -0.177 NA
ATOM      6  C   UNL     1      -2.339   1.057   4.351  0.00  0.00    +0.051 A 
ATOM      7  C   UNL     1      -2.279  -0.316   4.559  0.00  0.00    +0.042 A 
ATOM      8  C   UNL     1      -1.625  -1.121   3.622  0.00  0.00    +0.074 A 
ATOM      9  N   UNL     1      -1.063  -0.605   2.542  0.00  0.00    -0.228 NA
ENDROOT
BRANCH   8  10
ATOM     10  C   UNL     1      -1.560  -2.586   3.845  0.00  0.00    +0.000 A 
ATOM     11  C   UNL     1      -2.141  -3.148   4.980  0.00  0.00    +0.010 A 
ATOM     12  C   UNL     1      -2.082  -4.512   5.179  0.00  0.00    +0.001 A 
ATOM     13  C   UNL     1      -1.437  -5.321   4.260  0.00  0.00    +0.000 A 
ATOM     14  C   UNL     1      -0.854  -4.768   3.134  0.00  0.00    +0.001 A 
ATOM     15  C   UNL     1      -0.912  -3.406   2.922  0.00  0.00    +0.010 A 
ENDBRANCH   8  10
BRANCH   6  16
ATOM     16  C   UNL     1      -3.022   1.946   5.316  0.00  0.00    +0.245 C 
ATOM     17  O   UNL     1      -3.064   3.143   5.115  0.00  0.00    -0.270 OA
ATOM     18  N   UNL     1      -3.597   1.427   6.419  0.00  0.00    -0.312 N 
ATOM     19  H   UNL     1      -3.563   0.471   6.580  0.00  0.00    +0.149 HD
BRANCH  18  20
ATOM     20  C   UNL     1      -4.273   2.307   7.376  0.00  0.00    +0.097 C 
BRANCH  20  21
ATOM     21  C   UNL     1      -4.935   1.462   8.466  0.00  0.00    +0.016 C 
BRANCH  21  26
ATOM     22  C   UNL     1      -6.771   3.056   8.591  0.00  0.00    -0.078 C 
ATOM     23  C   UNL     1      -7.781   3.471   9.690  0.00  0.00    -0.020 C 
ATOM     24  C   UNL     1      -7.774   2.254  10.643  0.00  0.00    -0.020 C 
ATOM     25  C   UNL     1      -6.436   1.541  10.375  0.00  0.00    -0.078 C 
ATOM     26  N   UNL     1      -5.743   2.341   9.364  0.00  0.00    +0.387 N 
ATOM     27  H   UNL     1      -5.121   3.016   9.822  0.00  0.00    -0.081 HD
ENDBRANCH  21  26
BRANCH  21  28
ATOM     28  C   UNL     1      -3.874   0.755   9.268  0.00  0.00    +0.093 A 
ATOM     29  C   UNL     1      -3.500  -0.529   9.120  0.00  0.00    +0.043 A 
ATOM     30  C   UNL     1      -2.482  -0.771  10.071  0.00  0.00    +0.041 A 
ATOM     31  C   UNL     1      -2.295   0.378  10.744  0.00  0.00    +0.195 A 
ATOM     32  O   UNL     1      -3.137   1.301  10.249  0.00  0.00    -0.469 OA
ENDBRANCH  21  28
ENDBRANCH  20  21
ENDBRANCH  18  20
ENDBRANCH   6  16
BRANCH   1  34
ATOM     33  C   UNL     1       1.534   1.630   0.083  0.00  0.00    +0.032 C 
ATOM     34  C   UNL     1       0.148   0.981   0.109  0.00  0.00    +0.103 C 
ATOM     35  C   UNL     1      -0.609   1.344  -1.170  0.00  0.00    +0.032 C 
ENDBRANCH   1  34
TORSDOF 7
