REMARK  Name = ZINC65896238
REMARK  3 active torsions:
REMARK  status: ('A' for Active; 'I' for Inactive)
REMARK    1  A    between atoms: C_1  and  C_2
REMARK    2  A    between atoms: N_4  and  C_5
REMARK    3  A    between atoms: C_12  and  C_15
REMARK                            x       y       z     vdW  Elec       q    Type
REMARK                         _______ _______ _______ _____ _____    ______ ____
ROOT
ATOM      1  C   UNL     1      -1.131  -2.169   0.173  0.00  0.00    +0.036 C 
ATOM      2  C   UNL     1      -0.339  -2.814   1.312  0.00  0.00    +0.029 C 
ATOM      3  C   UNL     1      -0.323  -4.332   1.127  0.00  0.00    -0.008 C 
ATOM      4  C   UNL     1       0.335  -4.677  -0.210  0.00  0.00    +0.007 C 
ATOM      5  C   UNL     1      -0.457  -4.032  -1.349  0.00  0.00    -0.008 C 
ATOM      6  C   UNL     1      -0.472  -2.514  -1.165  0.00  0.00    +0.029 C 
ATOM      7  C   UNL     1      -1.892  -4.562  -1.336  0.00  0.00    +0.020 C 
ATOM      8  C   UNL     1      -2.551  -4.218   0.001  0.00  0.00    +0.050 C 
ATOM      9  C   UNL     1      -1.759  -4.862   1.141  0.00  0.00    +0.020 C 
ATOM     10  C   UNL     1      -2.566  -2.699   0.186  0.00  0.00    +0.042 C 
ENDROOT
BRANCH   8  11
ATOM     11  C   UNL     1      -3.964  -4.740   0.015  0.00  0.00    +0.228 C 
ATOM     12  O   UNL     1      -4.894  -3.969   0.121  0.00  0.00    -0.275 OA
ATOM     13  N   UNL     1      -4.195  -6.063  -0.092  0.00  0.00    -0.240 N 
ATOM     14  C   UNL     1      -3.096  -7.048  -0.106  0.00  0.00    +0.118 C 
ATOM     15  C   UNL     1      -3.382  -8.085  -1.199  0.00  0.00    +0.043 C 
ATOM     16  C   UNL     1      -4.678  -8.838  -0.872  0.00  0.00    +0.148 C 
ATOM     17  N   UNL     1      -5.723  -7.864  -0.554  0.00  0.00    -0.233 N 
ATOM     18  C   UNL     1      -5.486  -6.580  -0.190  0.00  0.00    +0.223 A 
ATOM     19  N   UNL     1      -6.634  -5.999   0.023  0.00  0.00    -0.201 NA
ATOM     20  C   UNL     1      -7.623  -6.875  -0.186  0.00  0.00    +0.247 A 
ATOM     21  N   UNL     1      -7.109  -8.027  -0.549  0.00  0.00    -0.157 NA
ENDBRANCH   8  11
BRANCH   1  25
ATOM     22  C   UNL     1      -0.001   1.469   0.553  0.00  0.00    +0.109 C 
ATOM     23  C   UNL     1       0.014  -0.027   0.371  0.00  0.00    +0.210 C 
ATOM     24  O   UNL     1       1.068  -0.612   0.243  0.00  0.00    -0.276 OA
ATOM     25  N   UNL     1      -1.145  -0.715   0.350  0.00  0.00    -0.310 N 
ATOM     26  H   UNL     1      -1.989  -0.247   0.452  0.00  0.00    +0.149 HD
ENDBRANCH   1  25
TORSDOF 2
