REMARK  Name = ZINC38831871
REMARK  8 active torsions:
REMARK  status: ('A' for Active; 'I' for Inactive)
REMARK    1  A    between atoms: C_1  and  C_2
REMARK    2  A    between atoms: N_8  and  S_34
REMARK    3  A    between atoms: C_10  and  C_13
REMARK    4  A    between atoms: N_15  and  C_16
REMARK    5  A    between atoms: C_16  and  C_17
REMARK    6  A    between atoms: C_20  and  C_23
REMARK    7  A    between atoms: C_23  and  N_24
REMARK    8  A    between atoms: S_34  and  C_37
REMARK                            x       y       z     vdW  Elec       q    Type
REMARK                         _______ _______ _______ _____ _____    ______ ____
ROOT
ATOM      1  C   UNL     1      -0.501  -6.172   0.823  0.00  0.00    +0.256 C 
ATOM      2  O   UNL     1       0.131  -6.643  -0.099  0.00  0.00    -0.272 OA
ATOM      3  N   UNL     1      -1.128  -6.986   1.695  0.00  0.00    -0.308 N 
ATOM      4  H   UNL     1      -1.633  -6.609   2.433  0.00  0.00    +0.149 HD
ENDROOT
BRANCH   1  14
ATOM      5  C   UNL     1       0.996   1.522   0.246  0.00  0.00    +0.044 C 
ATOM      6  C   UNL     1       0.745   0.039   0.160  0.00  0.00    -0.048 A 
ATOM      7  C   UNL     1       0.744  -0.591  -1.071  0.00  0.00    +0.007 A 
ATOM      8  C   UNL     1       0.516  -1.952  -1.158  0.00  0.00    +0.048 A 
ATOM      9  C   UNL     1       0.286  -2.692  -0.008  0.00  0.00    +0.144 A 
ATOM     10  C   UNL     1       0.285  -2.055   1.230  0.00  0.00    +0.093 A 
ATOM     11  C   UNL     1       0.521  -0.692   1.312  0.00  0.00    +0.031 A 
ATOM     12  N   UNL     1       0.045  -2.799   2.396  0.00  0.00    -0.200 N 
ATOM     13  C   UNL     1       0.113  -4.267   2.297  0.00  0.00    +0.185 C 
ATOM     14  C   UNL     1      -0.585  -4.677   0.993  0.00  0.00    +0.277 C 
ATOM     15  O   UNL     1       0.068  -4.031  -0.102  0.00  0.00    -0.476 OA
BRANCH  12  16
ATOM     16  S   UNL     1      -0.302  -2.052   3.832  0.00  0.00    +0.043 S 
ATOM     17  O   UNL     1      -1.028  -0.886   3.468  0.00  0.00    -0.155 OA
ATOM     18  O   UNL     1      -0.906  -3.062   4.629  0.00  0.00    -0.155 OA
ATOM     19  C   UNL     1       1.312  -1.594   4.522  0.00  0.00    +0.218 C 
ENDBRANCH  12  16
ENDBRANCH   1  14
BRANCH   3  20
ATOM     20  C   UNL     1      -1.046  -8.439   1.530  0.00  0.00    +0.139 C 
BRANCH  20  21
ATOM     21  C   UNL     1      -1.827  -9.114   2.628  0.00  0.00    -0.030 A 
ATOM     22  C   UNL     1      -1.205  -9.441   3.819  0.00  0.00    +0.005 A 
ATOM     23  C   UNL     1      -1.922 -10.060   4.826  0.00  0.00    +0.002 A 
ATOM     24  C   UNL     1      -3.260 -10.352   4.643  0.00  0.00    -0.064 A 
ATOM     25  C   UNL     1      -3.883 -10.024   3.453  0.00  0.00    +0.002 A 
ATOM     26  C   UNL     1      -3.167  -9.401   2.447  0.00  0.00    +0.005 A 
BRANCH  24  27
ATOM     27  C   UNL     1      -4.041 -11.028   5.740  0.00  0.00    -0.043 C 
BRANCH  27  28
ATOM     28  N   UNL     1      -4.636 -10.010   6.616  0.00  0.00    +0.385 N 
ATOM     29  C   UNL     1      -5.307 -10.666   7.749  0.00  0.00    -0.073 C 
ATOM     30  C   UNL     1      -5.647  -9.605   8.796  0.00  0.00    +0.017 C 
ATOM     31  C   UNL     1      -6.372  -8.457   8.142  0.00  0.00    -0.048 A 
ATOM     32  C   UNL     1      -7.067  -7.566   8.945  0.00  0.00    +0.004 A 
ATOM     33  C   UNL     1      -7.740  -6.500   8.382  0.00  0.00    +0.000 A 
ATOM     34  C   UNL     1      -7.721  -6.321   7.011  0.00  0.00    +0.000 A 
ATOM     35  C   UNL     1      -7.031  -7.210   6.211  0.00  0.00    +0.002 A 
ATOM     36  C   UNL     1      -6.355  -8.281   6.775  0.00  0.00    -0.061 A 
ATOM     37  C   UNL     1      -5.622  -9.230   5.863  0.00  0.00    -0.042 C 
ATOM     38  H   UNL     1      -3.912  -9.397   6.961  0.00  0.00    -0.081 HD
ENDBRANCH  27  28
ENDBRANCH  24  27
ENDBRANCH  20  21
ENDBRANCH   3  20
TORSDOF 6
