REMARK  Name = ZINC39280156
REMARK  11 active torsions:
REMARK  status: ('A' for Active; 'I' for Inactive)
REMARK    1  A    between atoms: C_1  and  C_2
REMARK    2  A    between atoms: C_4  and  C_33
REMARK    3  A    between atoms: C_6  and  O_8
REMARK    4  A    between atoms: O_8  and  C_9
REMARK    5  A    between atoms: C_9  and  C_10
REMARK    6  A    between atoms: C_12  and  C_18
REMARK    7  A    between atoms: C_15  and  O_16
REMARK    8  A    between atoms: O_16  and  C_17
REMARK    9  A    between atoms: C_20  and  C_31
REMARK   10  A    between atoms: C_21  and  N_30
REMARK   11  A    between atoms: C_26  and  C_29
REMARK                            x       y       z     vdW  Elec       q    Type
REMARK                         _______ _______ _______ _____ _____    ______ ____
ROOT
ATOM      1  C   UNL     1       0.064  -2.932   4.751  0.00  0.00    +0.032 A 
ATOM      2  C   UNL     1       0.088  -4.300   4.561  0.00  0.00    +0.015 A 
ATOM      3  C   UNL     1       0.104  -5.150   5.651  0.00  0.00    -0.034 A 
ATOM      4  C   UNL     1       0.097  -4.634   6.934  0.00  0.00    +0.008 A 
ATOM      5  C   UNL     1       0.074  -3.266   7.129  0.00  0.00    +0.046 A 
ATOM      6  C   UNL     1       0.063  -2.411   6.037  0.00  0.00    +0.126 A 
ENDROOT
BRANCH   3   7
ATOM      7  C   UNL     1       0.129  -6.642   5.441  0.00  0.00    +0.098 C 
ATOM      8  C   UNL     1       1.349  -7.247   6.111  0.00  0.00    +0.097 C 
ATOM      9  C   UNL     1       1.243  -8.023   7.211  0.00  0.00    +0.195 C 
ATOM     10  O   UNL     1       0.106  -8.382   7.835  0.00  0.00    -0.448 OA
ATOM     11  C   UNL     1      -1.048  -7.568   7.616  0.00  0.00    +0.343 C 
ATOM     12  C   UNL     1      -1.058  -7.281   6.109  0.00  0.00    +0.030 C 
ATOM     13  C   UNL     1      -2.219  -7.714   5.685  0.00  0.00    +0.066 C 
ATOM     14  N   UNL     1      -2.893  -8.323   6.694  0.00  0.00    -0.155 NA
ATOM     15  N   UNL     1      -2.301  -8.306   7.804  0.00  0.00    -0.138 NA
ATOM     16  C   UNL     1      -2.733  -7.559   4.277  0.00  0.00    +0.067 C 
BRANCH   9  17
ATOM     17  N   UNL     1       2.415  -8.494   7.747  0.00  0.00    -0.329 N 
ATOM     18  H   UNL     1       3.263  -8.265   7.335  0.00  0.00    +0.145 HD
ATOM     19  H   UNL     1       2.396  -9.056   8.537  0.00  0.00    +0.145 HD
ENDBRANCH   9  17
BRANCH   8  20
ATOM     20  C   UNL     1       2.646  -6.988   5.563  0.00  0.00    +0.101 C 
ATOM     21  N   UNL     1       3.675  -6.782   5.127  0.00  0.00    -0.191 NA
ENDBRANCH   8  20
ENDBRANCH   3   7
BRANCH   6  22
ATOM     22  O   UNL     1       0.046  -1.065   6.226  0.00  0.00    -0.495 OA
ATOM     23  C   UNL     1       0.046  -0.600   7.578  0.00  0.00    +0.277 C 
ENDBRANCH   6  22
BRANCH   1  24
ATOM     24  C   UNL     1       0.046  -2.005   3.563  0.00  0.00    +0.268 C 
BRANCH  24  25
ATOM     25  O   UNL     1       0.051  -2.775   2.359  0.00  0.00    -0.487 OA
BRANCH  25  31
ATOM     26  C   UNL     1      -0.018   1.503   0.010  0.00  0.00    +0.044 C 
ATOM     27  C   UNL     1       0.002  -0.004   0.002  0.00  0.00    -0.047 A 
ATOM     28  C   UNL     1       0.006  -0.688  -1.200  0.00  0.00    +0.007 A 
ATOM     29  C   UNL     1       0.025  -2.071  -1.210  0.00  0.00    -0.047 A 
ATOM     30  C   UNL     1       0.040  -2.772  -0.020  0.00  0.00    +0.049 A 
ATOM     31  C   UNL     1       0.036  -2.088   1.187  0.00  0.00    +0.121 A 
ATOM     32  C   UNL     1       0.023  -0.701   1.195  0.00  0.00    +0.049 A 
ATOM     33  C   UNL     1       0.029  -2.813  -2.522  0.00  0.00    +0.044 C 
ENDBRANCH  25  31
ENDBRANCH  24  25
ENDBRANCH   1  24
TORSDOF 7
