REMARK  Name = ZINC10042087
REMARK  11 active torsions:
REMARK  status: ('A' for Active; 'I' for Inactive)
REMARK    1  A    between atoms: C_1  and  C_2
REMARK    2  A    between atoms: C_2  and  C_3
REMARK    3  A    between atoms: C_2  and  C_4
REMARK    4  A    between atoms: C_4  and  C_6
REMARK    5  A    between atoms: C_4  and  N_27
REMARK    6  A    between atoms: N_8  and  N_9
REMARK    7  A    between atoms: C_10  and  C_11
REMARK    8  A    between atoms: C_14  and  O_17
REMARK    9  A    between atoms: O_17  and  C_18
REMARK   10  A    between atoms: C_18  and  C_19
REMARK   11  A    between atoms: C_28  and  C_30
REMARK                            x       y       z     vdW  Elec       q    Type
REMARK                         _______ _______ _______ _____ _____    ______ ____
ROOT
ATOM      1  C   UNL     1       3.361  -4.973  -0.778  0.00  0.00    +0.253 C 
ATOM      2  O   UNL     1       4.088  -4.257  -1.434  0.00  0.00    -0.272 OA
ATOM      3  N   UNL     1       3.558  -6.306  -0.769  0.00  0.00    -0.205 N 
ATOM      4  H   UNL     1       2.934  -6.885  -0.304  0.00  0.00    +0.177 HD
ENDROOT
BRANCH   3   5
ATOM      5  N   UNL     1       4.663  -6.856  -1.432  0.00  0.00    -0.188 NA
ATOM      6  C   UNL     1       4.852  -8.140  -1.423  0.00  0.00    +0.138 C 
BRANCH   6   7
ATOM      7  C   UNL     1       6.015  -8.718  -2.121  0.00  0.00    -0.005 A 
ATOM      8  C   UNL     1       6.912  -7.886  -2.796  0.00  0.00    +0.013 A 
ATOM      9  C   UNL     1       8.001  -8.431  -3.443  0.00  0.00    +0.046 A 
ATOM     10  C   UNL     1       8.201  -9.805  -3.432  0.00  0.00    +0.121 A 
ATOM     11  C   UNL     1       7.310 -10.636  -2.766  0.00  0.00    +0.046 A 
ATOM     12  C   UNL     1       6.221 -10.100  -2.113  0.00  0.00    +0.013 A 
BRANCH  10  13
ATOM     13  O   UNL     1       9.272 -10.338  -4.075  0.00  0.00    -0.483 OA
BRANCH  13  14
ATOM     14  C   UNL     1      10.149  -9.426  -4.740  0.00  0.00    +0.324 C 
BRANCH  14  15
ATOM     15  C   UNL     1      11.271 -10.193  -5.392  0.00  0.00    +0.253 C 
ATOM     16  O   UNL     1      11.315 -11.402  -5.297  0.00  0.00    -0.272 OA
ATOM     17  N   UNL     1      12.225  -9.536  -6.081  0.00  0.00    -0.294 N 
ATOM     18  C   UNL     1      12.190  -8.071  -6.216  0.00  0.00    +0.136 C 
ATOM     19  C   UNL     1      13.569  -7.520  -5.819  0.00  0.00    +0.179 C 
ATOM     20  O   UNL     1      14.579  -8.202  -6.566  0.00  0.00    -0.377 OA
ATOM     21  C   UNL     1      14.650  -9.606  -6.309  0.00  0.00    +0.179 C 
ATOM     22  C   UNL     1      13.330 -10.264  -6.726  0.00  0.00    +0.136 C 
ENDBRANCH  14  15
ENDBRANCH  13  14
ENDBRANCH  10  13
ENDBRANCH   6   7
ENDBRANCH   3   5
BRANCH   1  23
ATOM     23  C   UNL     1       2.238  -4.371   0.026  0.00  0.00    +0.163 C 
BRANCH  23  24
ATOM     24  N   UNL     1       1.815  -3.112  -0.591  0.00  0.00    -0.300 N 
ATOM     25  C   UNL     1       0.564  -2.651  -0.393  0.00  0.00    +0.245 C 
ATOM     26  O   UNL     1      -0.214  -3.281   0.297  0.00  0.00    -0.270 OA
ATOM     27  H   UNL     1       2.435  -2.609  -1.142  0.00  0.00    +0.150 HD
BRANCH  25  28
ATOM     28  C   UNL     1       0.137  -1.380  -1.016  0.00  0.00    +0.037 A 
ATOM     29  C   UNL     1      -1.158  -0.900  -0.813  0.00  0.00    +0.014 A 
ATOM     30  C   UNL     1      -1.550   0.286  -1.397  0.00  0.00    +0.021 A 
ATOM     31  C   UNL     1      -0.662   1.001  -2.183  0.00  0.00    +0.041 A 
ATOM     32  C   UNL     1       0.624   0.530  -2.388  0.00  0.00    +0.021 A 
ATOM     33  C   UNL     1       1.028  -0.655  -1.809  0.00  0.00    +0.014 A 
ATOM     34 CL   UNL     1      -1.163   2.493  -2.915  0.00  0.00    -0.084 Cl
ENDBRANCH  25  28
ENDBRANCH  23  24
BRANCH  23  36
ATOM     35  C   UNL     1       1.565  -3.539   2.284  0.00  0.00    +0.009 C 
ATOM     36  C   UNL     1       2.719  -4.104   1.454  0.00  0.00    +0.012 C 
ATOM     37  C   UNL     1       3.207  -5.411   2.081  0.00  0.00    +0.009 C 
ENDBRANCH  23  36
ENDBRANCH   1  23
TORSDOF 9
