REMARK  Name = ZINC63271320
REMARK  5 active torsions:
REMARK  status: ('A' for Active; 'I' for Inactive)
REMARK    1  A    between atoms: C_7  and  C_10
REMARK    2  A    between atoms: C_10  and  C_11
REMARK    3  A    between atoms: C_11  and  N_12
REMARK    4  A    between atoms: C_13  and  C_15
REMARK    5  A    between atoms: C_15  and  N_16
REMARK                            x       y       z     vdW  Elec       q    Type
REMARK                         _______ _______ _______ _____ _____    ______ ____
ROOT
ATOM      1  N   UNL     1      -1.974  -7.006  -3.998  0.00  0.00    -0.291 N 
ATOM      2  C   UNL     1      -2.789  -8.052  -4.242  0.00  0.00    +0.303 C 
ATOM      3  O   UNL     1      -3.265  -8.681  -3.317  0.00  0.00    -0.253 OA
ATOM      4  N   UNL     1      -3.075  -8.401  -5.512  0.00  0.00    -0.284 N 
ATOM      5  C   UNL     1      -2.408  -7.712  -6.620  0.00  0.00    +0.110 C 
ATOM      6  C   UNL     1      -3.424  -7.303  -7.706  0.00  0.00    +0.025 C 
ATOM      7  C   UNL     1      -4.206  -8.558  -8.059  0.00  0.00    +0.029 C 
ATOM      8  C   UNL     1      -5.032  -8.918  -6.785  0.00  0.00    +0.127 C 
ATOM      9  C   UNL     1      -4.054  -9.480  -5.771  0.00  0.00    +0.136 C 
ATOM     10  N   UNL     1      -6.097  -9.761  -7.287  0.00  0.00    -0.282 NA
ATOM     11  C   UNL     1      -6.336  -9.476  -8.536  0.00  0.00    +0.043 C 
ATOM     12  C   UNL     1      -5.360  -8.393  -9.042  0.00  0.00    +0.066 C 
ATOM     13  C   UNL     1      -4.976  -8.696 -10.457  0.00  0.00    +0.003 C 
ATOM     14  C   UNL     1      -5.737  -9.465 -11.231  0.00  0.00    +0.038 C 
ATOM     15  C   UNL     1      -6.983 -10.067 -10.758  0.00  0.00    +0.021 C 
ATOM     16  C   UNL     1      -7.294 -10.072  -9.399  0.00  0.00    +0.025 C 
ATOM     17 CL   UNL     1      -5.231  -9.766 -12.864  0.00  0.00    -0.084 Cl
ATOM     18  H   UNL     1      -1.535  -6.552  -4.734  0.00  0.00    +0.151 HD
ENDROOT
BRANCH   1  19
ATOM     19  C   UNL     1      -1.752  -6.556  -2.622  0.00  0.00    +0.201 C 
BRANCH  19  21
ATOM     20  N   UNL     1      -0.458  -4.797  -1.461  0.00  0.00    -0.314 N 
ATOM     21  C   UNL     1      -0.809  -5.381  -2.624  0.00  0.00    +0.230 C 
ATOM     22  O   UNL     1      -0.366  -4.961  -3.671  0.00  0.00    -0.274 OA
ATOM     23  H   UNL     1      -0.813  -5.133  -0.623  0.00  0.00    +0.149 HD
BRANCH  20  24
ATOM     24  C   UNL     1       0.459  -3.655  -1.462  0.00  0.00    +0.108 C 
BRANCH  24  25
ATOM     25  C   UNL     1       0.690  -3.185  -0.025  0.00  0.00    +0.052 C 
BRANCH  25  32
ATOM     26  C   UNL     1      -0.007   1.351  -0.001  0.00  0.00    +0.001 A 
ATOM     27  C   UNL     1       1.176   2.101  -0.007  0.00  0.00    +0.002 A 
ATOM     28  C   UNL     1       2.400   1.533  -0.018  0.00  0.00    +0.026 A 
ATOM     29  C   UNL     1       2.535   0.117  -0.024  0.00  0.00    +0.043 A 
ATOM     30  N   UNL     1       3.592  -0.659  -0.036  0.00  0.00    -0.380 N 
ATOM     31  C   UNL     1       3.145  -2.057  -0.038  0.00  0.00    +0.144 C 
ATOM     32  C   UNL     1       1.634  -2.010  -0.026  0.00  0.00    -0.040 C 
ATOM     33  C   UNL     1       1.300  -0.699  -0.018  0.00  0.00    -0.001 A 
ATOM     34  C   UNL     1       0.008  -0.002  -0.006  0.00  0.00    +0.010 A 
ATOM     35  H   UNL     1       4.514  -0.360  -0.042  0.00  0.00    +0.160 HD
ENDBRANCH  25  32
ENDBRANCH  24  25
ENDBRANCH  20  24
ENDBRANCH  19  21
ENDBRANCH   1  19
TORSDOF 5
