REMARK  Name = ZINC34733741
REMARK  5 active torsions:
REMARK  status: ('A' for Active; 'I' for Inactive)
REMARK    1  A    between atoms: C_2  and  C_3
REMARK    2  A    between atoms: C_3  and  N_4
REMARK    3  A    between atoms: C_6  and  C_18
REMARK    4  A    between atoms: C_10  and  C_12
REMARK    5  A    between atoms: N_23  and  C_26
REMARK                            x       y       z     vdW  Elec       q    Type
REMARK                         _______ _______ _______ _____ _____    ______ ____
ROOT
ATOM      1  N   UNL     1      -1.322  -1.698  -1.155  0.00  0.00    +0.387 N 
ATOM      2  C   UNL     1      -0.260  -2.696  -0.984  0.00  0.00    -0.065 C 
ATOM      3  C   UNL     1      -0.230  -3.628  -2.197  0.00  0.00    +0.059 C 
ATOM      4  C   UNL     1      -1.582  -4.336  -2.323  0.00  0.00    +0.009 C 
ATOM      5  C   UNL     1      -2.690  -3.284  -2.427  0.00  0.00    -0.010 C 
ATOM      6  C   UNL     1      -2.629  -2.365  -1.205  0.00  0.00    -0.037 C 
ATOM      7  H   UNL     1      -1.171  -1.192  -2.015  0.00  0.00    -0.080 HD
ENDROOT
BRANCH   3   8
ATOM      8  C   UNL     1       0.861  -4.652  -2.018  0.00  0.00    +0.217 C 
ATOM      9  O   UNL     1       0.641  -5.670  -1.395  0.00  0.00    -0.275 OA
ATOM     10  N   UNL     1       2.081  -4.438  -2.550  0.00  0.00    -0.298 N 
ATOM     11  C   UNL     1       2.400  -3.158  -3.198  0.00  0.00    +0.126 C 
ATOM     12  C   UNL     1       3.650  -2.570  -2.533  0.00  0.00    +0.124 C 
ATOM     13  N   UNL     1       4.685  -3.611  -2.474  0.00  0.00    -0.325 N 
ATOM     14  C   UNL     1       4.366  -4.891  -1.825  0.00  0.00    +0.124 C 
ATOM     15  C   UNL     1       3.118  -5.478  -2.486  0.00  0.00    +0.126 C 
BRANCH  13  16
ATOM     16  C   UNL     1       5.950  -3.389  -3.026  0.00  0.00    +0.065 A 
ATOM     17  C   UNL     1       6.963  -2.845  -2.247  0.00  0.00    +0.026 A 
ATOM     18  C   UNL     1       8.213  -2.627  -2.795  0.00  0.00    +0.002 A 
ATOM     19  C   UNL     1       8.456  -2.949  -4.117  0.00  0.00    +0.003 A 
ATOM     20  C   UNL     1       7.451  -3.490  -4.897  0.00  0.00    +0.040 A 
ATOM     21  C   UNL     1       6.199  -3.717  -4.354  0.00  0.00    +0.144 A 
ATOM     22  F   UNL     1       5.219  -4.252  -5.114  0.00  0.00    -0.204 F 
ENDBRANCH  13  16
ENDBRANCH   3   8
BRANCH   6  23
ATOM     23  C   UNL     1      -3.718  -1.328  -1.302  0.00  0.00    -0.061 A 
ATOM     24  C   UNL     1      -3.545  -0.217  -2.107  0.00  0.00    +0.002 A 
ATOM     25  C   UNL     1      -4.544   0.734  -2.196  0.00  0.00    +0.000 A 
ATOM     26  C   UNL     1      -5.716   0.574  -1.481  0.00  0.00    +0.000 A 
ATOM     27  C   UNL     1      -5.890  -0.537  -0.677  0.00  0.00    +0.000 A 
ATOM     28  C   UNL     1      -4.892  -1.490  -0.591  0.00  0.00    +0.002 A 
ENDBRANCH   6  23
BRANCH   1  29
ATOM     29  C   UNL     1      -1.296  -0.758  -0.026  0.00  0.00    -0.051 C 
BRANCH  29  31
ATOM     30  C   UNL     1      -0.024   1.325  -0.053  0.00  0.00    +0.002 C 
ATOM     31  C   UNL     1      -0.003   0.016  -0.046  0.00  0.00    -0.053 C 
ENDBRANCH  29  31
ENDBRANCH   1  29
TORSDOF 5
