REMARK  Name = ZINC37205596
REMARK  8 active torsions:
REMARK  status: ('A' for Active; 'I' for Inactive)
REMARK    1  A    between atoms: C_1  and  C_2
REMARK    2  A    between atoms: C_2  and  C_3
REMARK    3  A    between atoms: C_2  and  C_5
REMARK    4  A    between atoms: C_2  and  N_8
REMARK    5  A    between atoms: C_9  and  C_11
REMARK    6  A    between atoms: C_11  and  S_12
REMARK    7  A    between atoms: S_12  and  C_13
REMARK    8  A    between atoms: C_18  and  N_19
REMARK                            x       y       z     vdW  Elec       q    Type
REMARK                         _______ _______ _______ _____ _____    ______ ____
ROOT
ATOM      1  C   UNL     1       2.677  -0.618  -2.667  0.00  0.00    +0.170 C 
ENDROOT
BRANCH   1   3
ATOM      2  N   UNL     1       0.688  -0.476  -1.203  0.00  0.00    -0.297 N 
ATOM      3  C   UNL     1       1.972  -0.132  -1.427  0.00  0.00    +0.224 C 
ATOM      4  O   UNL     1       2.559   0.569  -0.630  0.00  0.00    -0.275 OA
ATOM      5  H   UNL     1       0.218  -1.037  -1.840  0.00  0.00    +0.150 HD
BRANCH   2   7
ATOM      6  C   UNL     1      -0.019   1.526   0.010  0.00  0.00    +0.048 C 
ATOM      7  C   UNL     1       0.002  -0.004   0.002  0.00  0.00    +0.121 C 
BRANCH   7   8
ATOM      8  C   UNL     1      -1.433  -0.534   0.013  0.00  0.00    +0.026 C 
ATOM      9  C   UNL     1      -2.566   0.493  -0.057  0.00  0.00    +0.007 C 
ATOM     10  C   UNL     1      -2.283  -0.247   1.253  0.00  0.00    +0.007 C 
ENDBRANCH   7   8
BRANCH   7  11
ATOM     11  C   UNL     1       0.714  -0.492   1.195  0.00  0.00    +0.088 C 
ATOM     12  N   UNL     1       1.263  -0.868   2.115  0.00  0.00    -0.194 NA
ENDBRANCH   7  11
ENDBRANCH   2   7
ENDBRANCH   1   3
BRANCH   1  13
ATOM     13  S   UNL     1       4.379   0.010  -2.680  0.00  0.00    -0.114 S 
BRANCH  13  14
ATOM     14  C   UNL     1       5.060  -0.637  -4.170  0.00  0.00    +0.029 A 
ATOM     15  C   UNL     1       4.283  -1.425  -5.006  0.00  0.00    +0.017 A 
ATOM     16  C   UNL     1       4.819  -1.931  -6.175  0.00  0.00    +0.016 A 
ATOM     17  C   UNL     1       6.131  -1.654  -6.516  0.00  0.00    +0.020 A 
ATOM     18  C   UNL     1       6.913  -0.868  -5.688  0.00  0.00    +0.039 A 
ATOM     19  C   UNL     1       6.382  -0.352  -4.516  0.00  0.00    +0.039 A 
ATOM     20 BR   UNL     1       6.857  -2.351  -8.117  0.00  0.00    -0.050 Br
BRANCH  19  21
ATOM     21  N   UNL     1       7.170   0.447  -3.680  0.00  0.00    -0.357 N 
ATOM     22  H   UNL     1       6.797   0.804  -2.858  0.00  0.00    +0.142 HD
ATOM     23  H   UNL     1       8.088   0.644  -3.922  0.00  0.00    +0.142 HD
ENDBRANCH  19  21
ENDBRANCH  13  14
ENDBRANCH   1  13
TORSDOF 7
