REMARK  Name = ZINC35969283
REMARK  7 active torsions:
REMARK  status: ('A' for Active; 'I' for Inactive)
REMARK    1  A    between atoms: C_1  and  C_2
REMARK    2  A    between atoms: C_5  and  C_9
REMARK    3  A    between atoms: C_6  and  C_8
REMARK    4  A    between atoms: N_14  and  C_17
REMARK    5  A    between atoms: C_17  and  C_19
REMARK    6  A    between atoms: C_17  and  C_25
REMARK    7  A    between atoms: N_32  and  C_36
REMARK                            x       y       z     vdW  Elec       q    Type
REMARK                         _______ _______ _______ _____ _____    ______ ____
ROOT
ATOM      1  C   UNL     1       0.298  -6.189  -0.070  0.00  0.00    +0.142 C 
ATOM      2  C   UNL     1       1.778  -5.947   0.149  0.00  0.00    +0.058 C 
ATOM      3  C   UNL     1       2.622  -6.284  -0.847  0.00  0.00    +0.042 C 
ATOM      4  C   UNL     1       4.012  -5.937  -0.363  0.00  0.00    +0.160 C 
ATOM      5  N   UNL     1       3.816  -5.385   0.985  0.00  0.00    -0.277 N 
ATOM      6  C   UNL     1       2.495  -5.411   1.238  0.00  0.00    +0.247 C 
ATOM      7  O   UNL     1       1.984  -5.023   2.273  0.00  0.00    -0.270 OA
ATOM      8  N   UNL     1       2.161  -6.826  -2.013  0.00  0.00    -0.260 N 
ATOM      9  C   UNL     1       0.865  -7.062  -2.259  0.00  0.00    +0.307 C 
ATOM     10  O   UNL     1       0.548  -7.548  -3.327  0.00  0.00    -0.252 OA
ATOM     11  N   UNL     1      -0.097  -6.776  -1.361  0.00  0.00    -0.288 N 
ATOM     12  C   UNL     1       3.136  -7.168  -3.051  0.00  0.00    +0.139 C 
ATOM     13  H   UNL     1      -1.030  -6.955  -1.560  0.00  0.00    +0.151 HD
ENDROOT
BRANCH   1  18
ATOM     14  C   UNL     1      -2.439  -1.131   0.496  0.00  0.00    +0.044 C 
ATOM     15  C   UNL     1      -1.725  -2.450   0.349  0.00  0.00    -0.050 A 
ATOM     16  C   UNL     1      -0.385  -2.477   0.010  0.00  0.00    +0.004 A 
ATOM     17  C   UNL     1       0.270  -3.686  -0.125  0.00  0.00    +0.006 A 
ATOM     18  C   UNL     1      -0.415  -4.870   0.079  0.00  0.00    -0.020 A 
ATOM     19  C   UNL     1      -1.755  -4.843   0.418  0.00  0.00    -0.045 A 
ATOM     20  C   UNL     1      -2.409  -3.633   0.558  0.00  0.00    +0.007 A 
ATOM     21  C   UNL     1      -2.502  -6.133   0.640  0.00  0.00    +0.044 C 
ENDBRANCH   1  18
BRANCH   5  22
ATOM     22  C   UNL     1       4.863  -4.896   1.885  0.00  0.00    +0.193 C 
BRANCH  22  23
ATOM     23  C   UNL     1       4.833  -5.688   3.168  0.00  0.00    +0.241 C 
ATOM     24  O   UNL     1       3.853  -6.343   3.453  0.00  0.00    -0.273 OA
ATOM     25  N   UNL     1       5.895  -5.667   3.997  0.00  0.00    -0.300 N 
ATOM     26  C   UNL     1       7.098  -4.840   3.829  0.00  0.00    +0.108 C 
ATOM     27  C   UNL     1       8.049  -5.168   4.999  0.00  0.00    +0.020 C 
ATOM     28  C   UNL     1       7.571  -6.574   5.450  0.00  0.00    +0.020 C 
ATOM     29  C   UNL     1       6.040  -6.467   5.227  0.00  0.00    +0.108 C 
ENDBRANCH  22  23
BRANCH  22  30
ATOM     30  C   UNL     1       4.626  -3.439   2.189  0.00  0.00    -0.018 A 
ATOM     31  C   UNL     1       3.631  -3.071   3.075  0.00  0.00    +0.006 A 
ATOM     32  C   UNL     1       3.413  -1.734   3.353  0.00  0.00    +0.000 A 
ATOM     33  C   UNL     1       4.191  -0.766   2.745  0.00  0.00    +0.000 A 
ATOM     34  C   UNL     1       5.187  -1.135   1.860  0.00  0.00    +0.000 A 
ATOM     35  C   UNL     1       5.407  -2.471   1.585  0.00  0.00    +0.006 A 
ENDBRANCH  22  30
ENDBRANCH   5  22
TORSDOF 4
