REMARK  Name = ZINC11785979
REMARK  11 active torsions:
REMARK  status: ('A' for Active; 'I' for Inactive)
REMARK    1  A    between atoms: C_1  and  C_2
REMARK    2  A    between atoms: C_2  and  N_3
REMARK    3  A    between atoms: C_7  and  C_26
REMARK    4  A    between atoms: C_14  and  C_15
REMARK    5  A    between atoms: C_14  and  N_62
REMARK    6  A    between atoms: C_16  and  C_17
REMARK    7  A    between atoms: C_20  and  N_23
REMARK    8  A    between atoms: N_23  and  C_24
REMARK    9  A    between atoms: N_23  and  C_25
REMARK   10  A    between atoms: C_26  and  O_28
REMARK   11  A    between atoms: O_28  and  C_29
REMARK                            x       y       z     vdW  Elec       q    Type
REMARK                         _______ _______ _______ _____ _____    ______ ____
ROOT
ATOM      1  N   UNL     1       0.904   2.528   5.196  0.00  0.00    -0.295 N 
ATOM      2  C   UNL     1       0.474   3.738   4.798  0.00  0.00    +0.217 C 
ATOM      3  O   UNL     1       0.987   4.794   5.103  0.00  0.00    -0.276 OA
ATOM      4  C   UNL     1      -0.745   3.591   3.913  0.00  0.00    +0.112 C 
ATOM      5  C   UNL     1      -0.737   2.100   3.500  0.00  0.00    +0.130 C 
ATOM      6  C   UNL     1       0.060   1.461   4.654  0.00  0.00    +0.047 C 
ATOM      7  C   UNL     1       0.920   0.318   4.118  0.00  0.00    +0.008 C 
ATOM      8  C   UNL     1       1.662  -0.345   5.282  0.00  0.00    -0.076 C 
ATOM      9  C   UNL     1      -0.099   0.260   6.834  0.00  0.00    -0.076 C 
ATOM     10  C   UNL     1      -0.900   0.942   5.722  0.00  0.00    +0.008 C 
ATOM     11  N   UNL     1       0.671  -0.860   6.251  0.00  0.00    +0.382 N 
ATOM     12  H   UNL     1       0.025  -1.490   5.763  0.00  0.00    -0.081 HD
ENDROOT
BRANCH   1  14
ATOM     13  C   UNL     1       3.313   2.104   5.198  0.00  0.00    +0.024 C 
ATOM     14  C   UNL     1       2.066   2.306   6.061  0.00  0.00    +0.105 C 
ENDBRANCH   1  14
BRANCH   5  15
ATOM     15  C   UNL     1      -0.029   1.908   2.184  0.00  0.00    +0.312 C 
ATOM     16  O   UNL     1       0.808   2.703   1.826  0.00  0.00    -0.250 OA
BRANCH  15  17
ATOM     17  O   UNL     1      -0.329   0.854   1.408  0.00  0.00    -0.468 OA
ATOM     18  C   UNL     1       0.392   0.732   0.154  0.00  0.00    +0.280 C 
ENDBRANCH  15  17
ENDBRANCH   5  15
BRANCH  11  19
ATOM     19  C   UNL     1       1.357  -1.612   7.322  0.00  0.00    -0.051 C 
BRANCH  19  20
ATOM     20  C   UNL     1       2.343  -2.567   6.700  0.00  0.00    -0.045 C 
ATOM     21  C   UNL     1       3.613  -2.551   7.082  0.00  0.00    +0.002 C 
BRANCH  21  22
ATOM     22  C   UNL     1       4.580  -3.487   6.473  0.00  0.00    -0.025 A 
ATOM     23  C   UNL     1       4.156  -4.394   5.500  0.00  0.00    +0.010 A 
ATOM     24  C   UNL     1       5.061  -5.263   4.930  0.00  0.00    +0.023 A 
ATOM     25  C   UNL     1       6.393  -5.245   5.331  0.00  0.00    +0.029 A 
ATOM     26  C   UNL     1       6.816  -4.346   6.304  0.00  0.00    +0.023 A 
ATOM     27  C   UNL     1       5.917  -3.471   6.873  0.00  0.00    +0.010 A 
BRANCH  25  28
ATOM     28  N   UNL     1       7.306  -6.130   4.756  0.00  0.00    -0.336 N 
ATOM     29  C   UNL     1       8.730  -6.027   5.081  0.00  0.00    +0.129 C 
ATOM     30  C   UNL     1       6.839  -7.163   3.828  0.00  0.00    +0.129 C 
ENDBRANCH  25  28
ENDBRANCH  21  22
ENDBRANCH  19  20
ENDBRANCH  11  19
TORSDOF 7
