REMARK  Name = ZINC38629957
REMARK  8 active torsions:
REMARK  status: ('A' for Active; 'I' for Inactive)
REMARK    1  A    between atoms: C_1  and  N_2
REMARK    2  A    between atoms: N_2  and  C_3
REMARK    3  A    between atoms: N_2  and  C_4
REMARK    4  A    between atoms: C_4  and  C_6
REMARK    5  A    between atoms: C_4  and  C_21
REMARK    6  A    between atoms: C_6  and  N_7
REMARK    7  A    between atoms: C_8  and  C_10
REMARK    8  A    between atoms: C_10  and  N_11
REMARK                            x       y       z     vdW  Elec       q    Type
REMARK                         _______ _______ _______ _____ _____    ______ ____
ROOT
ATOM      1  N   UNL     1      -1.702   1.302  -1.405  0.00  0.00    -0.315 N 
ATOM      2  C   UNL     1      -2.076   1.923  -2.541  0.00  0.00    +0.233 C 
ATOM      3  O   UNL     1      -2.645   1.302  -3.413  0.00  0.00    -0.274 OA
ATOM      4  H   UNL     1      -1.246   1.799  -0.708  0.00  0.00    +0.149 HD
ENDROOT
BRANCH   1   5
ATOM      5  C   UNL     1      -1.983  -0.125  -1.224  0.00  0.00    +0.096 C 
BRANCH   5   6
ATOM      6  C   UNL     1      -1.371  -0.601   0.095  0.00  0.00    +0.016 C 
BRANCH   6   7
ATOM      7  C   UNL     1       0.130  -0.488   0.023  0.00  0.00    +0.093 A 
ATOM      8  C   UNL     1       0.983  -1.497  -0.231  0.00  0.00    +0.043 A 
ATOM      9  C   UNL     1       2.285  -0.947  -0.204  0.00  0.00    +0.041 A 
ATOM     10  C   UNL     1       2.150   0.364   0.066  0.00  0.00    +0.195 A 
ATOM     11  O   UNL     1       0.842   0.637   0.196  0.00  0.00    -0.469 OA
ENDBRANCH   6   7
BRANCH   6  13
ATOM     12  C   UNL     1      -3.338   0.143   1.249  0.00  0.00    -0.096 C 
ATOM     13  N   UNL     1      -1.873   0.232   1.196  0.00  0.00    +0.384 N 
ATOM     14  C   UNL     1      -1.308  -0.244   2.466  0.00  0.00    -0.096 C 
ATOM     15  H   UNL     1      -1.599   1.191   1.044  0.00  0.00    -0.082 HD
ENDBRANCH   6  13
ENDBRANCH   5   6
ENDBRANCH   1   5
BRANCH   2  16
ATOM     16  C   UNL     1      -1.787   3.390  -2.728  0.00  0.00    +0.224 C 
BRANCH  16  17
ATOM     17  N   UNL     1      -2.289   3.825  -4.033  0.00  0.00    -0.265 N 
ATOM     18  C   UNL     1      -1.582   3.810  -5.235  0.00  0.00    +0.091 A 
ATOM     19  C   UNL     1      -0.296   3.421  -5.579  0.00  0.00    +0.030 A 
ATOM     20  C   UNL     1       0.127   3.529  -6.889  0.00  0.00    +0.002 A 
ATOM     21  C   UNL     1      -0.728   4.023  -7.858  0.00  0.00    +0.004 A 
ATOM     22  C   UNL     1      -2.011   4.412  -7.524  0.00  0.00    +0.048 A 
ATOM     23  C   UNL     1      -2.445   4.308  -6.211  0.00  0.00    +0.157 A 
ATOM     24  O   UNL     1      -3.617   4.604  -5.599  0.00  0.00    -0.407 OA
ATOM     25  C   UNL     1      -3.520   4.307  -4.294  0.00  0.00    +0.422 A 
ATOM     26  O   UNL     1      -4.405   4.453  -3.473  0.00  0.00    -0.223 OA
ENDBRANCH  16  17
ENDBRANCH   2  16
TORSDOF 6
