REMARK  Name = ZINC10019917
REMARK  8 active torsions:
REMARK  status: ('A' for Active; 'I' for Inactive)
REMARK    1  A    between atoms: C_1  and  C_2
REMARK    2  A    between atoms: C_5  and  S_8
REMARK    3  A    between atoms: S_8  and  N_11
REMARK    4  A    between atoms: N_11  and  C_12
REMARK    5  A    between atoms: C_15  and  C_18
REMARK    6  A    between atoms: N_20  and  C_21
REMARK    7  A    between atoms: C_21  and  C_22
REMARK    8  A    between atoms: C_31  and  C_37
REMARK                            x       y       z     vdW  Elec       q    Type
REMARK                         _______ _______ _______ _____ _____    ______ ____
ROOT
ATOM      1  C   UNL     1       3.459   4.438   0.070  0.00  0.00    +0.252 C 
ATOM      2  O   UNL     1       4.645   4.399  -0.195  0.00  0.00    -0.270 OA
ATOM      3  N   UNL     1       2.991   3.806   1.164  0.00  0.00    -0.244 N 
ATOM      4  C   UNL     1       3.874   3.227   2.059  0.00  0.00    +0.168 A 
ATOM      5  N   UNL     1       5.186   3.185   2.012  0.00  0.00    -0.224 NA
ATOM      6  C   UNL     1       5.928   2.583   2.967  0.00  0.00    +0.083 A 
ATOM      7  C   UNL     1       7.336   2.473   3.038  0.00  0.00    -0.024 A 
ATOM      8  C   UNL     1       7.935   1.817   4.082  0.00  0.00    +0.005 A 
ATOM      9  C   UNL     1       7.189   1.243   5.101  0.00  0.00    +0.001 A 
ATOM     10  C   UNL     1       5.810   1.333   5.064  0.00  0.00    +0.017 A 
ATOM     11  C   UNL     1       5.201   1.986   4.022  0.00  0.00    +0.041 A 
ATOM     12  S   UNL     1       3.519   2.339   3.569  0.00  0.00    -0.052 S 
ATOM     13  C   UNL     1       8.187   3.081   1.953  0.00  0.00    +0.046 C 
ENDROOT
BRANCH   1  17
ATOM     14  C   UNL     1       0.790   6.571  -2.452  0.00  0.00    +0.048 A 
ATOM     15  C   UNL     1       2.000   7.148  -2.074  0.00  0.00    +0.025 A 
ATOM     16  C   UNL     1       2.866   6.460  -1.256  0.00  0.00    +0.015 A 
ATOM     17  C   UNL     1       2.532   5.179  -0.806  0.00  0.00    +0.037 A 
ATOM     18  C   UNL     1       1.319   4.600  -1.192  0.00  0.00    +0.015 A 
ATOM     19  C   UNL     1       0.455   5.295  -2.005  0.00  0.00    +0.025 A 
BRANCH  14  20
ATOM     20  N   UNL     1      -0.083   7.269  -3.278  0.00  0.00    -0.216 N 
ATOM     21  H   UNL     1      -0.284   8.200  -3.095  0.00  0.00    +0.174 HD
BRANCH  20  22
ATOM     22  S   UNL     1      -0.780   6.511  -4.575  0.00  0.00    +0.072 S 
ATOM     23  O   UNL     1      -1.369   5.317  -4.079  0.00  0.00    -0.150 OA
ATOM     24  O   UNL     1      -1.530   7.499  -5.269  0.00  0.00    -0.150 OA
BRANCH  22  29
ATOM     25  C   UNL     1       3.684   4.825  -8.268  0.00  0.00    +0.044 C 
ATOM     26  C   UNL     1       2.569   5.246  -7.346  0.00  0.00    -0.050 A 
ATOM     27  C   UNL     1       2.061   4.351  -6.422  0.00  0.00    +0.005 A 
ATOM     28  C   UNL     1       1.038   4.738  -5.576  0.00  0.00    +0.029 A 
ATOM     29  C   UNL     1       0.524   6.018  -5.653  0.00  0.00    +0.109 A 
ATOM     30  C   UNL     1       1.028   6.911  -6.580  0.00  0.00    +0.029 A 
ATOM     31  C   UNL     1       2.054   6.527  -7.423  0.00  0.00    +0.005 A 
ENDBRANCH  22  29
ENDBRANCH  20  22
ENDBRANCH  14  20
ENDBRANCH   1  17
BRANCH   3  32
ATOM     32  C   UNL     1       1.548   3.731   1.407  0.00  0.00    +0.147 C 
BRANCH  32  33
ATOM     33  C   UNL     1       1.022   2.373   0.935  0.00  0.00    +0.136 C 
ATOM     34  C   UNL     1      -0.520   2.335   1.021  0.00  0.00    +0.035 C 
ATOM     35  C   UNL     1      -0.835   0.892   1.472  0.00  0.00    +0.031 C 
ATOM     36  C   UNL     1       0.553   0.228   1.606  0.00  0.00    +0.160 C 
ATOM     37  O   UNL     1       1.467   1.325   1.824  0.00  0.00    -0.375 OA
ENDBRANCH  32  33
ENDBRANCH   3  32
TORSDOF 6
