REMARK  Name = ZINC38734886
REMARK  5 active torsions:
REMARK  status: ('A' for Active; 'I' for Inactive)
REMARK    1  A    between atoms: C_9  and  S_10
REMARK    2  A    between atoms: S_10  and  C_11
REMARK    3  A    between atoms: C_11  and  C_12
REMARK    4  A    between atoms: C_15  and  C_18
REMARK    5  A    between atoms: N_20  and  C_21
REMARK                            x       y       z     vdW  Elec       q    Type
REMARK                         _______ _______ _______ _____ _____    ______ ____
ROOT
ATOM      1  C   UNL     1       7.425  -1.997  -0.083  0.00  0.00    -0.037 A 
ATOM      2  C   UNL     1       8.097  -1.914  -1.289  0.00  0.00    +0.005 A 
ATOM      3  C   UNL     1       9.469  -1.772  -1.309  0.00  0.00    +0.013 A 
ATOM      4  C   UNL     1      10.179  -1.711  -0.109  0.00  0.00    +0.037 A 
ATOM      5  C   UNL     1       9.494  -1.795   1.104  0.00  0.00    +0.013 A 
ATOM      6  C   UNL     1       8.122  -1.932   1.111  0.00  0.00    +0.005 A 
ENDROOT
BRANCH   4   7
ATOM      7  C   UNL     1      11.649  -1.559  -0.123  0.00  0.00    +0.244 C 
ATOM      8  O   UNL     1      12.242  -1.486  -1.182  0.00  0.00    -0.270 OA
ATOM      9  N   UNL     1      12.332  -1.500   1.037  0.00  0.00    -0.306 N 
ATOM     10  H   UNL     1      11.858  -1.559   1.882  0.00  0.00    +0.150 HD
BRANCH   9  11
ATOM     11  C   UNL     1      13.789  -1.349   1.023  0.00  0.00    +0.036 C 
ATOM     12  C   UNL     1      14.160  -0.048   0.310  0.00  0.00    +0.029 C 
ATOM     13  C   UNL     1      15.682   0.110   0.296  0.00  0.00    -0.008 C 
ATOM     14  C   UNL     1      16.204   0.149   1.733  0.00  0.00    +0.007 C 
ATOM     15  C   UNL     1      15.833  -1.153   2.446  0.00  0.00    -0.008 C 
ATOM     16  C   UNL     1      14.312  -1.311   2.461  0.00  0.00    +0.029 C 
ATOM     17  C   UNL     1      16.462  -2.336   1.706  0.00  0.00    +0.007 C 
ATOM     18  C   UNL     1      15.939  -2.375   0.269  0.00  0.00    -0.008 C 
ATOM     19  C   UNL     1      16.310  -1.073  -0.444  0.00  0.00    +0.007 C 
ATOM     20  C   UNL     1      14.417  -2.533   0.284  0.00  0.00    +0.029 C 
ENDBRANCH   9  11
ENDBRANCH   4   7
BRANCH   1  21
ATOM     21  C   UNL     1       5.926  -2.153  -0.068  0.00  0.00    +0.112 C 
BRANCH  21  22
ATOM     22  S   UNL     1       5.147  -0.515  -0.052  0.00  0.00    -0.081 S 
BRANCH  22  31
ATOM     23  C   UNL     1      -0.016   1.355   0.009  0.00  0.00    +0.005 A 
ATOM     24  C   UNL     1       1.194   2.072   0.002  0.00  0.00    +0.018 A 
ATOM     25  C   UNL     1       2.374   1.421  -0.013  0.00  0.00    +0.095 A 
ATOM     26  N   UNL     1       2.411   0.054  -0.021  0.00  0.00    -0.278 N 
ATOM     27  C   UNL     1       1.241  -0.676  -0.013  0.00  0.00    +0.162 A 
ATOM     28  C   UNL     1       0.002  -0.004   0.002  0.00  0.00    +0.049 A 
ATOM     29  N   UNL     1       1.584  -1.951  -0.024  0.00  0.00    -0.129 NA
ATOM     30  N   UNL     1       2.866  -2.055  -0.037  0.00  0.00    -0.122 NA
ATOM     31  C   UNL     1       3.420  -0.863  -0.036  0.00  0.00    +0.196 A 
ENDBRANCH  22  31
ENDBRANCH  21  22
ENDBRANCH   1  21
TORSDOF 5
