REMARK  Name = ZINC01133903
REMARK  7 active torsions:
REMARK  status: ('A' for Active; 'I' for Inactive)
REMARK    1  A    between atoms: C_1  and  C_2
REMARK    2  A    between atoms: C_5  and  S_8
REMARK    3  A    between atoms: S_8  and  N_11
REMARK    4  A    between atoms: N_11  and  C_12
REMARK    5  A    between atoms: C_17  and  C_18
REMARK    6  A    between atoms: C_18  and  N_19
REMARK    7  A    between atoms: C_24  and  C_26
REMARK                            x       y       z     vdW  Elec       q    Type
REMARK                         _______ _______ _______ _____ _____    ______ ____
ROOT
ATOM      1  C   UNL     1       2.497  -4.623   1.011  0.00  0.00    +0.053 A 
ATOM      2  C   UNL     1       2.036  -4.640   2.321  0.00  0.00    +0.025 A 
ATOM      3  C   UNL     1       2.876  -4.267   3.352  0.00  0.00    +0.002 A 
ATOM      4  C   UNL     1       4.175  -3.877   3.082  0.00  0.00    +0.000 A 
ATOM      5  C   UNL     1       4.637  -3.858   1.779  0.00  0.00    +0.007 A 
ATOM      6  C   UNL     1       3.804  -4.236   0.743  0.00  0.00    -0.008 A 
ENDROOT
BRANCH   1   7
ATOM      7  N   UNL     1       1.651  -4.999  -0.034  0.00  0.00    -0.216 N 
ATOM      8  H   UNL     1       2.008  -5.477  -0.799  0.00  0.00    +0.174 HD
BRANCH   7   9
ATOM      9  S   UNL     1       0.038  -4.631   0.033  0.00  0.00    +0.072 S 
ATOM     10  O   UNL     1      -0.442  -5.135   1.272  0.00  0.00    -0.150 OA
ATOM     11  O   UNL     1      -0.520  -5.020  -1.215  0.00  0.00    -0.150 OA
BRANCH   9  16
ATOM     12  C   UNL     1      -0.413   1.379   0.323  0.00  0.00    +0.044 C 
ATOM     13  C   UNL     1      -0.300  -0.122   0.250  0.00  0.00    -0.050 A 
ATOM     14  C   UNL     1      -0.285  -0.756  -0.978  0.00  0.00    +0.005 A 
ATOM     15  C   UNL     1      -0.182  -2.133  -1.044  0.00  0.00    +0.029 A 
ATOM     16  C   UNL     1      -0.093  -2.876   0.118  0.00  0.00    +0.109 A 
ATOM     17  C   UNL     1      -0.107  -2.243   1.346  0.00  0.00    +0.029 A 
ATOM     18  C   UNL     1      -0.206  -0.865   1.412  0.00  0.00    +0.005 A 
ENDBRANCH   9  16
ENDBRANCH   7   9
ENDBRANCH   1   7
BRANCH   6  19
ATOM     19  C   UNL     1       4.311  -4.221  -0.676  0.00  0.00    +0.140 C 
BRANCH  19  20
ATOM     20  N   UNL     1       3.852  -3.002  -1.346  0.00  0.00    -0.326 N 
ATOM     21  C   UNL     1       4.197  -2.766  -2.672  0.00  0.00    +0.097 A 
ATOM     22  C   UNL     1       4.973  -3.694  -3.358  0.00  0.00    +0.041 A 
ATOM     23  C   UNL     1       5.309  -3.447  -4.677  0.00  0.00    +0.005 A 
ATOM     24  C   UNL     1       4.855  -2.275  -5.267  0.00  0.00    +0.021 A 
ATOM     25  C   UNL     1       4.088  -1.398  -4.527  0.00  0.00    +0.014 A 
ATOM     26  N   UNL     1       3.778  -1.663  -3.272  0.00  0.00    -0.347 N 
ATOM     27  C   UNL     1       3.593  -0.124  -5.163  0.00  0.00    +0.063 C 
ATOM     28  H   UNL     1       3.307  -2.360  -0.865  0.00  0.00    +0.148 HD
ATOM     29  H   UNL     1       3.234  -1.031  -2.776  0.00  0.00    +0.167 HD
ENDBRANCH  19  20
ENDBRANCH   6  19
TORSDOF 5
