REMARK  Name = ZINC17085810
REMARK  7 active torsions:
REMARK  status: ('A' for Active; 'I' for Inactive)
REMARK    1  A    between atoms: C_1  and  C_2
REMARK    2  A    between atoms: C_2  and  C_3
REMARK    3  A    between atoms: C_2  and  C_4
REMARK    4  A    between atoms: C_2  and  C_5
REMARK    5  A    between atoms: C_14  and  O_28
REMARK    6  A    between atoms: C_16  and  C_19
REMARK    7  A    between atoms: C_24  and  O_25
REMARK                            x       y       z     vdW  Elec       q    Type
REMARK                         _______ _______ _______ _____ _____    ______ ____
ROOT
ATOM      1  C   UNL     1       6.981  -0.402   3.420  0.00  0.00    -0.000 C 
ATOM      2  C   UNL     1       6.516   1.039   3.650  0.00  0.00    +0.009 C 
ATOM      3  C   UNL     1       5.188   1.278   2.930  0.00  0.00    +0.037 C 
ATOM      4  C   UNL     1       4.202   0.193   3.347  0.00  0.00    -0.023 A 
ATOM      5  C   UNL     1       4.636  -0.960   3.906  0.00  0.00    -0.004 A 
ATOM      6  S   UNL     1       3.163  -1.897   4.221  0.00  0.00    -0.078 S 
ATOM      7  C   UNL     1       2.007  -0.783   3.628  0.00  0.00    +0.080 A 
ATOM      8  C   UNL     1       2.763   0.308   3.183  0.00  0.00    +0.068 A 
ATOM      9  C   UNL     1       2.024   1.452   2.591  0.00  0.00    +0.220 C 
ATOM     10  N   UNL     1       0.754   1.292   2.342  0.00  0.00    -0.223 NA
ATOM     11  C   UNL     1       0.026   0.040   2.508  0.00  0.00    +0.227 C 
ATOM     12  N   UNL     1       0.636  -0.812   3.545  0.00  0.00    -0.313 N 
ATOM     13  C   UNL     1       6.053  -1.350   4.192  0.00  0.00    +0.046 C 
ATOM     14  H   UNL     1       0.099  -1.364   4.135  0.00  0.00    +0.149 HD
ENDROOT
BRANCH  11  15
ATOM     15  C   UNL     1       0.023  -0.705   1.198  0.00  0.00    +0.038 A 
ATOM     16  C   UNL     1       0.042  -2.087   1.189  0.00  0.00    +0.026 A 
ATOM     17  C   UNL     1       0.040  -2.771  -0.013  0.00  0.00    +0.020 A 
ATOM     18  C   UNL     1       0.020  -2.075  -1.208  0.00  0.00    +0.039 A 
ATOM     19  C   UNL     1      -0.006  -0.693  -1.204  0.00  0.00    +0.084 A 
ATOM     20  C   UNL     1       0.002  -0.004   0.002  0.00  0.00    +0.142 A 
ATOM     21 CL   UNL     1      -0.039   0.181  -2.703  0.00  0.00    -0.080 Cl
ATOM     22 BR   UNL     1       0.067  -4.662  -0.022  0.00  0.00    -0.050 Br
BRANCH  20  23
ATOM     23  O   UNL     1      -0.016   1.355   0.009  0.00  0.00    -0.505 OA
ATOM     24  H   UNL     1       0.862   1.760   0.003  0.00  0.00    +0.292 HD
ENDBRANCH  20  23
ENDBRANCH  11  15
BRANCH   1  26
ATOM     25  C   UNL     1       8.470  -0.246   5.420  0.00  0.00    +0.011 C 
ATOM     26  C   UNL     1       8.416  -0.565   3.925  0.00  0.00    -0.035 C 
ATOM     27  C   UNL     1       8.878  -2.005   3.694  0.00  0.00    +0.011 C 
ATOM     28  C   UNL     1       9.336   0.394   3.166  0.00  0.00    +0.011 C 
ENDBRANCH   1  26
BRANCH   9  29
ATOM     29  O   UNL     1       2.647   2.622   2.319  0.00  0.00    -0.492 OA
ATOM     30  H   UNL     1       2.069   3.296   1.935  0.00  0.00    +0.294 HD
ENDBRANCH   9  29
TORSDOF 4
