REMARK  Name = ZINC60341748
REMARK  5 active torsions:
REMARK  status: ('A' for Active; 'I' for Inactive)
REMARK    1  A    between atoms: C_4  and  S_11
REMARK    2  A    between atoms: C_5  and  C_7
REMARK    3  A    between atoms: S_11  and  N_14
REMARK    4  A    between atoms: N_14  and  C_15
REMARK    5  A    between atoms: C_20  and  N_21
REMARK                            x       y       z     vdW  Elec       q    Type
REMARK                         _______ _______ _______ _____ _____    ______ ____
ROOT
ATOM      1  S   UNL     1       3.934  -0.832  -0.041  0.00  0.00    +0.092 S 
ATOM      2  O   UNL     1       3.840  -1.807  -1.070  0.00  0.00    -0.148 OA
ATOM      3  O   UNL     1       4.953   0.158  -0.019  0.00  0.00    -0.148 OA
ENDROOT
BRANCH   1   7
ATOM      4  C   UNL     1      -0.017   1.378   0.010  0.00  0.00    +0.001 A 
ATOM      5  C   UNL     1       1.171   2.085   0.002  0.00  0.00    +0.002 A 
ATOM      6  C   UNL     1       2.377   1.411  -0.013  0.00  0.00    +0.029 A 
ATOM      7  C   UNL     1       2.396   0.028  -0.020  0.00  0.00    +0.122 A 
ATOM      8  C   UNL     1       1.209  -0.679  -0.012  0.00  0.00    +0.081 A 
ATOM      9  C   UNL     1       0.002  -0.004   0.002  0.00  0.00    +0.014 A 
BRANCH   8  10
ATOM     10  C   UNL     1       1.229  -2.186  -0.020  0.00  0.00    +0.419 C 
ATOM     11  F   UNL     1      -0.083  -2.670  -0.009  0.00  0.00    -0.166 F 
ATOM     12  F   UNL     1       1.883  -2.637  -1.172  0.00  0.00    -0.166 F 
ATOM     13  F   UNL     1       1.907  -2.650   1.112  0.00  0.00    -0.166 F 
ENDBRANCH   8  10
ENDBRANCH   1   7
BRANCH   1  14
ATOM     14  N   UNL     1       4.050  -1.661   1.388  0.00  0.00    -0.096 NA
BRANCH  14  15
ATOM     15  C   UNL     1       5.179  -2.443   1.653  0.00  0.00    +0.096 A 
ATOM     16  C   UNL     1       6.206  -2.520   0.724  0.00  0.00    +0.028 A 
ATOM     17  C   UNL     1       7.321  -3.293   0.988  0.00  0.00    +0.002 A 
ATOM     18  C   UNL     1       7.417  -3.992   2.177  0.00  0.00    +0.002 A 
ATOM     19  C   UNL     1       6.398  -3.921   3.109  0.00  0.00    +0.025 A 
ATOM     20  C   UNL     1       5.279  -3.143   2.855  0.00  0.00    +0.064 A 
BRANCH  20  21
ATOM     21  N   UNL     1       4.248  -3.065   3.802  0.00  0.00    -0.232 N 
ATOM     22  C   UNL     1       3.077  -3.960   3.890  0.00  0.00    +0.158 C 
ATOM     23  C   UNL     1       2.527  -3.643   5.301  0.00  0.00    +0.253 C 
ATOM     24  O   UNL     1       3.031  -2.311   5.526  0.00  0.00    -0.448 OA
ATOM     25  C   UNL     1       4.150  -2.163   4.797  0.00  0.00    +0.407 C 
ATOM     26  O   UNL     1       4.983  -1.304   5.011  0.00  0.00    -0.226 OA
ENDBRANCH  20  21
ENDBRANCH  14  15
ENDBRANCH   1  14
TORSDOF 5
