REMARK  Name = ZINC16480478
REMARK  6 active torsions:
REMARK  status: ('A' for Active; 'I' for Inactive)
REMARK    1  A    between atoms: C_1  and  C_2
REMARK    2  A    between atoms: C_2  and  C_4
REMARK    3  A    between atoms: C_2  and  N_17
REMARK    4  A    between atoms: N_6  and  C_7
REMARK    5  A    between atoms: C_9  and  N_14
REMARK    6  A    between atoms: N_20  and  C_23
REMARK                            x       y       z     vdW  Elec       q    Type
REMARK                         _______ _______ _______ _____ _____    ______ ____
ROOT
ATOM      1  C   UNL     1       0.247  -0.035   1.614  0.00  0.00    +0.034 C 
ATOM      2  C   UNL     1      -0.028   0.097   0.115  0.00  0.00    +0.140 C 
ENDROOT
BRANCH   2   3
ATOM      3  N   UNL     1      -1.393  -0.363  -0.174  0.00  0.00    -0.289 NA
ATOM      4  C   UNL     1      -1.464  -1.831  -0.181  0.00  0.00    +0.104 C 
ATOM      5  C   UNL     1      -2.851  -2.270  -0.662  0.00  0.00    +0.120 C 
ATOM      6  N   UNL     1      -3.866  -1.602   0.167  0.00  0.00    -0.326 N 
ATOM      7  C   UNL     1      -3.779  -0.143   0.333  0.00  0.00    +0.120 C 
ATOM      8  C   UNL     1      -2.355   0.212   0.775  0.00  0.00    +0.104 C 
BRANCH   6   9
ATOM      9  C   UNL     1      -4.886  -2.334   0.780  0.00  0.00    +0.048 A 
ATOM     10  C   UNL     1      -4.704  -2.846   2.058  0.00  0.00    +0.024 A 
ATOM     11  C   UNL     1      -5.715  -3.569   2.662  0.00  0.00    +0.002 A 
ATOM     12  C   UNL     1      -6.907  -3.784   1.995  0.00  0.00    +0.002 A 
ATOM     13  C   UNL     1      -7.092  -3.276   0.722  0.00  0.00    +0.022 A 
ATOM     14  C   UNL     1      -6.088  -2.547   0.114  0.00  0.00    +0.062 A 
ATOM     15 CL   UNL     1      -6.323  -1.904  -1.481  0.00  0.00    -0.082 Cl
ENDBRANCH   6   9
ENDBRANCH   2   3
BRANCH   2  16
ATOM     16  C   UNL     1       0.113   1.540  -0.297  0.00  0.00    +0.234 C 
ATOM     17  O   UNL     1      -0.871   2.185  -0.592  0.00  0.00    -0.274 OA
ATOM     18  N   UNL     1       1.332   2.112  -0.337  0.00  0.00    -0.283 N 
ATOM     19  H   UNL     1       2.125   1.578  -0.174  0.00  0.00    +0.155 HD
BRANCH  18  20
ATOM     20  C   UNL     1       1.455   3.479  -0.615  0.00  0.00    +0.054 A 
ATOM     21  C   UNL     1       0.367   4.325  -0.440  0.00  0.00    +0.057 A 
ATOM     22  C   UNL     1       0.491   5.673  -0.715  0.00  0.00    +0.128 A 
ATOM     23  C   UNL     1       1.697   6.181  -1.163  0.00  0.00    +0.034 A 
ATOM     24  C   UNL     1       2.782   5.342  -1.338  0.00  0.00    +0.024 A 
ATOM     25  C   UNL     1       2.666   3.993  -1.060  0.00  0.00    +0.062 A 
ATOM     26 CL   UNL     1       4.031   2.942  -1.273  0.00  0.00    -0.082 Cl
BRANCH  22  27
ATOM     27  N   UNL     1      -0.668   6.574  -0.529  0.00  0.00    +0.056 N 
ATOM     28  O   UNL     1      -1.722   6.131  -0.138  0.00  0.00    -0.126 OA
ATOM     29  O   UNL     1      -0.560   7.754  -0.769  0.00  0.00    -0.126 OA
ENDBRANCH  22  27
ENDBRANCH  18  20
ENDBRANCH   2  16
TORSDOF 5
