REMARK  Name = ZINC50359420
REMARK  5 active torsions:
REMARK  status: ('A' for Active; 'I' for Inactive)
REMARK    1  A    between atoms: C_1  and  C_2
REMARK    2  A    between atoms: C_2  and  C_4
REMARK    3  A    between atoms: C_2  and  N_7
REMARK    4  A    between atoms: N_7  and  C_8
REMARK    5  A    between atoms: C_8  and  C_9
REMARK                            x       y       z     vdW  Elec       q    Type
REMARK                         _______ _______ _______ _____ _____    ______ ____
ROOT
ATOM      1  N   UNL     1       0.713  -0.491   1.192  0.00  0.00    +0.391 N 
ATOM      2  H   UNL     1       0.290  -0.099   2.020  0.00  0.00    -0.084 HD
ATOM      3  H   UNL     1       0.655  -1.497   1.230  0.00  0.00    -0.084 HD
ENDROOT
BRANCH   1   5
ATOM      4  C   UNL     1      -0.019   1.526   0.010  0.00  0.00    -0.004 C 
ATOM      5  C   UNL     1       0.002  -0.004   0.002  0.00  0.00    +0.013 C 
BRANCH   5   6
ATOM      6  C   UNL     1      -1.412  -0.526   0.013  0.00  0.00    +0.196 C 
ATOM      7  O   UNL     1      -1.790  -1.233   0.922  0.00  0.00    -0.278 OA
ATOM      8  N   UNL     1      -2.256  -0.206  -0.988  0.00  0.00    -0.331 N 
ATOM      9  H   UNL     1      -1.953   0.360  -1.716  0.00  0.00    +0.145 HD
ATOM     10  H   UNL     1      -3.166  -0.542  -0.982  0.00  0.00    +0.145 HD
ENDBRANCH   5   6
ENDBRANCH   1   5
BRANCH   1  11
ATOM     11  C   UNL     1       2.122  -0.083   1.122  0.00  0.00    -0.006 C 
BRANCH  11  12
ATOM     12  C   UNL     1       2.851  -0.582   2.343  0.00  0.00    +0.091 A 
ATOM     13  C   UNL     1       3.478  -1.766   2.455  0.00  0.00    +0.059 A 
ATOM     14  C   UNL     1       4.022  -1.821   3.759  0.00  0.00    +0.070 A 
ATOM     15  C   UNL     1       3.694  -0.665   4.367  0.00  0.00    +0.184 A 
ATOM     16  O   UNL     1       2.989   0.084   3.502  0.00  0.00    -0.454 OA
ATOM     17 BR   UNL     1       4.154  -0.175   6.134  0.00  0.00    -0.007 Br
ATOM     18 BR   UNL     1       5.018  -3.244   4.506  0.00  0.00    -0.046 Br
ENDBRANCH  11  12
ENDBRANCH   1  11
TORSDOF 4
