REMARK  Name = ZINC02387021
REMARK  7 active torsions:
REMARK  status: ('A' for Active; 'I' for Inactive)
REMARK    1  A    between atoms: C_3  and  O_12
REMARK    2  A    between atoms: O_12  and  C_13
REMARK    3  A    between atoms: C_15  and  O_28
REMARK    4  A    between atoms: C_17  and  O_27
REMARK    5  A    between atoms: C_19  and  O_26
REMARK    6  A    between atoms: C_21  and  C_24
REMARK    7  A    between atoms: C_24  and  O_25
REMARK                            x       y       z     vdW  Elec       q    Type
REMARK                         _______ _______ _______ _____ _____    ______ ____
ROOT
ATOM      1  C   UNL     1       0.623   3.901   1.346  0.00  0.00    +0.339 C 
ATOM      2  C   UNL     1       1.387   3.485   0.086  0.00  0.00    +0.214 C 
ATOM      3  C   UNL     1       1.419   1.956  -0.001  0.00  0.00    +0.180 C 
ATOM      4  C   UNL     1      -0.017   1.425   0.010  0.00  0.00    +0.177 C 
ATOM      5  C   UNL     1      -0.727   1.920   1.273  0.00  0.00    +0.179 C 
ATOM      6  O   UNL     1      -0.694   3.348   1.307  0.00  0.00    -0.331 OA
ENDROOT
BRANCH   4   7
ATOM      7  O   UNL     1       0.002  -0.004   0.002  0.00  0.00    -0.386 OA
ATOM      8  H   UNL     1       0.442  -0.387  -0.769  0.00  0.00    +0.210 HD
ENDBRANCH   4   7
BRANCH   3   9
ATOM      9  O   UNL     1       2.067   1.558  -1.211  0.00  0.00    -0.386 OA
ATOM     10  H   UNL     1       2.982   1.861  -1.285  0.00  0.00    +0.210 HD
ENDBRANCH   3   9
BRANCH   2  11
ATOM     11  O   UNL     1       0.730   4.016  -1.067  0.00  0.00    -0.383 OA
ATOM     12  H   UNL     1       0.674   4.981  -1.078  0.00  0.00    +0.210 HD
ENDBRANCH   2  11
BRANCH   1  13
ATOM     13  O   UNL     1       0.541   5.326   1.405  0.00  0.00    -0.461 OA
BRANCH  13  16
ATOM     14  C   UNL     1      -0.752   5.548   4.790  0.00  0.00    +0.012 A 
ATOM     15  C   UNL     1      -0.287   5.033   3.620  0.00  0.00    +0.046 A 
ATOM     16  C   UNL     1       0.079   5.870   2.562  0.00  0.00    +0.125 A 
ATOM     17  C   UNL     1      -0.016   7.228   2.677  0.00  0.00    +0.054 A 
ATOM     18  C   UNL     1      -0.498   7.791   3.870  0.00  0.00    -0.014 A 
ATOM     19  C   UNL     1      -0.868   6.940   4.942  0.00  0.00    -0.017 A 
ATOM     20  C   UNL     1      -1.345   7.505   6.137  0.00  0.00    +0.023 A 
ATOM     21  C   UNL     1      -1.444   8.859   6.249  0.00  0.00    +0.018 A 
ATOM     22  C   UNL     1      -1.080   9.695   5.195  0.00  0.00    +0.016 A 
ATOM     23  C   UNL     1      -0.615   9.184   4.023  0.00  0.00    +0.010 A 
ATOM     24 BR   UNL     1      -2.086   9.615   7.860  0.00  0.00    -0.050 Br
ENDBRANCH  13  16
ENDBRANCH   1  13
BRANCH   5  25
ATOM     25  C   UNL     1      -2.180   1.443   1.262  0.00  0.00    +0.190 C 
BRANCH  25  26
ATOM     26  O   UNL     1      -2.810   1.805   2.493  0.00  0.00    -0.392 OA
ATOM     27  H   UNL     1      -3.736   1.533   2.555  0.00  0.00    +0.210 HD
ENDBRANCH  25  26
ENDBRANCH   5  25
TORSDOF 7
