REMARK  Name = ZINC35062340
REMARK  16 active torsions:
REMARK  status: ('A' for Active; 'I' for Inactive)
REMARK    1  A    between atoms: C_1  and  C_2
REMARK    2  A    between atoms: C_2  and  C_3
REMARK    3  A    between atoms: C_3  and  C_4
REMARK    4  A    between atoms: C_4  and  C_5
REMARK    5  A    between atoms: C_5  and  C_6
REMARK    6  A    between atoms: C_6  and  C_7
REMARK    7  A    between atoms: N_9  and  C_10
REMARK    8  A    between atoms: N_9  and  C_15
REMARK    9  A    between atoms: C_10  and  C_11
REMARK   10  A    between atoms: C_11  and  N_12
REMARK   11  A    between atoms: N_12  and  C_13
REMARK   12  A    between atoms: N_12  and  C_14
REMARK   13  A    between atoms: C_15  and  C_17
REMARK   14  A    between atoms: C_15  and  C_18
REMARK   15  A    between atoms: N_28  and  C_29
REMARK   16  A    between atoms: C_34  and  C_35
REMARK                            x       y       z     vdW  Elec       q    Type
REMARK                         _______ _______ _______ _____ _____    ______ ____
ROOT
ATOM      1  C   UNL     1       4.135  -7.131  -4.705  0.00  0.00    +0.138 A 
ATOM      2  N   UNL     1       3.900  -8.291  -4.172  0.00  0.00    -0.231 NA
ATOM      3  C   UNL     1       4.904  -9.149  -3.864  0.00  0.00    +0.078 A 
ATOM      4  C   UNL     1       4.651 -10.397  -3.291  0.00  0.00    +0.028 A 
ATOM      5  C   UNL     1       5.700 -11.237  -2.995  0.00  0.00    +0.002 A 
ATOM      6  C   UNL     1       7.011 -10.859  -3.259  0.00  0.00    +0.001 A 
ATOM      7  C   UNL     1       7.286  -9.633  -3.824  0.00  0.00    +0.015 A 
ATOM      8  C   UNL     1       6.237  -8.768  -4.131  0.00  0.00    +0.065 A 
ATOM      9  C   UNL     1       6.471  -7.448  -4.735  0.00  0.00    +0.266 A 
ATOM     10  O   UNL     1       7.596  -7.060  -4.990  0.00  0.00    -0.267 OA
ATOM     11  N   UNL     1       5.386  -6.684  -5.001  0.00  0.00    -0.263 N 
ENDROOT
BRANCH  11  12
ATOM     12  C   UNL     1       5.552  -5.420  -5.581  0.00  0.00    +0.054 A 
ATOM     13  C   UNL     1       5.741  -4.304  -4.775  0.00  0.00    +0.028 A 
ATOM     14  C   UNL     1       5.905  -3.059  -5.349  0.00  0.00    +0.022 A 
ATOM     15  C   UNL     1       5.880  -2.922  -6.726  0.00  0.00    +0.041 A 
ATOM     16  C   UNL     1       5.692  -4.032  -7.531  0.00  0.00    +0.025 A 
ATOM     17  C   UNL     1       5.534  -5.280  -6.962  0.00  0.00    -0.025 A 
ATOM     18  C   UNL     1       5.335  -6.489  -7.839  0.00  0.00    +0.046 C 
ATOM     19 CL   UNL     1       6.086  -1.355  -7.445  0.00  0.00    -0.084 Cl
ENDBRANCH  11  12
BRANCH   1  20
ATOM     20  C   UNL     1       2.963  -6.236  -5.017  0.00  0.00    +0.139 C 
ATOM     21  C   UNL     1       1.962  -6.993  -5.891  0.00  0.00    +0.036 C 
BRANCH  20  24
ATOM     22  C   UNL     1       2.228  -4.523  -3.447  0.00  0.00    +0.216 C 
ATOM     23  O   UNL     1       2.691  -3.684  -4.191  0.00  0.00    -0.276 OA
ATOM     24  N   UNL     1       2.313  -5.829  -3.769  0.00  0.00    -0.293 N 
BRANCH  22  25
ATOM     25  C   UNL     1       1.559  -4.105  -2.163  0.00  0.00    +0.096 C 
BRANCH  25  26
ATOM     26  C   UNL     1       1.598  -2.580  -2.041  0.00  0.00    +0.009 C 
BRANCH  26  27
ATOM     27  C   UNL     1       0.919  -2.156  -0.738  0.00  0.00    +0.000 C 
BRANCH  27  28
ATOM     28  C   UNL     1       0.957  -0.631  -0.615  0.00  0.00    -0.000 C 
BRANCH  28  30
ATOM     29  C   UNL     1       0.317   1.318   0.810  0.00  0.00    +0.004 C 
ATOM     30  C   UNL     1       0.278  -0.207   0.688  0.00  0.00    -0.003 C 
ENDBRANCH  28  30
ENDBRANCH  27  28
ENDBRANCH  26  27
ENDBRANCH  25  26
ENDBRANCH  22  25
BRANCH  24  31
ATOM     31  C   UNL     1       1.755  -6.843  -2.870  0.00  0.00    +0.090 C 
BRANCH  31  32
ATOM     32  C   UNL     1       0.295  -7.108  -3.244  0.00  0.00    -0.060 C 
BRANCH  32  33
ATOM     33  N   UNL     1      -0.264  -8.124  -2.343  0.00  0.00    +0.377 N 
ATOM     34  C   UNL     1      -1.696  -8.293  -2.624  0.00  0.00    -0.097 C 
ATOM     35  C   UNL     1       0.430  -9.402  -2.554  0.00  0.00    -0.097 C 
ATOM     36  H   UNL     1      -0.142  -7.829  -1.386  0.00  0.00    -0.083 HD
ENDBRANCH  32  33
ENDBRANCH  31  32
ENDBRANCH  24  31
ENDBRANCH  20  24
ENDBRANCH   1  20
TORSDOF 11
