REMARK  Name = ZINC64363347
REMARK  5 active torsions:
REMARK  status: ('A' for Active; 'I' for Inactive)
REMARK    1  A    between atoms: C_1  and  C_2
REMARK    2  A    between atoms: C_2  and  C_22
REMARK    3  A    between atoms: N_5  and  C_9
REMARK    4  A    between atoms: C_9  and  C_10
REMARK    5  A    between atoms: C_13  and  C_15
REMARK                            x       y       z     vdW  Elec       q    Type
REMARK                         _______ _______ _______ _____ _____    ______ ____
ROOT
ATOM      1  C   UNL     1      -0.019   1.526   0.010  0.00  0.00    +0.050 C 
ATOM      2  C   UNL     1       0.002  -0.004   0.002  0.00  0.00    +0.168 C 
ATOM      3  C   UNL     1       0.799  -0.520  -1.180  0.00  0.00    +0.254 C 
ATOM      4  O   UNL     1       0.564  -0.342  -2.356  0.00  0.00    -0.272 OA
ATOM      5  N   UNL     1       1.824  -1.217  -0.651  0.00  0.00    -0.218 N 
ATOM      6  C   UNL     1       1.786  -1.214   0.686  0.00  0.00    +0.310 C 
ATOM      7  O   UNL     1       2.604  -1.776   1.387  0.00  0.00    -0.252 OA
ATOM      8  N   UNL     1       0.740  -0.519   1.169  0.00  0.00    -0.279 N 
ATOM      9  H   UNL     1       0.515  -0.383   2.102  0.00  0.00    +0.152 HD
ENDROOT
BRANCH   2  10
ATOM     10  C   UNL     1      -1.402  -0.552  -0.021  0.00  0.00    +0.137 A 
ATOM     11  C   UNL     1      -2.157  -0.826   1.057  0.00  0.00    +0.047 A 
ATOM     12  C   UNL     1      -3.393  -1.317   0.577  0.00  0.00    +0.041 A 
ATOM     13  C   UNL     1      -3.319  -1.313  -0.766  0.00  0.00    +0.195 A 
ATOM     14  O   UNL     1      -2.113  -0.843  -1.123  0.00  0.00    -0.465 OA
ENDBRANCH   2  10
BRANCH   5  15
ATOM     15  C   UNL     1       2.853  -1.896  -1.443  0.00  0.00    +0.176 C 
BRANCH  15  16
ATOM     16  C   UNL     1       3.998  -0.950  -1.696  0.00  0.00    +0.098 A 
ATOM     17  C   UNL     1       5.127  -0.860  -0.970  0.00  0.00    +0.222 A 
ATOM     18  O   UNL     1       5.886   0.104  -1.527  0.00  0.00    -0.443 OA
ATOM     19  C   UNL     1       5.215   0.592  -2.585  0.00  0.00    +0.229 A 
ATOM     20  N   UNL     1       4.075  -0.051  -2.689  0.00  0.00    -0.212 NA
BRANCH  19  21
ATOM     21  C   UNL     1       5.684   1.667  -3.484  0.00  0.00    +0.055 A 
ATOM     22  C   UNL     1       4.886   2.089  -4.548  0.00  0.00    +0.014 A 
ATOM     23  C   UNL     1       5.330   3.094  -5.383  0.00  0.00    +0.001 A 
ATOM     24  C   UNL     1       6.564   3.682  -5.168  0.00  0.00    +0.001 A 
ATOM     25  C   UNL     1       7.361   3.269  -4.116  0.00  0.00    +0.021 A 
ATOM     26  C   UNL     1       6.926   2.269  -3.268  0.00  0.00    +0.053 A 
ATOM     27 CL   UNL     1       7.923   1.758  -1.943  0.00  0.00    -0.083 Cl
ENDBRANCH  19  21
ENDBRANCH  15  16
ENDBRANCH   5  15
TORSDOF 4
