REMARK  Name = ZINC66401977
REMARK  9 active torsions:
REMARK  status: ('A' for Active; 'I' for Inactive)
REMARK    1  A    between atoms: C_1  and  C_2
REMARK    2  A    between atoms: C_7  and  C_8
REMARK    3  A    between atoms: C_8  and  C_10
REMARK    4  A    between atoms: C_8  and  N_12
REMARK    5  A    between atoms: C_13  and  C_15
REMARK    6  A    between atoms: C_15  and  N_16
REMARK    7  A    between atoms: C_17  and  C_25
REMARK    8  A    between atoms: C_18  and  N_22
REMARK    9  A    between atoms: C_19  and  C_21
REMARK                            x       y       z     vdW  Elec       q    Type
REMARK                         _______ _______ _______ _____ _____    ______ ____
ROOT
ATOM      1  N   UNL     1      -0.537  -0.808   3.554  0.00  0.00    -0.295 N 
ATOM      2  C   UNL     1      -1.190  -0.255   4.595  0.00  0.00    +0.236 C 
ATOM      3  O   UNL     1      -1.312   0.950   4.663  0.00  0.00    -0.274 OA
ATOM      4  H   UNL     1      -0.440  -1.772   3.500  0.00  0.00    +0.150 HD
ENDROOT
BRANCH   1   5
ATOM      5  C   UNL     1       0.025   0.045   2.504  0.00  0.00    +0.207 C 
BRANCH   5  12
ATOM      6  C   UNL     1      -0.096   1.486   0.003  0.00  0.00    +0.044 C 
ATOM      7  C   UNL     1      -0.017  -0.019   0.003  0.00  0.00    -0.045 A 
ATOM      8  C   UNL     1       0.003  -0.710  -1.195  0.00  0.00    +0.004 A 
ATOM      9  C   UNL     1       0.076  -2.090  -1.195  0.00  0.00    +0.000 A 
ATOM     10  C   UNL     1       0.129  -2.780   0.002  0.00  0.00    +0.000 A 
ATOM     11  C   UNL     1       0.110  -2.089   1.199  0.00  0.00    +0.007 A 
ATOM     12  C   UNL     1       0.041  -0.709   1.199  0.00  0.00    -0.010 A 
ENDBRANCH   5  12
BRANCH   5  13
ATOM     13  C   UNL     1       1.400   0.428   2.867  0.00  0.00    +0.090 C 
ATOM     14  N   UNL     1       2.460   0.723   3.147  0.00  0.00    -0.194 NA
ENDBRANCH   5  13
ENDBRANCH   1   5
BRANCH   2  15
ATOM     15  C   UNL     1      -1.768  -1.133   5.675  0.00  0.00    +0.239 C 
BRANCH  15  16
ATOM     16  N   UNL     1      -2.422  -0.297   6.685  0.00  0.00    -0.257 N 
ATOM     17  C   UNL     1      -1.837   0.224   7.784  0.00  0.00    +0.067 A 
ATOM     18  C   UNL     1      -2.776   0.930   8.456  0.00  0.00    +0.169 A 
ATOM     19  C   UNL     1      -3.976   0.837   7.743  0.00  0.00    +0.090 A 
ATOM     20  N   UNL     1      -3.763   0.107   6.678  0.00  0.00    -0.173 NA
ATOM     21  C   UNL     1      -5.285   1.474   8.130  0.00  0.00    +0.070 C 
ATOM     22  C   UNL     1      -0.396   0.049   8.191  0.00  0.00    +0.068 C 
BRANCH  18  23
ATOM     23  N   UNL     1      -2.570   1.669   9.722  0.00  0.00    +0.060 N 
ATOM     24  O   UNL     1      -2.229   2.828   9.696  0.00  0.00    -0.126 OA
ATOM     25  O   UNL     1      -2.742   1.113  10.781  0.00  0.00    -0.126 OA
ENDBRANCH  18  23
ENDBRANCH  15  16
ENDBRANCH   2  15
TORSDOF 6
