REMARK  Name = ZINC38995064
REMARK  6 active torsions:
REMARK  status: ('A' for Active; 'I' for Inactive)
REMARK    1  A    between atoms: C_1  and  C_2
REMARK    2  A    between atoms: C_9  and  C_14
REMARK    3  A    between atoms: C_14  and  N_15
REMARK    4  A    between atoms: N_15  and  C_16
REMARK    5  A    between atoms: C_16  and  C_17
REMARK    6  A    between atoms: C_23  and  C_25
REMARK                            x       y       z     vdW  Elec       q    Type
REMARK                         _______ _______ _______ _____ _____    ______ ____
ROOT
ATOM      1  N   UNL     1       1.431  -6.109   3.155  0.00  0.00    -0.294 N 
ATOM      2  C   UNL     1       0.673  -6.488   4.203  0.00  0.00    +0.247 C 
ATOM      3  O   UNL     1       0.394  -7.660   4.360  0.00  0.00    -0.270 OA
ENDROOT
BRANCH   2   4
ATOM      4  C   UNL     1       0.181  -5.476   5.162  0.00  0.00    +0.037 A 
ATOM      5  C   UNL     1      -0.331  -4.263   4.700  0.00  0.00    +0.014 A 
ATOM      6  C   UNL     1      -0.789  -3.324   5.600  0.00  0.00    +0.021 A 
ATOM      7  C   UNL     1      -0.741  -3.582   6.960  0.00  0.00    +0.041 A 
ATOM      8  C   UNL     1      -0.233  -4.784   7.424  0.00  0.00    +0.021 A 
ATOM      9  C   UNL     1       0.222  -5.733   6.534  0.00  0.00    +0.014 A 
ATOM     10 CL   UNL     1      -1.317  -2.394   8.086  0.00  0.00    -0.084 Cl
ENDBRANCH   2   4
BRANCH   1  11
ATOM     11  C   UNL     1       1.627  -4.686   2.868  0.00  0.00    +0.125 C 
BRANCH  11  20
ATOM     12  C   UNL     1       1.026   1.511  -0.630  0.00  0.00    +0.044 C 
ATOM     13  C   UNL     1       1.021   0.006  -0.547  0.00  0.00    -0.050 A 
ATOM     14  C   UNL     1       1.260  -0.742  -1.700  0.00  0.00    +0.005 A 
ATOM     15  C   UNL     1       1.271  -2.101  -1.702  0.00  0.00    +0.024 A 
ATOM     16  C   UNL     1       1.037  -2.819  -0.516  0.00  0.00    +0.040 A 
ATOM     17  N   UNL     1       1.051  -4.152  -0.530  0.00  0.00    -0.284 N 
ATOM     18  C   UNL     1       0.838  -4.888   0.548  0.00  0.00    +0.226 C 
ATOM     19  O   UNL     1       0.864  -6.102   0.473  0.00  0.00    -0.275 OA
ATOM     20  C   UNL     1       0.564  -4.215   1.874  0.00  0.00    +0.116 C 
ATOM     21  C   UNL     1       0.548  -2.699   1.896  0.00  0.00    -0.003 C 
ATOM     22  C   UNL     1       0.781  -2.054   0.717  0.00  0.00    -0.007 A 
ATOM     23  C   UNL     1       0.789  -0.593   0.650  0.00  0.00    +0.012 A 
ATOM     24  H   UNL     1       1.225  -4.603  -1.371  0.00  0.00    +0.155 HD
ENDBRANCH  11  20
ENDBRANCH   1  11
BRANCH   1  25
ATOM     25  C   UNL     1       2.058  -7.122   2.301  0.00  0.00    +0.139 C 
BRANCH  25  26
ATOM     26  C   UNL     1       3.352  -7.610   2.956  0.00  0.00    +0.136 C 
ATOM     27  C   UNL     1       4.050  -8.657   2.052  0.00  0.00    +0.035 C 
ATOM     28  C   UNL     1       5.524  -8.516   2.522  0.00  0.00    +0.031 C 
ATOM     29  C   UNL     1       5.621  -7.010   2.847  0.00  0.00    +0.160 C 
ATOM     30  O   UNL     1       4.290  -6.528   3.074  0.00  0.00    -0.375 OA
ENDBRANCH  25  26
ENDBRANCH   1  25
TORSDOF 5
