REMARK  Name = ZINC66647418
REMARK  8 active torsions:
REMARK  status: ('A' for Active; 'I' for Inactive)
REMARK    1  A    between atoms: C_1  and  C_2
REMARK    2  A    between atoms: C_2  and  C_3
REMARK    3  A    between atoms: C_3  and  C_4
REMARK    4  A    between atoms: C_3  and  N_6
REMARK    5  A    between atoms: C_4  and  C_5
REMARK    6  A    between atoms: C_7  and  C_9
REMARK    7  A    between atoms: C_20  and  C_22
REMARK    8  A    between atoms: C_24  and  C_28
REMARK                            x       y       z     vdW  Elec       q    Type
REMARK                         _______ _______ _______ _____ _____    ______ ____
ROOT
ATOM      1  C   UNL     1       4.773   0.889   2.165  0.00  0.00    +0.276 C 
ATOM      2  C   UNL     1       4.762   1.082   0.642  0.00  0.00    +0.168 C 
ATOM      3  N   UNL     1       5.957   1.864   0.283  0.00  0.00    -0.259 N 
ATOM      4  C   UNL     1       6.299   2.949   1.107  0.00  0.00    +0.079 A 
ATOM      5  C   UNL     1       7.226   3.885   0.676  0.00  0.00    +0.027 A 
ATOM      6  C   UNL     1       7.561   4.949   1.492  0.00  0.00    +0.002 A 
ATOM      7  C   UNL     1       6.974   5.079   2.737  0.00  0.00    +0.004 A 
ATOM      8  C   UNL     1       6.048   4.149   3.172  0.00  0.00    +0.047 A 
ATOM      9  C   UNL     1       5.704   3.079   2.359  0.00  0.00    +0.143 A 
ATOM     10  O   UNL     1       4.789   2.173   2.794  0.00  0.00    -0.476 OA
ATOM     11  C   UNL     1       6.698   1.550  -0.798  0.00  0.00    +0.269 C 
ATOM     12  O   UNL     1       7.681   2.211  -1.076  0.00  0.00    -0.268 OA
ENDROOT
BRANCH  11  13
ATOM     13  C   UNL     1       6.317   0.408  -1.644  0.00  0.00    +0.121 A 
ATOM     14  C   UNL     1       7.146  -0.320  -2.481  0.00  0.00    +0.057 A 
ATOM     15  C   UNL     1       6.326  -1.290  -3.061  0.00  0.00    +0.060 A 
ATOM     16  N   UNL     1       5.116  -1.128  -2.590  0.00  0.00    -0.178 NA
ATOM     17  N   UNL     1       5.075  -0.151  -1.756  0.00  0.00    -0.272 N 
ATOM     18  H   UNL     1       4.284   0.145  -1.282  0.00  0.00    +0.189 HD
ATOM     19  C   UNL     1       6.758  -2.338  -4.055  0.00  0.00    +0.067 C 
ENDBRANCH  11  13
BRANCH   1  21
ATOM     20  N   UNL     1       3.361  -1.141   2.192  0.00  0.00    -0.309 N 
ATOM     21  C   UNL     1       3.539   0.135   2.588  0.00  0.00    +0.256 C 
ATOM     22  O   UNL     1       2.706   0.675   3.284  0.00  0.00    -0.272 OA
ATOM     23  H   UNL     1       4.027  -1.574   1.635  0.00  0.00    +0.149 HD
BRANCH  20  24
ATOM     24  C   UNL     1       2.161  -1.875   2.603  0.00  0.00    +0.073 C 
BRANCH  24  26
ATOM     25  C   UNL     1       0.643  -0.089   1.737  0.00  0.00    +0.006 C 
ATOM     26  C   UNL     1       1.018  -1.568   1.632  0.00  0.00    +0.019 C 
ENDBRANCH  24  26
BRANCH  24  27
ATOM     27  C   UNL     1       2.452  -3.377   2.589  0.00  0.00    +0.019 C 
ATOM     28  C   UNL     1       3.507  -3.701   3.649  0.00  0.00    +0.006 C 
ENDBRANCH  24  27
ENDBRANCH  20  24
ENDBRANCH   1  21
TORSDOF 5
