REMARK  Name = ZINC47167574
REMARK  11 active torsions:
REMARK  status: ('A' for Active; 'I' for Inactive)
REMARK    1  A    between atoms: C_1  and  C_2
REMARK    2  A    between atoms: C_2  and  C_4
REMARK    3  A    between atoms: C_2  and  N_21
REMARK    4  A    between atoms: N_6  and  C_7
REMARK    5  A    between atoms: C_11  and  C_13
REMARK    6  A    between atoms: C_13  and  C_20
REMARK    7  A    between atoms: C_22  and  O_24
REMARK    8  A    between atoms: O_24  and  C_25
REMARK    9  A    between atoms: C_25  and  C_26
REMARK   10  A    between atoms: C_25  and  C_27
REMARK   11  A    between atoms: C_25  and  C_28
REMARK                            x       y       z     vdW  Elec       q    Type
REMARK                         _______ _______ _______ _____ _____    ______ ____
ROOT
ATOM      1  C   UNL     1       0.942  -0.526  -3.605  0.00  0.00    +0.034 A 
ATOM      2  C   UNL     1       1.638  -1.727  -3.643  0.00  0.00    +0.023 A 
ATOM      3  C   UNL     1       2.339  -2.082  -4.779  0.00  0.00    +0.002 A 
ATOM      4  C   UNL     1       2.349  -1.241  -5.878  0.00  0.00    +0.006 A 
ATOM      5  C   UNL     1       1.658  -0.044  -5.843  0.00  0.00    -0.014 A 
ATOM      6  C   UNL     1       0.949   0.312  -4.712  0.00  0.00    +0.029 A 
ENDROOT
BRANCH   5   7
ATOM      7  C   UNL     1       1.672   0.868  -7.042  0.00  0.00    +0.135 C 
ATOM      8  C   UNL     1       0.286   0.975  -7.647  0.00  0.00    +0.248 C 
ATOM      9  O   UNL     1      -0.715   1.403  -7.114  0.00  0.00    -0.273 OA
ATOM     10  N   UNL     1       0.399   0.495  -8.901  0.00  0.00    -0.238 N 
ATOM     11  C   UNL     1       1.650   0.104  -9.169  0.00  0.00    +0.307 C 
ATOM     12  O   UNL     1       1.998  -0.363 -10.236  0.00  0.00    -0.252 OA
ATOM     13  N   UNL     1       2.480   0.286  -8.127  0.00  0.00    -0.282 N 
ATOM     14  C   UNL     1       2.203   2.251  -6.657  0.00  0.00    +0.047 C 
ATOM     15  H   UNL     1      -0.337   0.439  -9.531  0.00  0.00    +0.159 HD
ATOM     16  H   UNL     1       3.426   0.075  -8.096  0.00  0.00    +0.152 HD
ENDBRANCH   5   7
BRANCH   1  19
ATOM     17  C   UNL     1       0.708  -0.489  -1.238  0.00  0.00    +0.237 C 
ATOM     18  O   UNL     1       1.709  -1.167  -1.140  0.00  0.00    -0.273 OA
ATOM     19  N   UNL     1       0.231  -0.164  -2.456  0.00  0.00    -0.284 N 
ATOM     20  H   UNL     1      -0.606   0.320  -2.535  0.00  0.00    +0.155 HD
BRANCH  17  22
ATOM     21  C   UNL     1      -0.033   1.520   0.013  0.00  0.00    +0.038 C 
ATOM     22  C   UNL     1      -0.002  -0.010   0.002  0.00  0.00    +0.159 C 
BRANCH  22  23
ATOM     23  N   UNL     1       0.708  -0.492   1.189  0.00  0.00    -0.270 N 
ATOM     24  C   UNL     1       0.048  -0.642   2.354  0.00  0.00    +0.401 C 
ATOM     25  O   UNL     1      -1.136  -0.378   2.421  0.00  0.00    -0.226 OA
ATOM     26  H   UNL     1       1.653  -0.704   1.136  0.00  0.00    +0.153 HD
BRANCH  24  27
ATOM     27  O   UNL     1       0.701  -1.086   3.445  0.00  0.00    -0.445 OA
BRANCH  27  28
ATOM     28  C   UNL     1      -0.060  -1.222   4.647  0.00  0.00    +0.107 C 
ATOM     29  C   UNL     1      -1.201  -2.215   4.418  0.00  0.00    +0.055 C 
ATOM     30  C   UNL     1       0.844  -1.734   5.769  0.00  0.00    +0.055 C 
ATOM     31  C   UNL     1      -0.640   0.139   5.039  0.00  0.00    +0.055 C 
ENDBRANCH  27  28
ENDBRANCH  24  27
ENDBRANCH  22  23
ENDBRANCH  17  22
ENDBRANCH   1  19
TORSDOF 6
