REMARK  Name = ZINC16553888
REMARK  8 active torsions:
REMARK  status: ('A' for Active; 'I' for Inactive)
REMARK    1  A    between atoms: C_1  and  C_2
REMARK    2  A    between atoms: C_3  and  C_9
REMARK    3  A    between atoms: C_4  and  N_7
REMARK    4  A    between atoms: N_7  and  C_8
REMARK    5  A    between atoms: C_9  and  O_11
REMARK    6  A    between atoms: O_11  and  C_12
REMARK    7  A    between atoms: C_12  and  C_13
REMARK    8  A    between atoms: C_16  and  C_18
REMARK                            x       y       z     vdW  Elec       q    Type
REMARK                         _______ _______ _______ _____ _____    ______ ____
ROOT
ATOM      1  O   UNL     1       1.281   4.134  -1.157  0.00  0.00    -0.451 OA
ENDROOT
BRANCH   1   2
ATOM      2  C   UNL     1       1.262   3.455   0.008  0.00  0.00    +0.344 C 
ATOM      3  O   UNL     1       1.300   4.057   1.064  0.00  0.00    -0.245 OA
BRANCH   2   6
ATOM      4  C   UNL     1      -1.324   2.046   0.019  0.00  0.00    +0.067 C 
ATOM      5  C   UNL     1      -0.016   1.299   0.009  0.00  0.00    +0.063 A 
ATOM      6  C   UNL     1       1.194   1.991   0.001  0.00  0.00    +0.109 A 
ATOM      7  C   UNL     1       2.340   1.187  -0.014  0.00  0.00    +0.100 A 
ATOM      8  S   UNL     1       1.661  -0.407  -0.016  0.00  0.00    +0.027 S 
ATOM      9  N   UNL     1       0.002  -0.004   0.002  0.00  0.00    -0.213 NA
BRANCH   7  10
ATOM     10  N   UNL     1       3.667   1.565  -0.025  0.00  0.00    -0.340 N 
ATOM     11  C   UNL     1       4.720   0.546  -0.040  0.00  0.00    +0.126 C 
ATOM     12  H   UNL     1       3.903   2.506  -0.022  0.00  0.00    +0.146 HD
ENDBRANCH   7  10
ENDBRANCH   2   6
ENDBRANCH   1   2
BRANCH   1  13
ATOM     13  C   UNL     1       1.349   5.582  -1.074  0.00  0.00    +0.329 C 
BRANCH  13  14
ATOM     14  C   UNL     1       1.362   6.165  -2.464  0.00  0.00    +0.255 A 
ATOM     15  N   UNL     1       0.317   6.505  -3.164  0.00  0.00    -0.108 NA
ATOM     16  N   UNL     1       0.694   6.970  -4.303  0.00  0.00    -0.107 NA
ATOM     17  C   UNL     1       2.007   6.933  -4.373  0.00  0.00    +0.255 A 
ATOM     18  O   UNL     1       2.454   6.422  -3.207  0.00  0.00    -0.416 OA
BRANCH  17  19
ATOM     19  C   UNL     1       2.834   7.368  -5.508  0.00  0.00    +0.077 A 
ATOM     20  C   UNL     1       2.438   7.898  -6.722  0.00  0.00    +0.022 A 
ATOM     21  C   UNL     1       3.407   8.234  -7.638  0.00  0.00    +0.024 A 
ATOM     22  C   UNL     1       4.715   8.038  -7.323  0.00  0.00    +0.056 A 
ATOM     23  S   UNL     1       4.611   7.359  -5.675  0.00  0.00    -0.077 S 
ATOM     24 BR   UNL     1       6.253   8.399  -8.362  0.00  0.00    -0.043 Br
ENDBRANCH  17  19
ENDBRANCH  13  14
ENDBRANCH   1  13
TORSDOF 6
