REMARK  Name = ZINC58057691
REMARK  6 active torsions:
REMARK  status: ('A' for Active; 'I' for Inactive)
REMARK    1  A    between atoms: C_1  and  C_2
REMARK    2  A    between atoms: C_2  and  C_3
REMARK    3  A    between atoms: C_2  and  C_4
REMARK    4  A    between atoms: C_2  and  C_5
REMARK    5  A    between atoms: C_11  and  C_13
REMARK    6  A    between atoms: C_15  and  N_23
REMARK                            x       y       z     vdW  Elec       q    Type
REMARK                         _______ _______ _______ _____ _____    ______ ____
ROOT
ATOM      1  C   UNL     1       2.347   1.011  -4.144  0.00  0.00    +0.006 A 
ATOM      2  C   UNL     1       2.191   2.370  -3.869  0.00  0.00    +0.036 A 
ATOM      3  C   UNL     1       2.686   3.314  -4.753  0.00  0.00    +0.071 A 
ATOM      4  C   UNL     1       3.340   2.908  -5.917  0.00  0.00    +0.183 A 
ATOM      5  C   UNL     1       3.497   1.555  -6.189  0.00  0.00    +0.165 A 
ATOM      6  C   UNL     1       3.007   0.608  -5.304  0.00  0.00    +0.059 A 
ATOM      7  O   UNL     1       4.140   1.141  -7.316  0.00  0.00    -0.485 OA
ATOM      8  C   UNL     1       4.295   2.108  -8.360  0.00  0.00    +0.270 C 
ATOM      9  C   UNL     1       4.789   3.419  -7.732  0.00  0.00    +0.270 C 
ATOM     10  O   UNL     1       3.816   3.851  -6.775  0.00  0.00    -0.483 OA
ENDROOT
BRANCH   1  17
ATOM     11  C   UNL     1       0.707  -0.490  -1.238  0.00  0.00    +0.116 A 
ATOM     12  N   UNL     1       0.832  -1.817  -1.445  0.00  0.00    -0.310 N 
ATOM     13  H   UNL     1       0.469  -2.442  -0.798  0.00  0.00    +0.170 HD
ATOM     14  C   UNL     1       1.458  -2.279  -2.547  0.00  0.00    +0.252 A 
ATOM     15  O   UNL     1       1.573  -3.478  -2.740  0.00  0.00    -0.268 OA
ATOM     16  C   UNL     1       1.976  -1.351  -3.468  0.00  0.00    +0.098 A 
ATOM     17  C   UNL     1       1.818  -0.001  -3.202  0.00  0.00    +0.078 A 
ATOM     18  N   UNL     1       1.177   0.384  -2.085  0.00  0.00    -0.233 NA
BRANCH  11  20
ATOM     19  C   UNL     1      -0.019   1.526   0.010  0.00  0.00    +0.018 C 
ATOM     20  C   UNL     1       0.002  -0.004   0.002  0.00  0.00    +0.020 C 
ATOM     21  C   UNL     1       0.742  -0.511   1.242  0.00  0.00    +0.018 C 
ATOM     22  C   UNL     1      -1.433  -0.534   0.013  0.00  0.00    +0.018 C 
ENDBRANCH  11  20
ENDBRANCH   1  17
BRANCH   3  23
ATOM     23  N   UNL     1       2.530   4.678  -4.479  0.00  0.00    -0.355 N 
ATOM     24  H   UNL     1       2.075   4.961  -3.670  0.00  0.00    +0.142 HD
ATOM     25  H   UNL     1       2.876   5.339  -5.098  0.00  0.00    +0.142 HD
ENDBRANCH   3  23
TORSDOF 3
