REMARK  Name = ZINC14548020
REMARK  6 active torsions:
REMARK  status: ('A' for Active; 'I' for Inactive)
REMARK    1  A    between atoms: C_4  and  C_7
REMARK    2  A    between atoms: C_7  and  N_8
REMARK    3  A    between atoms: N_8  and  S_9
REMARK    4  A    between atoms: S_9  and  C_12
REMARK    5  A    between atoms: C_25  and  C_28
REMARK    6  A    between atoms: C_37  and  O_38
REMARK                            x       y       z     vdW  Elec       q    Type
REMARK                         _______ _______ _______ _____ _____    ______ ____
ROOT
ATOM      1  C   UNL     1       1.908  -7.115  -0.002  0.00  0.00    +0.106 A 
ATOM      2  C   UNL     1       2.180  -6.919   1.339  0.00  0.00    +0.030 A 
ATOM      3  C   UNL     1       1.706  -5.789   1.976  0.00  0.00    +0.025 A 
ATOM      4  C   UNL     1       0.958  -4.856   1.269  0.00  0.00    +0.031 A 
ATOM      5  C   UNL     1       0.681  -5.049  -0.076  0.00  0.00    -0.018 A 
ATOM      6  C   UNL     1       1.165  -6.189  -0.705  0.00  0.00    +0.034 A 
ATOM      7  C   UNL     1      -0.123  -4.074  -0.876  0.00  0.00    +0.049 C 
ATOM      8  C   UNL     1       0.754  -3.260  -1.797  0.00  0.00    -0.023 C 
ATOM      9  C   UNL     1       0.304  -2.032  -1.884  0.00  0.00    -0.030 C 
ATOM     10  C   UNL     1      -0.941  -1.861  -1.034  0.00  0.00    +0.033 C 
ATOM     11  C   UNL     1      -0.836  -3.023  -0.003  0.00  0.00    +0.029 C 
ATOM     12  C   UNL     1       0.098  -2.555   1.117  0.00  0.00    +0.109 C 
ATOM     13  N   UNL     1       0.486  -3.715   1.927  0.00  0.00    -0.336 N 
ATOM     14  H   UNL     1       0.418  -3.691   2.894  0.00  0.00    +0.147 HD
ENDROOT
BRANCH  12  15
ATOM     15  C   UNL     1       1.328  -1.923   0.518  0.00  0.00    +0.022 A 
ATOM     16  C   UNL     1       1.329  -0.559   0.184  0.00  0.00    -0.009 A 
ATOM     17  C   UNL     1       0.196   0.245   0.397  0.00  0.00    +0.009 A 
ATOM     18  C   UNL     1       0.233   1.563   0.060  0.00  0.00    +0.001 A 
ATOM     19  C   UNL     1       1.379   2.131  -0.494  0.00  0.00    +0.001 A 
ATOM     20  C   UNL     1       2.495   1.383  -0.714  0.00  0.00    +0.008 A 
ATOM     21  C   UNL     1       2.495   0.018  -0.379  0.00  0.00    -0.017 A 
ATOM     22  C   UNL     1       3.629  -0.784  -0.593  0.00  0.00    +0.012 A 
ATOM     23  C   UNL     1       3.596  -2.102  -0.258  0.00  0.00    +0.046 A 
ATOM     24  C   UNL     1       2.447  -2.674   0.297  0.00  0.00    +0.122 A 
BRANCH  24  25
ATOM     25  O   UNL     1       2.444  -3.993   0.621  0.00  0.00    -0.506 OA
ATOM     26  H   UNL     1       2.632  -4.581  -0.124  0.00  0.00    +0.292 HD
ENDBRANCH  24  25
ENDBRANCH  12  15
BRANCH   1  27
ATOM     27  S   UNL     1       2.513  -8.555  -0.819  0.00  0.00    +0.059 S 
ATOM     28  O   UNL     1       2.719  -9.536   0.188  0.00  0.00    -0.153 OA
ATOM     29  O   UNL     1       1.663  -8.776  -1.936  0.00  0.00    -0.153 OA
BRANCH  27  30
ATOM     30  N   UNL     1       4.007  -8.180  -1.428  0.00  0.00    -0.186 NA
ATOM     31  H   UNL     1       4.151  -8.167  -2.387  0.00  0.00    +0.148 HD
BRANCH  30  32
ATOM     32  C   UNL     1       5.112  -7.870  -0.517  0.00  0.00    +0.141 C 
BRANCH  32  36
ATOM     33  C   UNL     1       8.807  -8.037  -2.654  0.00  0.00    +0.000 A 
ATOM     34  C   UNL     1       8.106  -6.849  -2.579  0.00  0.00    +0.000 A 
ATOM     35  C   UNL     1       6.910  -6.795  -1.887  0.00  0.00    +0.005 A 
ATOM     36  C   UNL     1       6.416  -7.929  -1.271  0.00  0.00    -0.032 A 
ATOM     37  C   UNL     1       7.120  -9.116  -1.342  0.00  0.00    +0.005 A 
ATOM     38  C   UNL     1       8.314  -9.172  -2.038  0.00  0.00    +0.000 A 
ENDBRANCH  32  36
ENDBRANCH  30  32
ENDBRANCH  27  30
ENDBRANCH   1  27
TORSDOF 6
