REMARK  Name = ZINC16458420
REMARK  12 active torsions:
REMARK  status: ('A' for Active; 'I' for Inactive)
REMARK    1  A    between atoms: C_1  and  C_2
REMARK    2  A    between atoms: C_2  and  C_3
REMARK    3  A    between atoms: C_2  and  C_4
REMARK    4  A    between atoms: C_4  and  N_5
REMARK    5  A    between atoms: N_5  and  C_6
REMARK    6  A    between atoms: C_6  and  C_7
REMARK    7  A    between atoms: N_9  and  C_10
REMARK    8  A    between atoms: N_9  and  C_24
REMARK    9  A    between atoms: C_10  and  C_11
REMARK   10  A    between atoms: N_15  and  C_16
REMARK   11  A    between atoms: C_16  and  C_17
REMARK   12  A    between atoms: C_30  and  C_32
REMARK                            x       y       z     vdW  Elec       q    Type
REMARK                         _______ _______ _______ _____ _____    ______ ____
ROOT
ATOM      1  C   UNL     1       2.281  -2.473   1.284  0.00  0.00    +0.234 C 
ATOM      2  O   UNL     1       1.518  -2.275   2.204  0.00  0.00    -0.274 OA
ATOM      3  N   UNL     1       3.202  -3.453   1.370  0.00  0.00    -0.291 N 
ENDROOT
BRANCH   3   4
ATOM      4  C   UNL     1       3.351  -4.210   2.616  0.00  0.00    +0.077 C 
ATOM      5  C   UNL     1       2.038  -4.927   2.937  0.00  0.00    +0.022 C 
ATOM      6  C   UNL     1       2.194  -5.717   4.237  0.00  0.00    +0.002 C 
ATOM      7  C   UNL     1       2.544  -4.759   5.378  0.00  0.00    +0.000 C 
ATOM      8  C   UNL     1       3.857  -4.042   5.057  0.00  0.00    +0.002 C 
ATOM      9  C   UNL     1       3.701  -3.252   3.756  0.00  0.00    +0.022 C 
ENDBRANCH   3   4
BRANCH   1  10
ATOM     10  C   UNL     1       2.201  -1.622   0.042  0.00  0.00    +0.203 C 
BRANCH  10  11
ATOM     11  N   UNL     1       1.176  -0.591   0.222  0.00  0.00    -0.292 N 
ATOM     12  C   UNL     1       1.493   0.578   0.815  0.00  0.00    +0.219 C 
ATOM     13  O   UNL     1       2.626   0.775   1.200  0.00  0.00    -0.275 OA
BRANCH  12  14
ATOM     14  C   UNL     1       0.439   1.638   1.001  0.00  0.00    +0.075 C 
ATOM     15  C   UNL     1       0.573   2.920   0.175  0.00  0.00    +0.013 C 
ATOM     16  C   UNL     1       0.861   2.943   1.679  0.00  0.00    +0.013 C 
ENDBRANCH  12  14
BRANCH  11  17
ATOM     17  C   UNL     1      -0.192  -0.829  -0.242  0.00  0.00    +0.111 C 
BRANCH  17  19
ATOM     18  C   UNL     1       0.512  -0.944  -2.637  0.00  0.00    +0.009 C 
ATOM     19  C   UNL     1      -0.376  -0.210  -1.629  0.00  0.00    +0.000 C 
ATOM     20  C   UNL     1      -1.840  -0.334  -2.054  0.00  0.00    +0.009 C 
ENDBRANCH  17  19
ENDBRANCH  11  17
ENDBRANCH  10  11
ENDBRANCH   1  10
BRANCH   3  21
ATOM     21  C   UNL     1       4.054  -3.761   0.219  0.00  0.00    +0.161 C 
BRANCH  21  22
ATOM     22  C   UNL     1       5.308  -2.928   0.285  0.00  0.00    +0.036 A 
ATOM     23  C   UNL     1       5.507  -1.748  -0.338  0.00  0.00    +0.024 A 
ATOM     24  C   UNL     1       6.806  -1.313  -0.012  0.00  0.00    +0.019 A 
ATOM     25  C   UNL     1       7.352  -2.242   0.798  0.00  0.00    +0.086 A 
ATOM     26  N   UNL     1       6.435  -3.233   0.988  0.00  0.00    -0.345 N 
BRANCH  26  27
ATOM     27  C   UNL     1       6.630  -4.431   1.810  0.00  0.00    +0.158 C 
BRANCH  27  28
ATOM     28  C   UNL     1       8.028  -4.431   2.373  0.00  0.00    -0.009 A 
ATOM     29  C   UNL     1       8.256  -3.974   3.658  0.00  0.00    +0.007 A 
ATOM     30  C   UNL     1       9.539  -3.974   4.174  0.00  0.00    +0.000 A 
ATOM     31  C   UNL     1      10.594  -4.432   3.406  0.00  0.00    +0.001 A 
ATOM     32  C   UNL     1      10.367  -4.889   2.122  0.00  0.00    +0.020 A 
ATOM     33  C   UNL     1       9.083  -4.894   1.607  0.00  0.00    +0.046 A 
ATOM     34 CL   UNL     1       8.796  -5.476  -0.004  0.00  0.00    -0.083 Cl
ENDBRANCH  27  28
ENDBRANCH  26  27
ENDBRANCH  21  22
ENDBRANCH   3  21
TORSDOF 10
