REMARK  Name = ZINC39939418
REMARK  5 active torsions:
REMARK  status: ('A' for Active; 'I' for Inactive)
REMARK    1  A    between atoms: C_10  and  S_11
REMARK    2  A    between atoms: S_11  and  N_14
REMARK    3  A    between atoms: N_17  and  C_20
REMARK    4  A    between atoms: C_20  and  C_21
REMARK    5  A    between atoms: N_23  and  C_24
REMARK                            x       y       z     vdW  Elec       q    Type
REMARK                         _______ _______ _______ _____ _____    ______ ____
ROOT
ATOM      1  S   UNL     1      -1.527  -0.879   0.012  0.00  0.00    +0.061 S 
ATOM      2  O   UNL     1      -1.256  -2.165   0.553  0.00  0.00    -0.153 OA
ATOM      3  O   UNL     1      -2.493  -0.003   0.577  0.00  0.00    -0.153 OA
ENDROOT
BRANCH   1  13
ATOM      4  C   UNL     1      -0.018   1.454   0.010  0.00  0.00    +0.030 A 
ATOM      5  C   UNL     1       1.118   2.185   0.003  0.00  0.00    +0.027 A 
ATOM      6  C   UNL     1       2.412   1.507  -0.013  0.00  0.00    +0.056 A 
ATOM      7  N   UNL     1       3.661   1.900  -0.023  0.00  0.00    -0.268 N 
ATOM      8  C   UNL     1       4.467   0.786  -0.036  0.00  0.00    +0.308 C 
ATOM      9  O   UNL     1       5.679   0.802  -0.047  0.00  0.00    -0.252 OA
ATOM     10  N   UNL     1       3.692  -0.350  -0.035  0.00  0.00    -0.267 N 
ATOM     11  C   UNL     1       2.433   0.009  -0.021  0.00  0.00    +0.058 A 
ATOM     12  C   UNL     1       1.157  -0.704  -0.013  0.00  0.00    +0.053 A 
ATOM     13  C   UNL     1       0.002  -0.004   0.002  0.00  0.00    +0.107 A 
ATOM     14  H   UNL     1       4.021  -1.262  -0.043  0.00  0.00    +0.156 HD
ATOM     15  H   UNL     1       3.966   2.821  -0.021  0.00  0.00    +0.156 HD
ENDBRANCH   1  13
BRANCH   1  16
ATOM     16  N   UNL     1      -1.967  -1.114  -1.567  0.00  0.00    -0.174 NA
ATOM     17  C   UNL     1      -2.790  -0.122  -2.277  0.00  0.00    +0.125 C 
ATOM     18  C   UNL     1      -3.977  -0.846  -2.920  0.00  0.00    +0.102 C 
ATOM     19  N   UNL     1      -3.482  -1.951  -3.751  0.00  0.00    -0.291 NA
ATOM     20  C   UNL     1      -2.783  -2.957  -2.939  0.00  0.00    +0.102 C 
ATOM     21  C   UNL     1      -1.541  -2.316  -2.299  0.00  0.00    +0.125 C 
BRANCH  19  22
ATOM     22  C   UNL     1      -4.574  -2.562  -4.520  0.00  0.00    +0.180 C 
BRANCH  22  23
ATOM     23  C   UNL     1      -4.000  -3.518  -5.535  0.00  0.00    +0.227 C 
ATOM     24  O   UNL     1      -2.800  -3.674  -5.610  0.00  0.00    -0.274 OA
ATOM     25  N   UNL     1      -4.822  -4.199  -6.359  0.00  0.00    -0.311 N 
ATOM     26  H   UNL     1      -5.782  -4.074  -6.299  0.00  0.00    +0.149 HD
BRANCH  25  27
ATOM     27  C   UNL     1      -4.264  -5.127  -7.345  0.00  0.00    +0.073 C 
ATOM     28  C   UNL     1      -4.851  -5.093  -8.758  0.00  0.00    +0.024 C 
ATOM     29  C   UNL     1      -5.162  -6.268  -7.828  0.00  0.00    +0.024 C 
ENDBRANCH  25  27
ENDBRANCH  22  23
ENDBRANCH  19  22
ENDBRANCH   1  16
TORSDOF 5
