REMARK  Name = ZINC08868488
REMARK  8 active torsions:
REMARK  status: ('A' for Active; 'I' for Inactive)
REMARK    1  A    between atoms: C_1  and  O_2
REMARK    2  A    between atoms: O_2  and  C_3
REMARK    3  A    between atoms: C_6  and  N_11
REMARK    4  A    between atoms: C_8  and  O_9
REMARK    5  A    between atoms: O_9  and  C_10
REMARK    6  A    between atoms: C_13  and  C_18
REMARK    7  A    between atoms: C_18  and  N_19
REMARK    8  A    between atoms: N_22  and  C_23
REMARK                            x       y       z     vdW  Elec       q    Type
REMARK                         _______ _______ _______ _____ _____    ______ ____
ROOT
ATOM      1  C   UNL     1      -9.178  -0.393   0.673  0.00  0.00    +0.152 C 
ENDROOT
BRANCH   1   4
ATOM      2  N   UNL     1      -5.948  -0.017   1.850  0.00  0.00    -0.234 N 
ATOM      3  C   UNL     1      -6.711  -0.864   0.920  0.00  0.00    +0.163 C 
ATOM      4  C   UNL     1      -8.097  -0.981   1.583  0.00  0.00    +0.213 C 
ATOM      5  O   UNL     1      -7.971  -0.196   2.804  0.00  0.00    -0.444 OA
ATOM      6  C   UNL     1      -6.734   0.308   2.885  0.00  0.00    +0.408 C 
ATOM      7  O   UNL     1      -6.359   0.999   3.811  0.00  0.00    -0.226 OA
BRANCH   2  11
ATOM      8  C   UNL     1      -1.976   1.163   1.348  0.00  0.00    +0.162 A 
ATOM      9  C   UNL     1      -2.587   0.360   0.398  0.00  0.00    +0.051 A 
ATOM     10  C   UNL     1      -3.902  -0.031   0.564  0.00  0.00    +0.027 A 
ATOM     11  C   UNL     1      -4.614   0.380   1.683  0.00  0.00    +0.043 A 
ATOM     12  C   UNL     1      -4.005   1.184   2.637  0.00  0.00    +0.073 A 
ATOM     13  C   UNL     1      -2.686   1.571   2.474  0.00  0.00    +0.163 A 
BRANCH   8  15
ATOM     14  C   UNL     1      -0.013   1.086   0.008  0.00  0.00    +0.277 C 
ATOM     15  O   UNL     1      -0.682   1.547   1.184  0.00  0.00    -0.491 OA
ENDBRANCH   8  15
BRANCH  13  16
ATOM     16  O   UNL     1      -2.085   2.354   3.409  0.00  0.00    -0.491 OA
ATOM     17  C   UNL     1      -2.873   2.735   4.539  0.00  0.00    +0.277 C 
ENDBRANCH  13  16
ENDBRANCH   2  11
ENDBRANCH   1   4
BRANCH   1  18
ATOM     18  N   UNL     1     -10.484  -0.516   1.324  0.00  0.00    -0.296 N 
ATOM     19  C   UNL     1     -11.592  -0.062   0.704  0.00  0.00    +0.300 C 
ATOM     20  O   UNL     1     -11.506   0.449  -0.396  0.00  0.00    -0.253 OA
ATOM     21  N   UNL     1     -12.793  -0.175   1.303  0.00  0.00    -0.294 N 
ATOM     22  H   UNL     1     -10.552  -0.923   2.202  0.00  0.00    +0.150 HD
ATOM     23  H   UNL     1     -12.861  -0.583   2.181  0.00  0.00    +0.151 HD
BRANCH  21  24
ATOM     24  C   UNL     1     -13.997   0.318   0.629  0.00  0.00    +0.037 C 
ATOM     25  C   UNL     1     -14.176  -0.419  -0.699  0.00  0.00    +0.029 C 
ATOM     26  C   UNL     1     -15.433   0.096  -1.403  0.00  0.00    -0.008 C 
ATOM     27  C   UNL     1     -16.653  -0.152  -0.514  0.00  0.00    +0.007 C 
ATOM     28  C   UNL     1     -16.474   0.585   0.815  0.00  0.00    -0.008 C 
ATOM     29  C   UNL     1     -15.217   0.070   1.519  0.00  0.00    +0.029 C 
ATOM     30  C   UNL     1     -16.333   2.085   0.550  0.00  0.00    +0.007 C 
ATOM     31  C   UNL     1     -15.113   2.333  -0.339  0.00  0.00    -0.008 C 
ATOM     32  C   UNL     1     -15.291   1.596  -1.667  0.00  0.00    +0.007 C 
ATOM     33  C   UNL     1     -13.855   1.819   0.365  0.00  0.00    +0.029 C 
ENDBRANCH  21  24
ENDBRANCH   1  18
TORSDOF 6
