REMARK  Name = ZINC22399632
REMARK  9 active torsions:
REMARK  status: ('A' for Active; 'I' for Inactive)
REMARK    1  A    between atoms: C_4  and  N_17
REMARK    2  A    between atoms: C_5  and  C_7
REMARK    3  A    between atoms: N_9  and  C_10
REMARK    4  A    between atoms: C_10  and  C_11
REMARK    5  A    between atoms: C_18  and  C_20
REMARK    6  A    between atoms: C_20  and  N_21
REMARK    7  A    between atoms: N_21  and  C_22
REMARK    8  A    between atoms: N_21  and  S_29
REMARK    9  A    between atoms: S_29  and  C_32
REMARK                            x       y       z     vdW  Elec       q    Type
REMARK                         _______ _______ _______ _____ _____    ______ ____
ROOT
ATOM      1  N   UNL     1      -2.425   5.798  -4.435  0.00  0.00    -0.283 N 
ATOM      2  C   UNL     1      -2.820   6.526  -5.498  0.00  0.00    +0.236 C 
ATOM      3  O   UNL     1      -2.635   7.724  -5.514  0.00  0.00    -0.274 OA
ATOM      4  H   UNL     1      -2.513   4.701  -4.456  0.00  0.00    +0.155 HD
ENDROOT
BRANCH   1   8
ATOM      5  C   UNL     1      -0.871   7.705  -1.068  0.00  0.00    +0.001 A 
ATOM      6  C   UNL     1      -1.882   8.301  -1.804  0.00  0.00    +0.002 A 
ATOM      7  C   UNL     1      -2.401   7.670  -2.917  0.00  0.00    +0.024 A 
ATOM      8  C   UNL     1      -1.907   6.433  -3.309  0.00  0.00    +0.046 A 
ATOM      9  C   UNL     1      -0.887   5.824  -2.563  0.00  0.00    +0.058 A 
ATOM     10  C   UNL     1      -0.372   6.475  -1.439  0.00  0.00    +0.015 A 
BRANCH   9  11
ATOM     11  C   UNL     1      -0.357   4.508  -2.966  0.00  0.00    +0.246 C 
ATOM     12  O   UNL     1      -0.869   3.904  -3.889  0.00  0.00    -0.270 OA
ATOM     13  N   UNL     1       0.693   3.975  -2.311  0.00  0.00    -0.309 N 
ATOM     14  H   UNL     1       1.156   4.522  -1.476  0.00  0.00    +0.149 HD
BRANCH  13  15
ATOM     15  C   UNL     1       1.219   2.668  -2.712  0.00  0.00    +0.136 C 
BRANCH  15  16
ATOM     16  C   UNL     1       2.402   2.297  -1.814  0.00  0.00    +0.135 C 
ATOM     17  C   UNL     1       2.963   0.923  -2.227  0.00  0.00    +0.035 C 
ATOM     18  C   UNL     1       4.442   1.208  -2.583  0.00  0.00    +0.031 C 
ATOM     19  C   UNL     1       4.705   2.540  -1.836  0.00  0.00    +0.160 C 
ATOM     20  O   UNL     1       3.459   3.257  -1.978  0.00  0.00    -0.375 OA
ENDBRANCH  15  16
ENDBRANCH  13  15
ENDBRANCH   9  11
ENDBRANCH   1   8
BRANCH   2  21
ATOM     21  C   UNL     1      -3.489   5.851  -6.667  0.00  0.00    +0.227 C 
BRANCH  21  22
ATOM     22  N   UNL     1      -3.818   6.851  -7.686  0.00  0.00    -0.194 N 
BRANCH  22  23
ATOM     23  C   UNL     1      -2.857   7.231  -8.628  0.00  0.00    +0.052 A 
ATOM     24  C   UNL     1      -2.939   8.475  -9.240  0.00  0.00    +0.027 A 
ATOM     25  C   UNL     1      -1.986   8.851 -10.167  0.00  0.00    +0.040 A 
ATOM     26  C   UNL     1      -0.956   7.985 -10.493  0.00  0.00    +0.124 A 
ATOM     27  C   UNL     1      -0.876   6.742  -9.888  0.00  0.00    +0.040 A 
ATOM     28  C   UNL     1      -1.824   6.364  -8.957  0.00  0.00    +0.027 A 
ATOM     29  F   UNL     1      -0.028   8.353 -11.403  0.00  0.00    -0.205 F 
ENDBRANCH  22  23
BRANCH  22  30
ATOM     30  S   UNL     1      -5.328   7.531  -7.722  0.00  0.00    +0.081 S 
ATOM     31  O   UNL     1      -5.596   7.853  -9.079  0.00  0.00    -0.149 OA
ATOM     32  O   UNL     1      -6.174   6.681  -6.959  0.00  0.00    -0.149 OA
BRANCH  30  33
ATOM     33  C   UNL     1      -5.231   9.059  -6.851  0.00  0.00    +0.146 A 
ATOM     34  C   UNL     1      -4.940  10.295  -7.325  0.00  0.00    +0.036 A 
ATOM     35  C   UNL     1      -4.923  11.363  -6.447  0.00  0.00    +0.010 A 
ATOM     36  C   UNL     1      -5.197  11.143  -5.138  0.00  0.00    +0.047 A 
ATOM     37  S   UNL     1      -5.500   9.383  -5.115  0.00  0.00    -0.077 S 
ENDBRANCH  30  33
ENDBRANCH  22  30
ENDBRANCH  21  22
ENDBRANCH   2  21
TORSDOF 9
