REMARK  Name = ZINC63506787
REMARK  14 active torsions:
REMARK  status: ('A' for Active; 'I' for Inactive)
REMARK    1  A    between atoms: C_1  and  C_2
REMARK    2  A    between atoms: C_4  and  C_17
REMARK    3  A    between atoms: C_7  and  O_12
REMARK    4  A    between atoms: O_12  and  C_13
REMARK    5  A    between atoms: C_17  and  C_18
REMARK    6  A    between atoms: C_18  and  N_19
REMARK    7  A    between atoms: C_23  and  C_27
REMARK    8  A    between atoms: C_23  and  C_28
REMARK    9  A    between atoms: C_24  and  C_25
REMARK   10  A    between atoms: C_24  and  O_26
REMARK   11  A    between atoms: C_28  and  C_29
REMARK   12  A    between atoms: C_29  and  C_30
REMARK   13  A    between atoms: C_31  and  C_32
REMARK   14  A    between atoms: C_31  and  C_33
REMARK                            x       y       z     vdW  Elec       q    Type
REMARK                         _______ _______ _______ _____ _____    ______ ____
ROOT
ATOM      1  C   UNL     1      -2.206   0.646  -3.216  0.00  0.00    +0.052 C 
ENDROOT
BRANCH   1   4
ATOM      2  C   UNL     1      -3.128   2.715  -0.897  0.00  0.00    +0.035 C 
ATOM      3  C   UNL     1      -3.268   1.195  -0.793  0.00  0.00    +0.103 C 
ATOM      4  C   UNL     1      -2.280   0.517  -1.716  0.00  0.00    -0.037 C 
ATOM      5  C   UNL     1      -1.479  -0.230  -0.924  0.00  0.00    +0.003 A 
ATOM      6  C   UNL     1      -0.341  -1.111  -1.207  0.00  0.00    +0.056 A 
ATOM      7  C   UNL     1       0.284  -1.744  -0.185  0.00  0.00    +0.131 A 
ATOM      8  C   UNL     1      -0.120  -1.589   1.153  0.00  0.00    +0.048 A 
ATOM      9  C   UNL     1      -1.155  -0.800   1.512  0.00  0.00    +0.029 A 
ATOM     10  C   UNL     1      -1.903  -0.068   0.486  0.00  0.00    +0.043 A 
ATOM     11  N   UNL     1      -2.928   0.747   0.562  0.00  0.00    -0.378 N 
ATOM     12  H   UNL     1      -3.384   1.010   1.377  0.00  0.00    +0.160 HD
BRANCH   7  13
ATOM     13  O   UNL     1       1.337  -2.558  -0.462  0.00  0.00    -0.406 OA
BRANCH  13  14
ATOM     14  C   UNL     1       1.966  -3.205   0.645  0.00  0.00    +0.575 C 
ATOM     15  F   UNL     1       1.032  -4.011   1.306  0.00  0.00    -0.133 F 
ATOM     16  F   UNL     1       3.022  -3.998   0.184  0.00  0.00    -0.133 F 
ATOM     17  F   UNL     1       2.458  -2.241   1.531  0.00  0.00    -0.133 F 
ENDBRANCH  13  14
ENDBRANCH   7  13
ENDBRANCH   1   4
BRANCH   1  18
ATOM     18  C   UNL     1      -1.055  -0.213  -3.745  0.00  0.00    +0.118 C 
BRANCH  18  19
ATOM     19  N   UNL     1      -0.983  -0.087  -5.203  0.00  0.00    -0.235 N 
ATOM     20  C   UNL     1      -1.626  -0.858  -6.099  0.00  0.00    +0.406 C 
ATOM     21  O   UNL     1      -2.385  -1.756  -5.792  0.00  0.00    -0.226 OA
ATOM     22  O   UNL     1      -1.341  -0.528  -7.370  0.00  0.00    -0.439 OA
ATOM     23  C   UNL     1      -0.795   0.806  -7.373  0.00  0.00    +0.158 C 
ATOM     24  C   UNL     1      -0.195   0.912  -5.952  0.00  0.00    +0.175 C 
ATOM     25  C   UNL     1       1.289   0.541  -5.961  0.00  0.00    +0.068 C 
ATOM     26  C   UNL     1      -1.897   1.848  -7.574  0.00  0.00    +0.060 C 
BRANCH  24  27
ATOM     27  O   UNL     1      -0.390   2.221  -5.413  0.00  0.00    -0.368 OA
ATOM     28  H   UNL     1      -0.109   2.314  -4.493  0.00  0.00    +0.212 HD
ENDBRANCH  24  27
BRANCH  23  29
ATOM     29  C   UNL     1       0.292   0.949  -8.440  0.00  0.00    +0.056 C 
BRANCH  29  30
ATOM     30  C   UNL     1      -0.338   0.820  -9.829  0.00  0.00    +0.031 C 
BRANCH  30  31
ATOM     31  C   UNL     1       0.733   0.961 -10.881  0.00  0.00    -0.028 C 
ATOM     32  C   UNL     1       0.938  -0.007 -11.740  0.00  0.00    -0.080 C 
ATOM     33  C   UNL     1       0.197  -1.311 -11.597  0.00  0.00    +0.038 C 
ATOM     34  C   UNL     1       1.914   0.186 -12.872  0.00  0.00    +0.038 C 
ENDBRANCH  30  31
ENDBRANCH  29  30
ENDBRANCH  23  29
ENDBRANCH  18  19
ENDBRANCH   1  18
TORSDOF 9
