REMARK  Name = ZINC66893556
REMARK  6 active torsions:
REMARK  status: ('A' for Active; 'I' for Inactive)
REMARK    1  A    between atoms: C_1  and  O_2
REMARK    2  A    between atoms: O_2  and  C_3
REMARK    3  A    between atoms: C_3  and  C_5
REMARK    4  A    between atoms: C_11  and  C_13
REMARK    5  A    between atoms: C_13  and  N_14
REMARK    6  A    between atoms: C_19  and  C_21
REMARK                            x       y       z     vdW  Elec       q    Type
REMARK                         _______ _______ _______ _____ _____    ______ ____
ROOT
ATOM      1  N   UNL     1       4.781  -6.796   2.279  0.00  0.00    +0.393 N 
ATOM      2  C   UNL     1       5.803  -6.126   1.465  0.00  0.00    -0.077 C 
ATOM      3  C   UNL     1       6.927  -7.111   1.137  0.00  0.00    -0.019 C 
ATOM      4  C   UNL     1       7.557  -7.610   2.441  0.00  0.00    -0.003 C 
ATOM      5  C   UNL     1       6.468  -8.241   3.314  0.00  0.00    -0.006 C 
ATOM      6  C   UNL     1       5.361  -7.213   3.561  0.00  0.00    +0.020 C 
ATOM      7  H   UNL     1       4.440  -7.607   1.785  0.00  0.00    -0.080 HD
ENDROOT
BRANCH   6   8
ATOM      8  C   UNL     1       4.287  -7.830   4.420  0.00  0.00    +0.202 C 
ATOM      9  O   UNL     1       3.311  -8.331   3.904  0.00  0.00    -0.277 OA
ATOM     10  N   UNL     1       4.412  -7.824   5.762  0.00  0.00    -0.298 N 
ATOM     11  C   UNL     1       5.528  -7.123   6.416  0.00  0.00    +0.136 C 
ATOM     12  C   UNL     1       4.954  -6.216   7.511  0.00  0.00    +0.179 C 
ATOM     13  O   UNL     1       4.104  -6.988   8.363  0.00  0.00    -0.377 OA
ATOM     14  C   UNL     1       2.964  -7.545   7.702  0.00  0.00    +0.179 C 
ATOM     15  C   UNL     1       3.433  -8.514   6.617  0.00  0.00    +0.136 C 
ENDBRANCH   6   8
BRANCH   1  16
ATOM     16  C   UNL     1       3.668  -5.870   2.525  0.00  0.00    +0.020 C 
BRANCH  16  23
ATOM     17  C   UNL     1       0.497  -2.298   1.007  0.00  0.00    +0.101 C 
ATOM     18  C   UNL     1       1.139  -2.927  -0.231  0.00  0.00    +0.033 C 
ATOM     19  C   UNL     1       1.205  -4.447  -0.050  0.00  0.00    +0.108 C 
ATOM     20  N   UNL     1       1.903  -4.744   1.208  0.00  0.00    -0.303 N 
ATOM     21  C   UNL     1       1.422  -4.117   2.447  0.00  0.00    +0.108 C 
ATOM     22  C   UNL     1       1.353  -2.601   2.238  0.00  0.00    +0.033 C 
ATOM     23  C   UNL     1       2.963  -5.575   1.226  0.00  0.00    +0.199 C 
ATOM     24  O   UNL     1       3.350  -6.087   0.197  0.00  0.00    -0.278 OA
BRANCH  17  25
ATOM     25  C   UNL     1       0.399  -0.806   0.819  0.00  0.00    +0.310 C 
ATOM     26  O   UNL     1       0.957  -0.062   1.589  0.00  0.00    -0.251 OA
BRANCH  25  28
ATOM     27  C   UNL     1      -0.358   1.120  -0.324  0.00  0.00    +0.280 C 
ATOM     28  O   UNL     1      -0.308  -0.304  -0.206  0.00  0.00    -0.468 OA
ENDBRANCH  25  28
ENDBRANCH  17  25
ENDBRANCH  16  23
ENDBRANCH   1  16
TORSDOF 5
