REMARK  Name = ZINC09433684
REMARK  7 active torsions:
REMARK  status: ('A' for Active; 'I' for Inactive)
REMARK    1  A    between atoms: C_1  and  C_2
REMARK    2  A    between atoms: C_8  and  C_9
REMARK    3  A    between atoms: C_8  and  N_68
REMARK    4  A    between atoms: C_9  and  N_10
REMARK    5  A    between atoms: C_11  and  C_13
REMARK    6  A    between atoms: N_23  and  C_31
REMARK    7  A    between atoms: C_24  and  C_26
REMARK                            x       y       z     vdW  Elec       q    Type
REMARK                         _______ _______ _______ _____ _____    ______ ____
ROOT
ATOM      1  C   UNL     1      -4.429   2.568   3.624  0.00  0.00    +0.131 C 
ATOM      2  C   UNL     1      -4.246   4.059   3.738  0.00  0.00    -0.021 A 
ATOM      3  C   UNL     1      -4.864   4.769   4.745  0.00  0.00    +0.005 A 
ATOM      4  C   UNL     1      -4.675   6.136   4.844  0.00  0.00    +0.000 A 
ATOM      5  C   UNL     1      -3.865   6.798   3.938  0.00  0.00    +0.001 A 
ATOM      6  C   UNL     1      -3.244   6.099   2.922  0.00  0.00    +0.013 A 
ATOM      7  C   UNL     1      -3.438   4.724   2.814  0.00  0.00    +0.041 A 
ATOM      8  C   UNL     1      -2.815   3.951   1.720  0.00  0.00    +0.248 C 
ATOM      9  O   UNL     1      -1.931   4.444   1.047  0.00  0.00    -0.270 OA
ATOM     10  N   UNL     1      -3.238   2.697   1.473  0.00  0.00    -0.286 N 
ATOM     11  C   UNL     1      -4.406   2.147   2.157  0.00  0.00    +0.130 C 
ENDROOT
BRANCH  11  12
ATOM     12  C   UNL     1      -5.657   2.644   1.480  0.00  0.00    +0.011 A 
ATOM     13  C   UNL     1      -6.803   1.975   1.205  0.00  0.00    +0.013 A 
ATOM     14  C   UNL     1      -7.834   2.643   0.572  0.00  0.00    +0.008 A 
ATOM     15  C   UNL     1      -7.665   3.945   0.235  0.00  0.00    +0.045 A 
ATOM     16  S   UNL     1      -6.011   4.267   0.825  0.00  0.00    -0.100 S 
ENDBRANCH  11  12
BRANCH  10  17
ATOM     17  C   UNL     1      -2.513   1.868   0.507  0.00  0.00    +0.077 C 
ATOM     18  C   UNL     1      -1.008   1.786   0.880  0.00  0.00    +0.022 C 
ATOM     19  C   UNL     1      -0.342   1.442  -0.476  0.00  0.00    +0.002 C 
ATOM     20  C   UNL     1      -1.142   2.259  -1.511  0.00  0.00    +0.002 C 
ATOM     21  C   UNL     1      -2.522   2.530  -0.887  0.00  0.00    +0.022 C 
ENDBRANCH  10  17
BRANCH   1  23
ATOM     22  N   UNL     1      -5.855   1.035   4.941  0.00  0.00    -0.317 N 
ATOM     23  C   UNL     1      -5.750   2.179   4.236  0.00  0.00    +0.223 C 
ATOM     24  O   UNL     1      -6.718   2.895   4.094  0.00  0.00    -0.275 OA
ATOM     25  H   UNL     1      -5.066   0.499   5.116  0.00  0.00    +0.149 HD
BRANCH  22  26
ATOM     26  C   UNL     1      -7.162   0.601   5.441  0.00  0.00    +0.085 C 
BRANCH  26  27
ATOM     27  C   UNL     1      -7.004  -0.717   6.202  0.00  0.00    -0.059 C 
BRANCH  27  34
ATOM     28  C   UNL     1      -7.921   0.225   8.690  0.00  0.00    -0.013 C 
ATOM     29  C   UNL     1      -8.909  -0.132   7.577  0.00  0.00    -0.072 C 
ATOM     30  C   UNL     1     -10.199  -0.676   8.195  0.00  0.00    -0.016 C 
ATOM     31  C   UNL     1     -11.176  -1.051   7.078  0.00  0.00    -0.003 C 
ATOM     32  C   UNL     1     -10.515  -2.079   6.155  0.00  0.00    -0.019 C 
ATOM     33  C   UNL     1      -9.216  -1.494   5.596  0.00  0.00    -0.078 C 
ATOM     34  N   UNL     1      -8.309  -1.177   6.720  0.00  0.00    +0.382 N 
ATOM     35  H   UNL     1      -8.165  -2.025   7.281  0.00  0.00    -0.081 HD
ENDBRANCH  27  34
ENDBRANCH  26  27
ENDBRANCH  22  26
ENDBRANCH   1  23
TORSDOF 6
