REMARK  Name = ZINC36642471
REMARK  9 active torsions:
REMARK  status: ('A' for Active; 'I' for Inactive)
REMARK    1  A    between atoms: C_1  and  C_2
REMARK    2  A    between atoms: C_2  and  N_3
REMARK    3  A    between atoms: N_3  and  C_4
REMARK    4  A    between atoms: N_3  and  C_6
REMARK    5  A    between atoms: C_4  and  C_5
REMARK    6  A    between atoms: C_6  and  C_7
REMARK    7  A    between atoms: C_7  and  N_8
REMARK    8  A    between atoms: C_19  and  C_21
REMARK    9  A    between atoms: C_23  and  C_33
REMARK                            x       y       z     vdW  Elec       q    Type
REMARK                         _______ _______ _______ _____ _____    ______ ____
ROOT
ATOM      1  N   UNL     1       2.264  -2.635  -2.251  0.00  0.00    -0.249 N 
ATOM      2  C   UNL     1       1.064  -3.274  -2.518  0.00  0.00    +0.168 A 
ATOM      3  N   UNL     1      -0.035  -2.780  -3.039  0.00  0.00    -0.224 NA
ATOM      4  C   UNL     1      -1.141  -3.527  -3.245  0.00  0.00    +0.080 A 
ATOM      5  C   UNL     1      -2.379  -3.121  -3.794  0.00  0.00    +0.030 A 
ATOM      6  C   UNL     1      -3.409  -4.013  -3.936  0.00  0.00    +0.017 A 
ATOM      7  C   UNL     1      -3.277  -5.340  -3.549  0.00  0.00    +0.019 A 
ATOM      8  C   UNL     1      -2.079  -5.772  -3.009  0.00  0.00    +0.032 A 
ATOM      9  C   UNL     1      -1.042  -4.885  -2.864  0.00  0.00    +0.042 A 
ATOM     10  S   UNL     1       0.621  -4.985  -2.248  0.00  0.00    -0.052 S 
ATOM     11 BR   UNL     1      -4.720  -6.544  -3.759  0.00  0.00    -0.050 Br
ATOM     12  C   UNL     1       3.339  -3.351  -1.869  0.00  0.00    +0.266 C 
ATOM     13  O   UNL     1       4.350  -2.784  -1.512  0.00  0.00    -0.271 OA
ENDROOT
BRANCH  12  14
ATOM     14  C   UNL     1       3.286  -4.857  -1.886  0.00  0.00    +0.299 C 
ATOM     15  C   UNL     1       3.561  -5.369  -3.306  0.00  0.00    +0.220 C 
ATOM     16  O   UNL     1       4.863  -4.921  -3.699  0.00  0.00    -0.481 OA
ATOM     17  C   UNL     1       5.865  -5.081  -2.791  0.00  0.00    +0.163 A 
ATOM     18  C   UNL     1       7.184  -5.015  -3.214  0.00  0.00    +0.049 A 
ATOM     19  C   UNL     1       8.212  -5.172  -2.304  0.00  0.00    +0.004 A 
ATOM     20  C   UNL     1       7.928  -5.394  -0.969  0.00  0.00    +0.004 A 
ATOM     21  C   UNL     1       6.616  -5.463  -0.541  0.00  0.00    +0.049 A 
ATOM     22  C   UNL     1       5.579  -5.308  -1.450  0.00  0.00    +0.163 A 
ATOM     23  O   UNL     1       4.291  -5.386  -1.014  0.00  0.00    -0.472 OA
ATOM     24  C   UNL     1       2.511  -4.811  -4.268  0.00  0.00    +0.056 C 
ENDBRANCH  12  14
BRANCH   1  25
ATOM     25  C   UNL     1       2.363  -1.179  -2.384  0.00  0.00    +0.097 C 
BRANCH  25  26
ATOM     26  C   UNL     1       2.111  -0.524  -1.024  0.00  0.00    -0.059 C 
BRANCH  26  27
ATOM     27  N   UNL     1       2.338   0.923  -1.128  0.00  0.00    +0.380 N 
ATOM     28  H   UNL     1       3.263   1.094  -1.492  0.00  0.00    -0.082 HD
BRANCH  27  30
ATOM     29  C   UNL     1       1.650   2.995  -2.239  0.00  0.00    -0.017 C 
ATOM     30  C   UNL     1       1.340   1.511  -2.032  0.00  0.00    -0.082 C 
ENDBRANCH  27  30
BRANCH  27  31
ATOM     31  C   UNL     1       2.214   1.535   0.202  0.00  0.00    -0.082 C 
ATOM     32  C   UNL     1       3.362   1.055   1.093  0.00  0.00    -0.017 C 
ENDBRANCH  27  31
ENDBRANCH  26  27
ENDBRANCH  25  26
ENDBRANCH   1  25
TORSDOF 6
