REMARK  Name = ZINC12487973
REMARK  12 active torsions:
REMARK  status: ('A' for Active; 'I' for Inactive)
REMARK    1  A    between atoms: C_1  and  C_2
REMARK    2  A    between atoms: C_5  and  C_8
REMARK    3  A    between atoms: C_8  and  C_10
REMARK    4  A    between atoms: C_8  and  N_19
REMARK    5  A    between atoms: N_12  and  C_13
REMARK    6  A    between atoms: C_13  and  C_14
REMARK    7  A    between atoms: N_19  and  C_20
REMARK    8  A    between atoms: C_23  and  C_27
REMARK    9  A    between atoms: C_24  and  C_26
REMARK   10  A    between atoms: C_28  and  C_30
REMARK   11  A    between atoms: C_30  and  N_31
REMARK   12  A    between atoms: C_32  and  C_34
REMARK                            x       y       z     vdW  Elec       q    Type
REMARK                         _______ _______ _______ _____ _____    ______ ____
ROOT
ATOM      1  N   UNL     1      -6.159   2.777  -0.304  0.00  0.00    -0.254 N 
ATOM      2  C   UNL     1      -4.995   2.129  -0.508  0.00  0.00    +0.238 C 
ATOM      3  O   UNL     1      -4.893   0.958  -0.210  0.00  0.00    -0.274 OA
ENDROOT
BRANCH   1   4
ATOM      4  C   UNL     1      -6.311   4.097  -0.744  0.00  0.00    +0.038 A 
ATOM      5  C   UNL     1      -7.165   4.384  -1.801  0.00  0.00    +0.024 A 
ATOM      6  C   UNL     1      -7.313   5.688  -2.232  0.00  0.00    +0.005 A 
ATOM      7  C   UNL     1      -6.612   6.707  -1.613  0.00  0.00    -0.047 A 
ATOM      8  C   UNL     1      -5.762   6.424  -0.560  0.00  0.00    -0.046 A 
ATOM      9  C   UNL     1      -5.614   5.123  -0.120  0.00  0.00    +0.027 A 
ATOM     10  C   UNL     1      -5.000   7.537   0.112  0.00  0.00    +0.044 C 
ATOM     11  C   UNL     1      -6.777   8.128  -2.086  0.00  0.00    +0.044 C 
ENDBRANCH   1   4
BRANCH   1  12
ATOM     12  C   UNL     1      -7.265   2.100   0.377  0.00  0.00    +0.197 C 
BRANCH  12  17
ATOM     13  C   UNL     1     -11.944   5.490   0.294  0.00  0.00    +0.044 C 
ATOM     14  C   UNL     1     -10.724   4.606   0.316  0.00  0.00    -0.050 A 
ATOM     15  C   UNL     1     -10.791   3.323  -0.195  0.00  0.00    +0.004 A 
ATOM     16  C   UNL     1      -9.671   2.512  -0.175  0.00  0.00    +0.006 A 
ATOM     17  C   UNL     1      -8.485   2.984   0.355  0.00  0.00    -0.018 A 
ATOM     18  C   UNL     1      -8.420   4.265   0.871  0.00  0.00    +0.006 A 
ATOM     19  C   UNL     1      -9.538   5.078   0.847  0.00  0.00    +0.004 A 
ENDBRANCH  12  17
BRANCH  12  20
ATOM     20  C   UNL     1      -6.876   1.815   1.805  0.00  0.00    +0.239 C 
ATOM     21  O   UNL     1      -5.783   2.146   2.213  0.00  0.00    -0.273 OA
ATOM     22  N   UNL     1      -7.744   1.194   2.628  0.00  0.00    -0.306 N 
ATOM     23  H   UNL     1      -8.618   0.929   2.302  0.00  0.00    +0.149 HD
BRANCH  22  24
ATOM     24  C   UNL     1      -7.366   0.917   4.017  0.00  0.00    +0.178 C 
BRANCH  24  25
ATOM     25  C   UNL     1      -8.503   0.220   4.718  0.00  0.00    +0.122 A 
ATOM     26  C   UNL     1      -8.692  -1.110   4.781  0.00  0.00    +0.046 A 
ATOM     27  C   UNL     1      -9.872  -1.321   5.530  0.00  0.00    +0.041 A 
ATOM     28  C   UNL     1     -10.334  -0.108   5.880  0.00  0.00    +0.195 A 
ATOM     29  O   UNL     1      -9.498   0.822   5.390  0.00  0.00    -0.466 OA
ENDBRANCH  24  25
ENDBRANCH  22  24
ENDBRANCH  12  20
ENDBRANCH   1  12
BRANCH   2  30
ATOM     30  C   UNL     1      -3.821   2.860  -1.106  0.00  0.00    +0.201 C 
BRANCH  30  31
ATOM     31  N   UNL     1      -2.652   1.976  -1.122  0.00  0.00    -0.302 N 
ATOM     32  C   UNL     1      -1.479   2.419  -1.616  0.00  0.00    +0.251 C 
ATOM     33  O   UNL     1      -1.390   3.552  -2.049  0.00  0.00    -0.270 OA
ATOM     34  H   UNL     1      -2.723   1.072  -0.776  0.00  0.00    +0.150 HD
BRANCH  32  35
ATOM     35  C   UNL     1      -0.310   1.534  -1.632  0.00  0.00    +0.074 A 
ATOM     36  C   UNL     1       0.971   1.788  -2.095  0.00  0.00    +0.021 A 
ATOM     37  C   UNL     1       1.886   0.770  -1.994  0.00  0.00    +0.008 A 
ATOM     38  C   UNL     1       1.500  -0.417  -1.456  0.00  0.00    +0.046 A 
ATOM     39  S   UNL     1      -0.168  -0.152  -1.067  0.00  0.00    -0.092 S 
ENDBRANCH  32  35
ENDBRANCH  30  31
ENDBRANCH   2  30
TORSDOF 9
