REMARK  Name = ZINC04195616
REMARK  10 active torsions:
REMARK  status: ('A' for Active; 'I' for Inactive)
REMARK    1  A    between atoms: C_1  and  C_2
REMARK    2  A    between atoms: C_2  and  O_3
REMARK    3  A    between atoms: O_3  and  C_4
REMARK    4  A    between atoms: C_4  and  C_6
REMARK    5  A    between atoms: C_7  and  C_23
REMARK    6  A    between atoms: C_12  and  C_14
REMARK    7  A    between atoms: C_23  and  N_24
REMARK    8  A    between atoms: N_24  and  C_25
REMARK    9  A    between atoms: C_25  and  C_26
REMARK   10  A    between atoms: C_26  and  C_27
REMARK                            x       y       z     vdW  Elec       q    Type
REMARK                         _______ _______ _______ _____ _____    ______ ____
ROOT
ATOM      1  C   UNL     1       1.329  -2.340  -2.531  0.00  0.00    +0.076 C 
ATOM      2  C   UNL     1       1.628  -3.654  -2.615  0.00  0.00    +0.007 C 
ATOM      3  N   UNL     1       2.353  -4.146  -3.662  0.00  0.00    -0.274 N 
ATOM      4  C   UNL     1       2.817  -3.390  -4.665  0.00  0.00    +0.304 C 
ATOM      5  O   UNL     1       3.455  -3.919  -5.554  0.00  0.00    -0.252 OA
ATOM      6  N   UNL     1       2.600  -2.061  -4.720  0.00  0.00    -0.288 N 
ATOM      7  C   UNL     1       1.821  -1.433  -3.640  0.00  0.00    +0.144 C 
ATOM      8  H   UNL     1       2.544  -5.097  -3.680  0.00  0.00    +0.156 HD
ATOM      9  H   UNL     1       2.945  -1.532  -5.456  0.00  0.00    +0.151 HD
ENDROOT
BRANCH   7  10
ATOM     10  C   UNL     1       2.679  -0.361  -3.018  0.00  0.00    -0.019 A 
ATOM     11  C   UNL     1       3.993  -0.636  -2.687  0.00  0.00    +0.009 A 
ATOM     12  C   UNL     1       4.784   0.343  -2.116  0.00  0.00    +0.050 A 
ATOM     13  C   UNL     1       4.261   1.603  -1.874  0.00  0.00    +0.166 A 
ATOM     14  C   UNL     1       2.938   1.880  -2.207  0.00  0.00    +0.167 A 
ATOM     15  C   UNL     1       2.152   0.895  -2.784  0.00  0.00    +0.055 A 
ATOM     16  O   UNL     1       2.665   3.175  -1.873  0.00  0.00    -0.453 OA
ATOM     17  C   UNL     1       3.708   3.564  -0.960  0.00  0.00    +0.466 C 
ATOM     18  O   UNL     1       4.818   2.725  -1.331  0.00  0.00    -0.453 OA
ENDBRANCH   7  10
BRANCH   1  19
ATOM     19  C   UNL     1       0.577  -1.829  -1.447  0.00  0.00    +0.339 C 
ATOM     20  O   UNL     1      -0.608  -1.588  -1.589  0.00  0.00    -0.245 OA
BRANCH  19  21
ATOM     21  O   UNL     1       1.173  -1.609  -0.257  0.00  0.00    -0.462 OA
BRANCH  21  23
ATOM     22  C   UNL     1       1.197  -0.908   2.056  0.00  0.00    +0.048 C 
ATOM     23  C   UNL     1       0.353  -1.091   0.793  0.00  0.00    +0.229 C 
ENDBRANCH  21  23
ENDBRANCH  19  21
ENDBRANCH   1  19
BRANCH   2  24
ATOM     24  C   UNL     1       1.153  -4.593  -1.536  0.00  0.00    -0.030 C 
BRANCH  24  25
ATOM     25  N   UNL     1       0.182  -5.539  -2.102  0.00  0.00    +0.383 N 
ATOM     26  H   UNL     1      -0.605  -5.030  -2.475  0.00  0.00    -0.085 HD
ATOM     27  H   UNL     1       0.620  -6.069  -2.840  0.00  0.00    -0.085 HD
BRANCH  25  28
ATOM     28  C   UNL     1      -0.280  -6.454  -1.050  0.00  0.00    -0.077 C 
BRANCH  28  29
ATOM     29  C   UNL     1      -1.292  -7.439  -1.639  0.00  0.00    +0.016 C 
BRANCH  29  30
ATOM     30  C   UNL     1      -1.766  -8.378  -0.560  0.00  0.00    -0.049 A 
ATOM     31  C   UNL     1      -1.090  -9.561  -0.327  0.00  0.00    +0.005 A 
ATOM     32  C   UNL     1      -1.525 -10.422   0.663  0.00  0.00    +0.020 A 
ATOM     33  C   UNL     1      -2.637 -10.100   1.420  0.00  0.00    +0.041 A 
ATOM     34  C   UNL     1      -3.313  -8.916   1.186  0.00  0.00    +0.020 A 
ATOM     35  C   UNL     1      -2.874  -8.053   0.200  0.00  0.00    +0.005 A 
ATOM     36 CL   UNL     1      -3.184 -11.182   2.663  0.00  0.00    -0.084 Cl
ENDBRANCH  29  30
ENDBRANCH  28  29
ENDBRANCH  25  28
ENDBRANCH  24  25
ENDBRANCH   2  24
TORSDOF 9
