REMARK  Name = ZINC00920066
REMARK  9 active torsions:
REMARK  status: ('A' for Active; 'I' for Inactive)
REMARK    1  A    between atoms: C_1  and  C_2
REMARK    2  A    between atoms: C_5  and  C_8
REMARK    3  A    between atoms: C_8  and  N_9
REMARK    4  A    between atoms: N_9  and  C_10
REMARK    5  A    between atoms: N_9  and  C_24
REMARK    6  A    between atoms: C_10  and  C_11
REMARK    7  A    between atoms: C_17  and  C_23
REMARK    8  A    between atoms: C_24  and  N_26
REMARK    9  A    between atoms: N_26  and  C_27
REMARK                            x       y       z     vdW  Elec       q    Type
REMARK                         _______ _______ _______ _____ _____    ______ ____
ROOT
ATOM      1  N   UNL     1       1.454  -2.861   5.433  0.00  0.00    -0.304 N 
ENDROOT
BRANCH   1   2
ATOM      2  C   UNL     1       1.833  -1.851   6.241  0.00  0.00    +0.133 C 
ATOM      3  S   UNL     1       3.457  -1.745   6.775  0.00  0.00    -0.019 S 
BRANCH   2   4
ATOM      4  N   UNL     1       0.934  -0.925   6.630  0.00  0.00    -0.329 N 
ATOM      5  C   UNL     1       1.368   0.232   7.417  0.00  0.00    +0.127 C 
ATOM      6  H   UNL     1       0.000  -1.024   6.388  0.00  0.00    +0.147 HD
ENDBRANCH   2   4
ENDBRANCH   1   2
BRANCH   1   7
ATOM      7  C   UNL     1       2.402  -3.925   5.097  0.00  0.00    +0.142 C 
BRANCH   7  12
ATOM      8  C   UNL     1       4.950  -2.715   0.053  0.00  0.00    +0.044 C 
ATOM      9  C   UNL     1       4.286  -3.031   1.369  0.00  0.00    -0.050 A 
ATOM     10  C   UNL     1       4.904  -2.686   2.556  0.00  0.00    +0.003 A 
ATOM     11  C   UNL     1       4.295  -2.976   3.762  0.00  0.00    +0.005 A 
ATOM     12  C   UNL     1       3.067  -3.610   3.781  0.00  0.00    -0.030 A 
ATOM     13  C   UNL     1       2.450  -3.959   2.594  0.00  0.00    +0.005 A 
ATOM     14  C   UNL     1       3.058  -3.665   1.388  0.00  0.00    +0.003 A 
ENDBRANCH   7  12
ENDBRANCH   1   7
BRANCH   1  15
ATOM     15  C   UNL     1       0.094  -2.893   4.891  0.00  0.00    +0.147 C 
BRANCH  15  16
ATOM     16  C   UNL     1      -0.787  -3.719   5.792  0.00  0.00    +0.035 A 
ATOM     17  C   UNL     1      -1.529  -3.113   6.752  0.00  0.00    +0.020 A 
ATOM     18  C   UNL     1      -2.374  -3.944   7.612  0.00  0.00    -0.001 A 
ATOM     19  C   UNL     1      -3.161  -3.377   8.619  0.00  0.00    +0.010 A 
ATOM     20  C   UNL     1      -3.938  -4.180   9.405  0.00  0.00    +0.001 A 
ATOM     21  C   UNL     1      -3.958  -5.554   9.208  0.00  0.00    +0.005 A 
ATOM     22  C   UNL     1      -3.186  -6.136   8.226  0.00  0.00    -0.026 A 
ATOM     23  C   UNL     1      -2.387  -5.338   7.414  0.00  0.00    +0.052 A 
ATOM     24  N   UNL     1      -1.608  -5.893   6.421  0.00  0.00    -0.322 N 
ATOM     25  H   UNL     1      -1.618  -6.883   6.282  0.00  0.00    +0.169 HD
ATOM     26  C   UNL     1      -0.836  -5.121   5.636  0.00  0.00    +0.254 A 
ATOM     27  O   UNL     1      -0.161  -5.646   4.767  0.00  0.00    -0.268 OA
ATOM     28  C   UNL     1      -3.212  -7.629   8.029  0.00  0.00    +0.046 C 
ENDBRANCH  15  16
ENDBRANCH   1  15
TORSDOF 6
