REMARK  Name = ZINC64491979
REMARK  11 active torsions:
REMARK  status: ('A' for Active; 'I' for Inactive)
REMARK    1  A    between atoms: C_1  and  C_2
REMARK    2  A    between atoms: C_2  and  O_3
REMARK    3  A    between atoms: O_3  and  C_4
REMARK    4  A    between atoms: C_4  and  C_6
REMARK    5  A    between atoms: C_8  and  C_36
REMARK    6  A    between atoms: C_9  and  C_13
REMARK    7  A    between atoms: C_11  and  C_12
REMARK    8  A    between atoms: C_19  and  C_22
REMARK    9  A    between atoms: N_24  and  C_25
REMARK   10  A    between atoms: C_25  and  C_26
REMARK   11  A    between atoms: C_26  and  C_27
REMARK                            x       y       z     vdW  Elec       q    Type
REMARK                         _______ _______ _______ _____ _____    ______ ____
ROOT
ATOM      1  C   UNL     1      -3.624  -5.652  -1.674  0.00  0.00    +0.265 C 
ATOM      2  O   UNL     1      -3.064  -6.569  -1.105  0.00  0.00    -0.268 OA
ATOM      3  N   UNL     1      -4.358  -5.892  -2.779  0.00  0.00    -0.296 N 
ATOM      4  C   UNL     1      -4.890  -4.782  -3.580  0.00  0.00    +0.108 C 
ATOM      5  C   UNL     1      -4.455  -4.972  -5.037  0.00  0.00    +0.020 C 
ATOM      6  C   UNL     1      -4.890  -6.359  -5.518  0.00  0.00    +0.016 C 
ATOM      7  C   UNL     1      -4.209  -7.432  -4.666  0.00  0.00    +0.092 C 
ATOM      8  C   UNL     1      -4.636  -7.270  -3.209  0.00  0.00    +0.120 C 
ENDROOT
BRANCH   1  11
ATOM      9  C   UNL     1      -2.895  -2.426   0.022  0.00  0.00    +0.169 C 
ATOM     10  C   UNL     1      -2.676  -3.918  -0.154  0.00  0.00    -0.023 C 
ATOM     11  C   UNL     1      -3.500  -4.274  -1.155  0.00  0.00    +0.126 C 
ATOM     12  N   UNL     1      -4.206  -3.212  -1.632  0.00  0.00    -0.250 NA
ATOM     13  C   UNL     1      -3.939  -2.102  -1.028  0.00  0.00    +0.034 C 
ATOM     14  C   UNL     1      -4.544  -0.751  -1.309  0.00  0.00    +0.062 C 
ATOM     15  C   UNL     1      -1.740  -4.806   0.624  0.00  0.00    +0.042 C 
BRANCH   9  16
ATOM     16  C   UNL     1      -1.620  -1.667  -0.242  0.00  0.00    +0.320 C 
ATOM     17  O   UNL     1      -0.604  -2.265  -0.505  0.00  0.00    -0.250 OA
BRANCH  16  18
ATOM     18  O   UNL     1      -1.614  -0.326  -0.186  0.00  0.00    -0.464 OA
BRANCH  18  20
ATOM     19  C   UNL     1      -0.559   1.843  -0.338  0.00  0.00    +0.048 C 
ATOM     20  C   UNL     1      -0.371   0.329  -0.448  0.00  0.00    +0.229 C 
ENDBRANCH  18  20
ENDBRANCH  16  18
ENDBRANCH   9  16
ENDBRANCH   1  11
BRANCH   7  21
ATOM     21  C   UNL     1      -4.612  -8.797  -5.161  0.00  0.00    +0.218 C 
ATOM     22  O   UNL     1      -5.370  -8.902  -6.103  0.00  0.00    -0.275 OA
ATOM     23  N   UNL     1      -4.131  -9.902  -4.558  0.00  0.00    -0.315 N 
ATOM     24  H   UNL     1      -3.525  -9.819  -3.805  0.00  0.00    +0.149 HD
BRANCH  23  25
ATOM     25  C   UNL     1      -4.523 -11.229  -5.039  0.00  0.00    +0.108 C 
BRANCH  25  26
ATOM     26  C   UNL     1      -3.842 -12.302  -4.187  0.00  0.00    +0.052 C 
BRANCH  26  27
ATOM     27  C   UNL     1      -4.245 -13.668  -4.683  0.00  0.00    -0.040 C 
ATOM     28  C   UNL     1      -3.567 -14.449  -5.554  0.00  0.00    -0.001 A 
ATOM     29  C   UNL     1      -2.301 -14.269  -6.274  0.00  0.00    +0.010 A 
ATOM     30  C   UNL     1      -1.870 -15.251  -7.098  0.00  0.00    +0.001 A 
ATOM     31  C   UNL     1      -2.600 -16.434  -7.280  0.00  0.00    +0.002 A 
ATOM     32  C   UNL     1      -3.771 -16.672  -6.653  0.00  0.00    +0.026 A 
ATOM     33  C   UNL     1      -4.319 -15.707  -5.763  0.00  0.00    +0.043 A 
ATOM     34  N   UNL     1      -5.418 -15.703  -5.050  0.00  0.00    -0.380 N 
ATOM     35  C   UNL     1      -5.485 -14.443  -4.301  0.00  0.00    +0.144 C 
ATOM     36  H   UNL     1      -6.076 -16.416  -5.018  0.00  0.00    +0.160 HD
ENDBRANCH  26  27
ENDBRANCH  25  26
ENDBRANCH  23  25
ENDBRANCH   7  21
TORSDOF 8
