REMARK  Name = ZINC63865934
REMARK  9 active torsions:
REMARK  status: ('A' for Active; 'I' for Inactive)
REMARK    1  A    between atoms: C_1  and  C_2
REMARK    2  A    between atoms: C_5  and  C_8
REMARK    3  A    between atoms: N_13  and  C_14
REMARK    4  A    between atoms: C_14  and  C_15
REMARK    5  A    between atoms: N_17  and  C_18
REMARK    6  A    between atoms: C_18  and  C_19
REMARK    7  A    between atoms: N_23  and  C_25
REMARK    8  A    between atoms: C_25  and  C_26
REMARK    9  A    between atoms: C_25  and  C_27
REMARK                            x       y       z     vdW  Elec       q    Type
REMARK                         _______ _______ _______ _____ _____    ______ ____
ROOT
ATOM      1  C   UNL     1      -0.214  -4.656   3.308  0.00  0.00    +0.233 C 
ATOM      2  O   UNL     1      -1.326  -4.969   2.936  0.00  0.00    -0.274 OA
ATOM      3  N   UNL     1      -0.007  -4.308   4.593  0.00  0.00    -0.314 N 
ATOM      4  H   UNL     1       0.882  -4.058   4.891  0.00  0.00    +0.149 HD
ENDROOT
BRANCH   1   5
ATOM      5  C   UNL     1       0.935  -4.658   2.333  0.00  0.00    +0.221 C 
BRANCH   5  11
ATOM      6  C   UNL     1       0.006  -4.253  -0.001  0.00  0.00    +0.165 A 
ATOM      7  N   UNL     1      -0.323  -5.032  -1.006  0.00  0.00    -0.128 NA
ATOM      8  N   UNL     1      -0.118  -6.261  -0.694  0.00  0.00    -0.121 NA
ATOM      9  C   UNL     1       0.353  -6.344   0.531  0.00  0.00    +0.203 A 
ATOM     10  S   UNL     1       0.783  -7.822   1.388  0.00  0.00    -0.009 SA
ATOM     11  N   UNL     1       0.454  -5.069   1.012  0.00  0.00    -0.293 N 
BRANCH   6  16
ATOM     12  C   UNL     1      -0.341   1.489   0.132  0.00  0.00    +0.044 C 
ATOM     13  C   UNL     1      -0.250  -0.015   0.097  0.00  0.00    -0.050 A 
ATOM     14  C   UNL     1      -0.231  -0.676  -1.118  0.00  0.00    +0.004 A 
ATOM     15  C   UNL     1      -0.147  -2.052  -1.157  0.00  0.00    +0.012 A 
ATOM     16  C   UNL     1      -0.083  -2.778   0.033  0.00  0.00    +0.019 A 
ATOM     17  C   UNL     1      -0.103  -2.105   1.256  0.00  0.00    +0.012 A 
ATOM     18  C   UNL     1      -0.180  -0.728   1.280  0.00  0.00    +0.004 A 
ENDBRANCH   6  16
ENDBRANCH   5  11
ENDBRANCH   1   5
BRANCH   3  19
ATOM     19  C   UNL     1      -1.124  -4.307   5.542  0.00  0.00    +0.106 C 
BRANCH  19  20
ATOM     20  C   UNL     1      -0.621  -3.877   6.921  0.00  0.00    -0.011 C 
ATOM     21  C   UNL     1      -0.146  -2.422   6.862  0.00  0.00    +0.001 C 
ATOM     22  C   UNL     1       0.281  -1.977   8.263  0.00  0.00    -0.018 C 
ATOM     23  C   UNL     1      -0.889  -2.165   9.231  0.00  0.00    -0.078 C 
ATOM     24  N   UNL     1      -1.280  -3.580   9.263  0.00  0.00    +0.381 N 
ATOM     25  C   UNL     1      -1.758  -3.994   7.939  0.00  0.00    -0.074 C 
ATOM     26  H   UNL     1      -0.483  -4.142   9.522  0.00  0.00    -0.081 HD
BRANCH  24  27
ATOM     27  C   UNL     1      -2.351  -3.768  10.250  0.00  0.00    -0.075 C 
ATOM     28  C   UNL     1      -2.759  -5.242  10.284  0.00  0.00    -0.014 C 
ATOM     29  C   UNL     1      -1.850  -3.346  11.633  0.00  0.00    -0.014 C 
ENDBRANCH  24  27
ENDBRANCH  19  20
ENDBRANCH   3  19
TORSDOF 6
