REMARK  Name = ZINC36599000
REMARK  15 active torsions:
REMARK  status: ('A' for Active; 'I' for Inactive)
REMARK    1  A    between atoms: C_1  and  C_2
REMARK    2  A    between atoms: C_5  and  C_7
REMARK    3  A    between atoms: C_7  and  N_8
REMARK    4  A    between atoms: N_8  and  C_9
REMARK    5  A    between atoms: C_9  and  C_11
REMARK    6  A    between atoms: C_9  and  C_18
REMARK    7  A    between atoms: C_14  and  O_17
REMARK    8  A    between atoms: N_20  and  C_21
REMARK    9  A    between atoms: C_21  and  C_22
REMARK   10  A    between atoms: C_21  and  C_23
REMARK   11  A    between atoms: C_21  and  C_24
REMARK   12  A    between atoms: C_25  and  C_27
REMARK   13  A    between atoms: C_27  and  C_28
REMARK   14  A    between atoms: C_27  and  C_34
REMARK   15  A    between atoms: C_27  and  O_40
REMARK                            x       y       z     vdW  Elec       q    Type
REMARK                         _______ _______ _______ _____ _____    ______ ____
ROOT
ATOM      1  N   UNL     1       1.707  -4.345  -0.288  0.00  0.00    -0.276 N 
ATOM      2  C   UNL     1       1.455  -4.652  -1.576  0.00  0.00    +0.258 C 
ATOM      3  O   UNL     1       2.373  -4.791  -2.357  0.00  0.00    -0.272 OA
ENDROOT
BRANCH   1   4
ATOM      4  C   UNL     1       0.621  -4.360   0.694  0.00  0.00    +0.183 C 
BRANCH   4   9
ATOM      5  C   UNL     1      -0.207  -9.293   1.344  0.00  0.00    +0.086 C 
ATOM      6  C   UNL     1       0.186  -7.865   1.622  0.00  0.00    +0.102 A 
ATOM      7  C   UNL     1       0.666  -7.393   2.787  0.00  0.00    +0.045 A 
ATOM      8  C   UNL     1       0.898  -6.011   2.605  0.00  0.00    +0.046 A 
ATOM      9  C   UNL     1       0.546  -5.720   1.340  0.00  0.00    +0.122 A 
ATOM     10  O   UNL     1       0.120  -6.848   0.748  0.00  0.00    -0.463 OA
ENDBRANCH   4   9
ENDBRANCH   1   4
BRANCH   1  11
ATOM     11  C   UNL     1       3.068  -3.997   0.129  0.00  0.00    +0.193 C 
BRANCH  11  12
ATOM     12  C   UNL     1       3.575  -2.855  -0.714  0.00  0.00    -0.018 A 
ATOM     13  C   UNL     1       2.796  -1.725  -0.885  0.00  0.00    +0.009 A 
ATOM     14  C   UNL     1       3.258  -0.677  -1.658  0.00  0.00    +0.046 A 
ATOM     15  C   UNL     1       4.505  -0.759  -2.262  0.00  0.00    +0.117 A 
ATOM     16  C   UNL     1       5.284  -1.894  -2.088  0.00  0.00    +0.046 A 
ATOM     17  C   UNL     1       4.819  -2.937  -1.310  0.00  0.00    +0.009 A 
BRANCH  15  18
ATOM     18  O   UNL     1       4.961   0.270  -3.023  0.00  0.00    -0.507 OA
ATOM     19  H   UNL     1       5.464   0.932  -2.528  0.00  0.00    +0.292 HD
ENDBRANCH  15  18
ENDBRANCH  11  12
BRANCH  11  20
ATOM     20  C   UNL     1       3.058  -3.585   1.579  0.00  0.00    +0.238 C 
ATOM     21  O   UNL     1       2.211  -4.022   2.328  0.00  0.00    -0.273 OA
ATOM     22  N   UNL     1       3.993  -2.732   2.043  0.00  0.00    -0.309 N 
ATOM     23  H   UNL     1       4.638  -2.341   1.433  0.00  0.00    +0.149 HD
BRANCH  22  24
ATOM     24  C   UNL     1       4.033  -2.394   3.468  0.00  0.00    +0.026 C 
ATOM     25  C   UNL     1       4.066  -3.680   4.296  0.00  0.00    +0.031 C 
ATOM     26  C   UNL     1       5.285  -1.566   3.761  0.00  0.00    +0.031 C 
ATOM     27  C   UNL     1       2.788  -1.583   3.835  0.00  0.00    +0.031 C 
ENDBRANCH  22  24
ENDBRANCH  11  20
ENDBRANCH   1  11
BRANCH   2  28
ATOM     28  C   UNL     1       0.034  -4.824  -2.046  0.00  0.00    +0.192 C 
BRANCH  28  29
ATOM     29  C   UNL     1      -0.654  -3.484  -2.066  0.00  0.00    -0.003 A 
ATOM     30  C   UNL     1      -0.031  -2.396  -2.647  0.00  0.00    +0.007 A 
ATOM     31  C   UNL     1      -0.662  -1.166  -2.666  0.00  0.00    +0.000 A 
ATOM     32  C   UNL     1      -1.917  -1.024  -2.103  0.00  0.00    +0.000 A 
ATOM     33  C   UNL     1      -2.540  -2.113  -1.522  0.00  0.00    +0.000 A 
ATOM     34  C   UNL     1      -1.911  -3.343  -1.507  0.00  0.00    +0.007 A 
ENDBRANCH  28  29
BRANCH  28  35
ATOM     35  C   UNL     1       0.030  -5.411  -3.434  0.00  0.00    -0.003 A 
ATOM     36  C   UNL     1       0.930  -4.956  -4.379  0.00  0.00    +0.007 A 
ATOM     37  C   UNL     1       0.928  -5.494  -5.652  0.00  0.00    +0.000 A 
ATOM     38  C   UNL     1       0.025  -6.489  -5.980  0.00  0.00    +0.000 A 
ATOM     39  C   UNL     1      -0.874  -6.945  -5.034  0.00  0.00    +0.000 A 
ATOM     40  C   UNL     1      -0.869  -6.409  -3.760  0.00  0.00    +0.007 A 
ENDBRANCH  28  35
BRANCH  28  41
ATOM     41  O   UNL     1      -0.659  -5.702  -1.156  0.00  0.00    -0.371 OA
ATOM     42  H   UNL     1      -0.270  -6.585  -1.093  0.00  0.00    +0.212 HD
ENDBRANCH  28  41
ENDBRANCH   2  28
TORSDOF 11
