REMARK  Name = ZINC23264116
REMARK  6 active torsions:
REMARK  status: ('A' for Active; 'I' for Inactive)
REMARK    1  A    between atoms: C_1  and  C_2
REMARK    2  A    between atoms: C_2  and  C_4
REMARK    3  A    between atoms: C_2  and  O_18
REMARK    4  A    between atoms: C_9  and  C_12
REMARK    5  A    between atoms: O_18  and  C_19
REMARK    6  A    between atoms: C_19  and  C_21
REMARK                            x       y       z     vdW  Elec       q    Type
REMARK                         _______ _______ _______ _____ _____    ______ ____
ROOT
ATOM      1  C   UNL     1       5.361   4.426  -1.470  0.00  0.00    +0.062 C 
ATOM      2  C   UNL     1       4.925   4.181  -0.025  0.00  0.00    +0.259 C 
ENDROOT
BRANCH   2   3
ATOM      3  C   UNL     1       4.804   5.500   0.694  0.00  0.00    +0.259 C 
ATOM      4  O   UNL     1       3.740   5.838   1.167  0.00  0.00    -0.271 OA
ATOM      5  N   UNL     1       5.879   6.304   0.810  0.00  0.00    -0.262 N 
ATOM      6  C   UNL     1       5.768   7.521   1.473  0.00  0.00    +0.165 A 
ATOM      7  N   UNL     1       6.690   8.440   1.691  0.00  0.00    -0.225 NA
ATOM      8  C   UNL     1       6.408   9.554   2.349  0.00  0.00    +0.080 A 
ATOM      9  C   UNL     1       5.137   9.757   2.811  0.00  0.00    +0.076 A 
ATOM     10  S   UNL     1       4.338   8.260   2.248  0.00  0.00    -0.060 S 
ATOM     11  H   UNL     1       6.845   5.998   0.381  0.00  0.00    +0.157 HD
BRANCH   8  12
ATOM     12  C   UNL     1       7.461  10.572   2.583  0.00  0.00    +0.001 A 
ATOM     13  C   UNL     1       7.158  11.746   3.271  0.00  0.00    +0.010 A 
ATOM     14  C   UNL     1       8.143  12.688   3.491  0.00  0.00    +0.001 A 
ATOM     15  C   UNL     1       9.426  12.473   3.019  0.00  0.00    +0.000 A 
ATOM     16  C   UNL     1       9.731  11.313   2.331  0.00  0.00    +0.001 A 
ATOM     17  C   UNL     1       8.755  10.362   2.111  0.00  0.00    +0.010 A 
ENDBRANCH   8  12
ENDBRANCH   2   3
BRANCH   2  18
ATOM     18  O   UNL     1       3.639   3.506  -0.015  0.00  0.00    -0.449 OA
BRANCH  18  19
ATOM     19  C   UNL     1       3.656   2.158  -0.022  0.00  0.00    +0.340 C 
ATOM     20  O   UNL     1       4.715   1.564  -0.036  0.00  0.00    -0.245 OA
BRANCH  19  21
ATOM     21  C   UNL     1       2.388   1.405  -0.013  0.00  0.00    +0.063 A 
ATOM     22  C   UNL     1       1.169   2.087   0.002  0.00  0.00    +0.019 A 
ATOM     23  C   UNL     1      -0.017   1.384   0.010  0.00  0.00    +0.050 A 
ATOM     24  C   UNL     1       0.002  -0.004   0.002  0.00  0.00    +0.162 A 
ATOM     25  C   UNL     1       1.212  -0.689  -0.013  0.00  0.00    +0.163 A 
ATOM     26  C   UNL     1       2.404   0.006  -0.021  0.00  0.00    +0.064 A 
ATOM     27  O   UNL     1       1.213  -2.054  -0.020  0.00  0.00    -0.488 OA
ATOM     28  C   UNL     1       0.749  -2.686   1.174  0.00  0.00    +0.232 C 
ATOM     29  C   UNL     1      -0.768  -2.799   1.170  0.00  0.00    +0.082 C 
ATOM     30  C   UNL     1      -1.449  -1.440   1.201  0.00  0.00    +0.232 C 
ATOM     31  O   UNL     1      -1.167  -0.705   0.009  0.00  0.00    -0.488 OA
ENDBRANCH  19  21
ENDBRANCH  18  19
ENDBRANCH   2  18
TORSDOF 5
