REMARK  Name = ZINC39663229
REMARK  8 active torsions:
REMARK  status: ('A' for Active; 'I' for Inactive)
REMARK    1  A    between atoms: C_1  and  C_2
REMARK    2  A    between atoms: C_4  and  C_11
REMARK    3  A    between atoms: N_5  and  C_7
REMARK    4  A    between atoms: C_7  and  C_8
REMARK    5  A    between atoms: C_7  and  C_9
REMARK    6  A    between atoms: C_7  and  C_10
REMARK    7  A    between atoms: C_15  and  C_24
REMARK    8  A    between atoms: N_26  and  C_27
REMARK                            x       y       z     vdW  Elec       q    Type
REMARK                         _______ _______ _______ _____ _____    ______ ____
ROOT
ATOM      1  C   UNL     1      -0.544  -4.125  -1.065  0.00  0.00    +0.265 C 
ATOM      2  O   UNL     1      -0.845  -4.055  -2.242  0.00  0.00    -0.268 OA
ATOM      3  N   UNL     1      -0.636  -5.301  -0.415  0.00  0.00    -0.295 N 
ATOM      4  C   UNL     1      -0.444  -5.556   1.033  0.00  0.00    +0.121 C 
ATOM      5  C   UNL     1      -1.532  -6.593   1.393  0.00  0.00    +0.100 C 
ATOM      6  C   UNL     1      -1.859  -7.297   0.066  0.00  0.00    -0.004 C 
ATOM      7  C   UNL     1      -0.957  -6.632  -0.984  0.00  0.00    +0.115 C 
ATOM      8  C   UNL     1      -3.325  -7.086  -0.297  0.00  0.00    -0.010 C 
ATOM      9  C   UNL     1      -3.640  -7.843  -1.591  0.00  0.00    -0.082 C 
ATOM     10  N   UNL     1      -3.362  -9.272  -1.403  0.00  0.00    +0.379 N 
ATOM     11  C   UNL     1      -1.931  -9.475  -1.146  0.00  0.00    -0.082 C 
ATOM     12  C   UNL     1      -1.544  -8.786   0.166  0.00  0.00    -0.010 C 
ATOM     13  H   UNL     1      -3.896  -9.617  -0.620  0.00  0.00    -0.086 HD
ATOM     14  H   UNL     1      -3.627  -9.777  -2.236  0.00  0.00    -0.086 HD
ENDROOT
BRANCH   1  18
ATOM     15  C   UNL     1       1.323  -0.935   2.408  0.00  0.00    +0.067 C 
ATOM     16  C   UNL     1       0.733  -1.520   1.150  0.00  0.00    +0.061 A 
ATOM     17  C   UNL     1       0.442  -2.868   0.928  0.00  0.00    +0.057 A 
ATOM     18  C   UNL     1      -0.079  -2.924  -0.353  0.00  0.00    +0.124 A 
ATOM     19  N   UNL     1      -0.075  -1.641  -0.823  0.00  0.00    -0.254 N 
ATOM     20  N   UNL     1       0.397  -0.854   0.075  0.00  0.00    -0.175 NA
BRANCH  19  21
ATOM     21  C   UNL     1      -0.544  -1.226  -2.148  0.00  0.00    +0.056 C 
ATOM     22  C   UNL     1      -1.984  -1.701  -2.351  0.00  0.00    +0.036 C 
ATOM     23  C   UNL     1      -0.490   0.299  -2.253  0.00  0.00    +0.036 C 
ATOM     24  C   UNL     1       0.354  -1.844  -3.222  0.00  0.00    +0.036 C 
ENDBRANCH  19  21
ENDBRANCH   1  18
BRANCH   5  25
ATOM     25  C   UNL     1      -1.001  -7.582   2.398  0.00  0.00    +0.218 C 
ATOM     26  O   UNL     1       0.189  -7.810   2.454  0.00  0.00    -0.275 OA
ATOM     27  N   UNL     1      -1.848  -8.214   3.235  0.00  0.00    -0.314 N 
ATOM     28  H   UNL     1      -2.805  -8.089   3.141  0.00  0.00    +0.149 HD
BRANCH  27  29
ATOM     29  C   UNL     1      -1.323  -9.089   4.286  0.00  0.00    +0.059 C 
ATOM     30  C   UNL     1      -1.086 -10.489   3.716  0.00  0.00    -0.056 C 
ATOM     31  N   UNL     1      -1.900 -11.469   4.439  0.00  0.00    +0.381 N 
ATOM     32  C   UNL     1      -3.325 -11.169   4.286  0.00  0.00    -0.078 C 
ATOM     33  C   UNL     1      -3.637  -9.792   4.875  0.00  0.00    -0.014 C 
ATOM     34  C   UNL     1      -2.340  -9.183   5.431  0.00  0.00    +0.004 C 
ATOM     35  C   UNL     1      -1.780 -10.134   6.498  0.00  0.00    -0.014 C 
ATOM     36  C   UNL     1      -1.529 -11.503   5.856  0.00  0.00    -0.078 C 
ATOM     37  H   UNL     1      -1.728 -12.381   4.043  0.00  0.00    -0.082 HD
ENDBRANCH  27  29
ENDBRANCH   5  25
TORSDOF 4
