REMARK  Name = ZINC09691832
REMARK  9 active torsions:
REMARK  status: ('A' for Active; 'I' for Inactive)
REMARK    1  A    between atoms: C_1  and  C_2
REMARK    2  A    between atoms: C_2  and  C_3
REMARK    3  A    between atoms: C_2  and  N_4
REMARK    4  A    between atoms: C_13  and  C_15
REMARK    5  A    between atoms: C_15  and  O_17
REMARK    6  A    between atoms: O_17  and  C_18
REMARK    7  A    between atoms: C_18  and  C_19
REMARK    8  A    between atoms: C_22  and  C_24
REMARK    9  A    between atoms: N_28  and  C_29
REMARK                            x       y       z     vdW  Elec       q    Type
REMARK                         _______ _______ _______ _____ _____    ______ ____
ROOT
ATOM      1  C   UNL     1      -7.384   5.242  -0.443  0.00  0.00    +0.360 C 
ATOM      2  O   UNL     1      -7.864   4.127  -0.453  0.00  0.00    -0.243 OA
ENDROOT
BRANCH   1  12
ATOM      3  N   UNL     1      -8.443   8.706  -0.600  0.00  0.00    -0.226 N 
ATOM      4  C   UNL     1      -9.788   8.721  -0.699  0.00  0.00    +0.275 A 
ATOM      5  O   UNL     1     -10.396   9.774  -0.767  0.00  0.00    -0.266 OA
ATOM      6  C   UNL     1     -10.502   7.437  -0.722  0.00  0.00    +0.050 A 
ATOM      7  C   UNL     1     -11.887   7.345  -0.822  0.00  0.00    +0.014 A 
ATOM      8  C   UNL     1     -12.482   6.101  -0.837  0.00  0.00    +0.001 A 
ATOM      9  C   UNL     1     -11.714   4.946  -0.755  0.00  0.00    +0.001 A 
ATOM     10  C   UNL     1     -10.341   5.017  -0.655  0.00  0.00    +0.011 A 
ATOM     11  C   UNL     1      -9.721   6.261  -0.644  0.00  0.00    +0.021 A 
ATOM     12  C   UNL     1      -8.262   6.424  -0.534  0.00  0.00    +0.176 A 
ATOM     13  N   UNL     1      -7.752   7.632  -0.524  0.00  0.00    -0.161 NA
BRANCH   3  15
ATOM     14  C   UNL     1      -6.951  10.116   0.731  0.00  0.00    +0.032 C 
ATOM     15  C   UNL     1      -7.735   9.989  -0.577  0.00  0.00    +0.105 C 
ATOM     16  C   UNL     1      -6.768  10.059  -1.760  0.00  0.00    +0.032 C 
ENDBRANCH   3  15
ENDBRANCH   1  12
BRANCH   1  17
ATOM     17  O   UNL     1      -6.049   5.401  -0.348  0.00  0.00    -0.451 OA
BRANCH  17  18
ATOM     18  C   UNL     1      -5.247   4.193  -0.262  0.00  0.00    +0.328 C 
BRANCH  18  19
ATOM     19  C   UNL     1      -3.789   4.565  -0.164  0.00  0.00    +0.257 C 
ATOM     20  O   UNL     1      -3.459   5.731  -0.166  0.00  0.00    -0.272 OA
ATOM     21  N   UNL     1      -2.853   3.600  -0.073  0.00  0.00    -0.248 N 
ATOM     22  C   UNL     1      -1.549   3.932   0.015  0.00  0.00    +0.267 C 
ATOM     23  O   UNL     1      -1.224   5.101   0.108  0.00  0.00    -0.268 OA
ATOM     24  H   UNL     1      -3.116   2.666  -0.071  0.00  0.00    +0.158 HD
BRANCH  22  25
ATOM     25  C   UNL     1      -0.524   2.885  -0.000  0.00  0.00    +0.105 A 
ATOM     26  C   UNL     1      -0.748   1.524  -0.003  0.00  0.00    +0.032 A 
ATOM     27  C   UNL     1       0.506   0.904  -0.020  0.00  0.00    +0.020 A 
ATOM     28  C   UNL     1       1.449   1.877  -0.027  0.00  0.00    +0.086 A 
ATOM     29  N   UNL     1       0.839   3.080  -0.011  0.00  0.00    -0.346 N 
ATOM     30  C   UNL     1       1.515   4.380  -0.007  0.00  0.00    +0.149 C 
ENDBRANCH  22  25
ENDBRANCH  18  19
ENDBRANCH  17  18
ENDBRANCH   1  17
TORSDOF 6
