REMARK  Name = ZINC34822921
REMARK  7 active torsions:
REMARK  status: ('A' for Active; 'I' for Inactive)
REMARK    1  A    between atoms: C_1  and  C_2
REMARK    2  A    between atoms: C_3  and  C_18
REMARK    3  A    between atoms: C_4  and  N_8
REMARK    4  A    between atoms: N_5  and  C_7
REMARK    5  A    between atoms: C_12  and  C_15
REMARK    6  A    between atoms: C_18  and  N_19
REMARK    7  A    between atoms: N_19  and  C_20
REMARK                            x       y       z     vdW  Elec       q    Type
REMARK                         _______ _______ _______ _____ _____    ______ ____
ROOT
ATOM      1  C   UNL     1      -0.018   1.503  -0.000  0.00  0.00    +0.068 C 
ATOM      2  C   UNL     1       0.002  -0.004  -0.003  0.00  0.00    +0.063 A 
ATOM      3  C   UNL     1       0.019  -0.820  -1.137  0.00  0.00    -0.002 A 
ATOM      4  C   UNL     1       0.034  -2.116  -0.718  0.00  0.00    +0.121 A 
ATOM      5  N   UNL     1       0.026  -2.107   0.635  0.00  0.00    -0.253 N 
ATOM      6  N   UNL     1       0.012  -0.772   1.057  0.00  0.00    -0.175 NA
ATOM      7  C   UNL     1       0.037  -3.286   1.504  0.00  0.00    +0.174 C 
ENDROOT
BRANCH   4   8
ATOM      8  N   UNL     1       0.052  -3.244  -1.533  0.00  0.00    -0.315 N 
ATOM      9  C   UNL     1       1.322  -3.898  -1.878  0.00  0.00    +0.106 C 
ATOM     10  C   UNL     1       1.225  -5.384  -1.517  0.00  0.00    +0.020 C 
ATOM     11  C   UNL     1      -0.001  -5.992  -2.202  0.00  0.00    +0.016 C 
ATOM     12  C   UNL     1      -1.266  -5.290  -1.703  0.00  0.00    +0.092 C 
ATOM     13  C   UNL     1      -1.198  -3.807  -2.060  0.00  0.00    +0.119 C 
BRANCH  12  14
ATOM     14  C   UNL     1      -2.476  -5.912  -2.352  0.00  0.00    +0.215 C 
ATOM     15  O   UNL     1      -3.213  -5.234  -3.036  0.00  0.00    -0.276 OA
ATOM     16  N   UNL     1      -2.738  -7.222  -2.174  0.00  0.00    -0.329 N 
ATOM     17  H   UNL     1      -2.149  -7.764  -1.627  0.00  0.00    +0.145 HD
ATOM     18  H   UNL     1      -3.517  -7.622  -2.592  0.00  0.00    +0.145 HD
ENDBRANCH  12  14
ENDBRANCH   4   8
BRANCH   3  19
ATOM     19  C   UNL     1       0.020  -0.350  -2.569  0.00  0.00    -0.041 C 
BRANCH  19  20
ATOM     20  N   UNL     1       1.398  -0.065  -2.989  0.00  0.00    +0.384 N 
ATOM     21  H   UNL     1       1.788   0.655  -2.399  0.00  0.00    -0.085 HD
ATOM     22  H   UNL     1       1.955  -0.903  -2.910  0.00  0.00    -0.085 HD
BRANCH  20  23
ATOM     23  C   UNL     1       1.399   0.393  -4.385  0.00  0.00    -0.072 C 
ATOM     24  C   UNL     1       2.123  -0.478  -5.414  0.00  0.00    -0.017 C 
ATOM     25  C   UNL     1       2.733   0.855  -4.976  0.00  0.00    -0.017 C 
ENDBRANCH  20  23
ENDBRANCH  19  20
ENDBRANCH   3  19
TORSDOF 5
