REMARK  Name = ZINC39962558
REMARK  8 active torsions:
REMARK  status: ('A' for Active; 'I' for Inactive)
REMARK    1  A    between atoms: C_1  and  O_2
REMARK    2  A    between atoms: O_2  and  C_3
REMARK    3  A    between atoms: C_5  and  C_18
REMARK    4  A    between atoms: C_8  and  O_9
REMARK    5  A    between atoms: O_9  and  C_10
REMARK    6  A    between atoms: C_10  and  C_12
REMARK    7  A    between atoms: C_19  and  C_20
REMARK    8  A    between atoms: C_19  and  C_22
REMARK                            x       y       z     vdW  Elec       q    Type
REMARK                         _______ _______ _______ _____ _____    ______ ____
ROOT
ATOM      1  C   UNL     1       0.335  -0.961  -1.363  0.00  0.00    +0.164 A 
ATOM      2  C   UNL     1       1.041  -0.095  -2.176  0.00  0.00    +0.057 A 
ATOM      3  C   UNL     1       1.641  -0.572  -3.346  0.00  0.00    -0.019 A 
ATOM      4  C   UNL     1       1.524  -1.924  -3.687  0.00  0.00    +0.027 A 
ATOM      5  C   UNL     1       0.818  -2.782  -2.870  0.00  0.00    +0.064 A 
ATOM      6  C   UNL     1       0.227  -2.308  -1.706  0.00  0.00    +0.187 A 
ATOM      7 BR   UNL     1       0.660  -4.608  -3.333  0.00  0.00    -0.046 Br
ENDROOT
BRANCH   1   9
ATOM      8  C   UNL     1      -0.099   0.890   0.065  0.00  0.00    +0.277 C 
ATOM      9  O   UNL     1      -0.250  -0.501  -0.225  0.00  0.00    -0.491 OA
ENDBRANCH   1   9
BRANCH   3  10
ATOM     10  C   UNL     1       2.394   0.345  -4.215  0.00  0.00    +0.026 C 
ATOM     11  C   UNL     1       3.517  -0.079  -4.831  0.00  0.00    +0.072 C 
BRANCH  11  12
ATOM     12  C   UNL     1       4.197   0.802  -5.847  0.00  0.00    +0.216 C 
ATOM     13  N   UNL     1       4.313   0.096  -7.130  0.00  0.00    -0.359 N 
ATOM     14  C   UNL     1       5.580  -0.001  -7.409  0.00  0.00    +0.060 A 
ATOM     15  C   UNL     1       6.312  -0.593  -8.537  0.00  0.00    +0.027 A 
ATOM     16  C   UNL     1       7.659  -0.543  -8.556  0.00  0.00    +0.002 A 
ATOM     17  C   UNL     1       8.410   0.060  -7.531  0.00  0.00    +0.002 A 
ATOM     18  C   UNL     1       7.839   0.631  -6.452  0.00  0.00    +0.027 A 
ATOM     19  C   UNL     1       6.375   0.637  -6.324  0.00  0.00    +0.060 A 
ATOM     20  N   UNL     1       5.568   1.104  -5.416  0.00  0.00    -0.359 N 
ATOM     21  H   UNL     1       3.579  -0.237  -7.669  0.00  0.00    +0.162 HD
ATOM     22  H   UNL     1       5.825   1.567  -4.603  0.00  0.00    +0.162 HD
ENDBRANCH  11  12
BRANCH  11  23
ATOM     23  C   UNL     1       4.063  -1.365  -4.520  0.00  0.00    +0.099 C 
ATOM     24  N   UNL     1       4.496  -2.386  -4.273  0.00  0.00    -0.191 NA
ENDBRANCH  11  23
ENDBRANCH   3  10
BRANCH   6  25
ATOM     25  O   UNL     1      -0.464  -3.158  -0.902  0.00  0.00    -0.417 OA
BRANCH  25  26
ATOM     26  C   UNL     1      -1.782  -3.320  -1.135  0.00  0.00    +0.351 C 
ATOM     27  O   UNL     1      -2.319  -2.713  -2.042  0.00  0.00    -0.244 OA
BRANCH  26  28
ATOM     28  C   UNL     1      -2.568  -4.226  -0.295  0.00  0.00    +0.097 A 
ATOM     29  C   UNL     1      -3.919  -4.535  -0.368  0.00  0.00    +0.022 A 
ATOM     30  C   UNL     1      -4.377  -5.431   0.568  0.00  0.00    +0.008 A 
ATOM     31  C   UNL     1      -3.507  -5.939   1.475  0.00  0.00    +0.046 A 
ATOM     32  S   UNL     1      -2.038  -5.225   1.083  0.00  0.00    -0.090 S 
ENDBRANCH  26  28
ENDBRANCH  25  26
ENDBRANCH   6  25
TORSDOF 7
