REMARK  Name = ZINC32600482
REMARK  4 active torsions:
REMARK  status: ('A' for Active; 'I' for Inactive)
REMARK    1  A    between atoms: C_9  and  C_22
REMARK    2  A    between atoms: N_13  and  C_14
REMARK    3  A    between atoms: C_14  and  C_15
REMARK    4  A    between atoms: C_15  and  N_16
REMARK                            x       y       z     vdW  Elec       q    Type
REMARK                         _______ _______ _______ _____ _____    ______ ____
ROOT
ATOM      1  C   UNL     1      -5.844   4.518  -2.769  0.00  0.00    +0.002 A 
ATOM      2  C   UNL     1      -5.510   3.975  -1.541  0.00  0.00    +0.002 A 
ATOM      3  C   UNL     1      -4.186   3.765  -1.210  0.00  0.00    +0.025 A 
ATOM      4  C   UNL     1      -3.185   4.103  -2.110  0.00  0.00    +0.058 A 
ATOM      5  C   UNL     1      -3.522   4.651  -3.347  0.00  0.00    +0.058 A 
ATOM      6  C   UNL     1      -4.855   4.857  -3.672  0.00  0.00    +0.025 A 
ATOM      7  N   UNL     1      -2.332   4.887  -4.035  0.00  0.00    -0.270 N 
ATOM      8  C   UNL     1      -1.807   5.408  -5.309  0.00  0.00    +0.143 C 
ATOM      9  C   UNL     1      -0.282   5.263  -5.149  0.00  0.00    +0.130 C 
ATOM     10  N   UNL     1      -0.119   4.681  -3.812  0.00  0.00    -0.352 N 
ATOM     11  C   UNL     1      -1.284   4.503  -3.247  0.00  0.00    +0.168 C 
ATOM     12  N   UNL     1      -1.797   4.012  -2.060  0.00  0.00    -0.272 N 
ATOM     13  H   UNL     1       0.801   4.401  -3.277  0.00  0.00    +0.163 HD
ENDROOT
BRANCH   9  14
ATOM     14  C   UNL     1       0.388   6.611  -5.227  0.00  0.00    -0.024 A 
ATOM     15  C   UNL     1       0.394   7.444  -4.124  0.00  0.00    +0.007 A 
ATOM     16  C   UNL     1       1.013   8.678  -4.193  0.00  0.00    +0.020 A 
ATOM     17  C   UNL     1       1.617   9.084  -5.370  0.00  0.00    +0.041 A 
ATOM     18  C   UNL     1       1.606   8.251  -6.475  0.00  0.00    +0.020 A 
ATOM     19  C   UNL     1       0.991   7.015  -6.403  0.00  0.00    +0.007 A 
ATOM     20 CL   UNL     1       2.389  10.636  -5.459  0.00  0.00    -0.084 Cl
ENDBRANCH   9  14
BRANCH  12  21
ATOM     21  C   UNL     1      -1.012   3.492  -0.938  0.00  0.00    +0.129 C 
BRANCH  21  22
ATOM     22  C   UNL     1      -0.804   1.986  -1.115  0.00  0.00    +0.103 C 
BRANCH  22  23
ATOM     23  N   UNL     1      -0.018   1.464   0.010  0.00  0.00    -0.301 NA
ATOM     24  C   UNL     1       1.344   2.014   0.000  0.00  0.00    +0.084 C 
ATOM     25  C   UNL     1       2.086   1.565   1.261  0.00  0.00    +0.015 C 
ATOM     26  C   UNL     1       2.133   0.035   1.302  0.00  0.00    +0.002 C 
ATOM     27  C   UNL     1       0.704  -0.513   1.263  0.00  0.00    +0.015 C 
ATOM     28  C   UNL     1       0.002  -0.004   0.002  0.00  0.00    +0.084 C 
ENDBRANCH  22  23
ENDBRANCH  21  22
ENDBRANCH  12  21
TORSDOF 4
