REMARK  Name = ZINC12616564
REMARK  13 active torsions:
REMARK  status: ('A' for Active; 'I' for Inactive)
REMARK    1  A    between atoms: C_1  and  C_2
REMARK    2  A    between atoms: C_2  and  C_3
REMARK    3  A    between atoms: C_9  and  S_16
REMARK    4  A    between atoms: N_10  and  C_13
REMARK    5  A    between atoms: C_13  and  C_14
REMARK    6  A    between atoms: S_16  and  C_17
REMARK    7  A    between atoms: C_17  and  C_18
REMARK    8  A    between atoms: N_20  and  C_21
REMARK    9  A    between atoms: C_24  and  C_33
REMARK   10  A    between atoms: C_25  and  S_27
REMARK   11  A    between atoms: S_27  and  N_30
REMARK   12  A    between atoms: N_30  and  C_31
REMARK   13  A    between atoms: N_30  and  C_32
REMARK                            x       y       z     vdW  Elec       q    Type
REMARK                         _______ _______ _______ _____ _____    ______ ____
ROOT
ATOM      1  C   UNL     1      -4.868   3.625   0.843  0.00  0.00    +0.173 C 
ENDROOT
BRANCH   1   2
ATOM      2  C   UNL     1      -3.506   3.042   0.566  0.00  0.00    +0.227 C 
ATOM      3  O   UNL     1      -3.369   1.841   0.471  0.00  0.00    -0.275 OA
ATOM      4  N   UNL     1      -2.441   3.856   0.425  0.00  0.00    -0.285 N 
ATOM      5  H   UNL     1      -2.562   4.818   0.432  0.00  0.00    +0.155 HD
BRANCH   4   6
ATOM      6  C   UNL     1      -1.161   3.312   0.267  0.00  0.00    +0.035 A 
ATOM      7  C   UNL     1      -0.990   2.133  -0.447  0.00  0.00    +0.023 A 
ATOM      8  C   UNL     1       0.274   1.596  -0.596  0.00  0.00    +0.007 A 
ATOM      9  C   UNL     1       1.369   2.236  -0.044  0.00  0.00    -0.024 A 
ATOM     10  C   UNL     1       1.202   3.413   0.662  0.00  0.00    +0.110 A 
ATOM     11  C   UNL     1      -0.060   3.953   0.819  0.00  0.00    +0.052 A 
ATOM     12  C   UNL     1       2.747   1.650  -0.213  0.00  0.00    +0.046 C 
BRANCH  10  13
ATOM     13  S   UNL     1       2.599   4.225   1.362  0.00  0.00    +0.061 S 
ATOM     14  O   UNL     1       2.895   3.550   2.577  0.00  0.00    -0.153 OA
ATOM     15  O   UNL     1       3.553   4.366   0.318  0.00  0.00    -0.153 OA
BRANCH  13  16
ATOM     16  N   UNL     1       2.120   5.755   1.776  0.00  0.00    -0.183 NA
ATOM     17  C   UNL     1       1.676   6.040   3.143  0.00  0.00    +0.131 C 
ATOM     18  C   UNL     1       2.141   6.825   0.775  0.00  0.00    +0.131 C 
ENDBRANCH  13  16
ENDBRANCH  10  13
ENDBRANCH   4   6
ENDBRANCH   1   2
BRANCH   1  19
ATOM     19  S   UNL     1      -6.080   2.288   0.980  0.00  0.00    -0.078 S 
BRANCH  19  26
ATOM     20  C   UNL     1     -10.611   6.953   2.062  0.00  0.00    -0.008 A 
ATOM     21  C   UNL     1     -10.887   5.641   2.034  0.00  0.00    +0.026 A 
ATOM     22  C   UNL     1      -9.812   4.695   1.786  0.00  0.00    +0.072 A 
ATOM     23  C   UNL     1      -8.544   5.275   1.594  0.00  0.00    +0.116 A 
ATOM     24  S   UNL     1      -8.856   7.014   1.753  0.00  0.00    -0.073 S 
ATOM     25  N   UNL     1      -7.463   4.541   1.359  0.00  0.00    -0.216 NA
ATOM     26  C   UNL     1      -7.537   3.227   1.295  0.00  0.00    +0.173 A 
ATOM     27  N   UNL     1      -8.729   2.584   1.464  0.00  0.00    -0.283 N 
ATOM     28  C   UNL     1      -9.862   3.268   1.711  0.00  0.00    +0.263 A 
ATOM     29  O   UNL     1     -10.918   2.678   1.864  0.00  0.00    -0.267 OA
BRANCH  20  31
ATOM     30  C   UNL     1     -11.625   8.406   3.798  0.00  0.00    +0.009 C 
ATOM     31  C   UNL     1     -11.557   8.102   2.300  0.00  0.00    +0.039 C 
ENDBRANCH  20  31
BRANCH  27  32
ATOM     32  C   UNL     1      -8.776   1.123   1.379  0.00  0.00    +0.154 C 
BRANCH  32  33
ATOM     33  C   UNL     1      -8.546   0.533   2.747  0.00  0.00    -0.013 C 
ATOM     34  C   UNL     1      -9.418  -0.302   3.255  0.00  0.00    +0.005 C 
ENDBRANCH  32  33
ENDBRANCH  27  32
ENDBRANCH  19  26
ENDBRANCH   1  19
TORSDOF 9
