REMARK  Name = ZINC14642616
REMARK  9 active torsions:
REMARK  status: ('A' for Active; 'I' for Inactive)
REMARK    1  A    between atoms: C_1  and  C_2
REMARK    2  A    between atoms: C_6  and  C_31
REMARK    3  A    between atoms: C_7  and  O_8
REMARK    4  A    between atoms: O_8  and  C_9
REMARK    5  A    between atoms: C_9  and  C_11
REMARK    6  A    between atoms: C_9  and  C_12
REMARK    7  A    between atoms: N_14  and  C_15
REMARK    8  A    between atoms: C_18  and  S_21
REMARK    9  A    between atoms: S_21  and  N_24
REMARK                            x       y       z     vdW  Elec       q    Type
REMARK                         _______ _______ _______ _____ _____    ______ ____
ROOT
ATOM      1  C   UNL     1       1.995  -4.288  -0.471  0.00  0.00    +0.258 C 
ATOM      2  O   UNL     1       1.538  -4.114   0.639  0.00  0.00    -0.271 OA
ATOM      3  N   UNL     1       1.375  -3.759  -1.544  0.00  0.00    -0.282 N 
ATOM      4  H   UNL     1       1.704  -3.950  -2.437  0.00  0.00    +0.155 HD
ENDROOT
BRANCH   3   5
ATOM      5  C   UNL     1       0.258  -2.935  -1.372  0.00  0.00    +0.034 A 
ATOM      6  C   UNL     1      -0.646  -3.193  -0.350  0.00  0.00    +0.025 A 
ATOM      7  C   UNL     1      -1.748  -2.377  -0.182  0.00  0.00    +0.030 A 
ATOM      8  C   UNL     1      -1.951  -1.305  -1.030  0.00  0.00    +0.106 A 
ATOM      9  C   UNL     1      -1.056  -1.048  -2.053  0.00  0.00    +0.030 A 
ATOM     10  C   UNL     1       0.050  -1.857  -2.223  0.00  0.00    +0.025 A 
BRANCH   8  11
ATOM     11  S   UNL     1      -3.358  -0.267  -0.813  0.00  0.00    +0.061 S 
ATOM     12  O   UNL     1      -4.334  -1.043  -0.131  0.00  0.00    -0.153 OA
ATOM     13  O   UNL     1      -3.612   0.342  -2.071  0.00  0.00    -0.153 OA
BRANCH  11  14
ATOM     14  N   UNL     1      -2.915   0.949   0.220  0.00  0.00    -0.177 NA
ATOM     15  C   UNL     1      -2.362   2.171  -0.288  0.00  0.00    +0.109 C 
ATOM     16  C   UNL     1      -0.824   2.196  -0.476  0.00  0.00    +0.017 C 
ATOM     17  C   UNL     1      -0.129   1.504   0.722  0.00  0.00    +0.001 C 
ATOM     18  C   UNL     1      -0.826   1.839   2.009  0.00  0.00    +0.001 C 
ATOM     19  C   UNL     1      -1.751   0.660   2.288  0.00  0.00    +0.017 C 
ATOM     20  C   UNL     1      -3.085   0.790   1.704  0.00  0.00    +0.109 C 
ENDBRANCH  11  14
ENDBRANCH   8  11
ENDBRANCH   3   5
BRANCH   1  21
ATOM     21  C   UNL     1       3.255  -5.095  -0.649  0.00  0.00    +0.256 C 
ATOM     22  C   UNL     1       2.965  -6.304  -1.541  0.00  0.00    +0.062 C 
BRANCH  21  23
ATOM     23  O   UNL     1       3.718  -5.544   0.626  0.00  0.00    -0.479 OA
BRANCH  23  30
ATOM     24  C   UNL     1       5.053  -7.994   0.187  0.00  0.00    +0.047 C 
ATOM     25  C   UNL     1       5.772  -6.743   0.621  0.00  0.00    -0.007 A 
ATOM     26  C   UNL     1       7.140  -6.764   0.814  0.00  0.00    +0.022 A 
ATOM     27  C   UNL     1       7.801  -5.618   1.218  0.00  0.00    +0.019 A 
ATOM     28  C   UNL     1       7.094  -4.446   1.423  0.00  0.00    +0.022 A 
ATOM     29  C   UNL     1       5.727  -4.419   1.225  0.00  0.00    -0.007 A 
ATOM     30  C   UNL     1       5.063  -5.568   0.821  0.00  0.00    +0.127 A 
ATOM     31  C   UNL     1       4.958  -3.143   1.450  0.00  0.00    +0.047 C 
ATOM     32 BR   UNL     1       9.672  -5.652   1.488  0.00  0.00    -0.050 Br
ENDBRANCH  23  30
ENDBRANCH  21  23
ENDBRANCH   1  21
TORSDOF 6
