REMARK  Name = ZINC34793489
REMARK  9 active torsions:
REMARK  status: ('A' for Active; 'I' for Inactive)
REMARK    1  A    between atoms: C_1  and  C_2
REMARK    2  A    between atoms: C_2  and  N_3
REMARK    3  A    between atoms: C_6  and  C_11
REMARK    4  A    between atoms: N_21  and  C_23
REMARK    5  A    between atoms: C_23  and  C_24
REMARK    6  A    between atoms: C_24  and  C_25
REMARK    7  A    between atoms: N_27  and  C_28
REMARK    8  A    between atoms: C_28  and  C_29
REMARK    9  A    between atoms: C_29  and  N_30
REMARK                            x       y       z     vdW  Elec       q    Type
REMARK                         _______ _______ _______ _____ _____    ______ ____
ROOT
ATOM      1  N   UNL     1       0.425  -0.496  -1.370  0.00  0.00    -0.257 N 
ATOM      2  C   UNL     1      -0.200  -0.843  -2.534  0.00  0.00    +0.042 C 
ATOM      3  C   UNL     1       0.501  -1.277  -3.601  0.00  0.00    +0.058 C 
ATOM      4  C   UNL     1       2.007  -1.367  -3.465  0.00  0.00    +0.143 C 
ATOM      5  N   UNL     1       2.585  -0.971  -2.170  0.00  0.00    -0.288 N 
ATOM      6  C   UNL     1       1.752  -0.551  -1.197  0.00  0.00    +0.307 C 
ATOM      7  O   UNL     1       2.220  -0.218  -0.126  0.00  0.00    -0.252 OA
ATOM      8  C   UNL     1      -0.368  -1.570  -4.672  0.00  0.00    +0.247 C 
ATOM      9  O   UNL     1      -0.006  -1.981  -5.759  0.00  0.00    -0.270 OA
ATOM     10  N   UNL     1      -1.650  -1.337  -4.335  0.00  0.00    -0.292 N 
ATOM     11  C   UNL     1      -1.655  -0.854  -2.947  0.00  0.00    +0.159 C 
ATOM     12  H   UNL     1       3.543  -1.007  -2.022  0.00  0.00    +0.151 HD
ENDROOT
BRANCH   4  13
ATOM     13  C   UNL     1       2.623  -0.500  -4.533  0.00  0.00    -0.004 A 
ATOM     14  C   UNL     1       1.862   0.469  -5.160  0.00  0.00    +0.008 A 
ATOM     15  C   UNL     1       2.426   1.264  -6.139  0.00  0.00    +0.020 A 
ATOM     16  C   UNL     1       3.753   1.091  -6.493  0.00  0.00    +0.042 A 
ATOM     17  C   UNL     1       4.514   0.122  -5.866  0.00  0.00    +0.040 A 
ATOM     18  C   UNL     1       3.951  -0.671  -4.882  0.00  0.00    +0.048 A 
ATOM     19 CL   UNL     1       4.907  -1.884  -4.091  0.00  0.00    -0.083 Cl
ATOM     20 CL   UNL     1       4.460   2.090  -7.724  0.00  0.00    -0.083 Cl
ENDBRANCH   4  13
BRANCH   1  22
ATOM     21  C   UNL     1      -0.569   1.486  -0.339  0.00  0.00    +0.025 C 
ATOM     22  C   UNL     1      -0.400  -0.032  -0.252  0.00  0.00    +0.111 C 
ENDBRANCH   1  22
BRANCH  10  23
ATOM     23  C   UNL     1      -2.822  -1.528  -5.193  0.00  0.00    +0.117 C 
BRANCH  23  24
ATOM     24  C   UNL     1      -3.354  -2.952  -5.020  0.00  0.00    +0.114 C 
BRANCH  24  25
ATOM     25  C   UNL     1      -4.560  -3.148  -5.903  0.00  0.00    +0.214 C 
ATOM     26  O   UNL     1      -4.955  -2.239  -6.601  0.00  0.00    -0.276 OA
ATOM     27  N   UNL     1      -5.199  -4.334  -5.916  0.00  0.00    -0.317 N 
ATOM     28  H   UNL     1      -4.883  -5.062  -5.357  0.00  0.00    +0.149 HD
BRANCH  27  29
ATOM     29  C   UNL     1      -6.372  -4.525  -6.773  0.00  0.00    +0.085 C 
BRANCH  29  30
ATOM     30  C   UNL     1      -6.904  -5.949  -6.600  0.00  0.00    -0.060 C 
BRANCH  30  31
ATOM     31  N   UNL     1      -8.079  -6.141  -7.460  0.00  0.00    +0.381 N 
ATOM     32  C   UNL     1      -9.161  -5.256  -7.012  0.00  0.00    -0.079 C 
ATOM     33  C   UNL     1     -10.359  -5.392  -7.954  0.00  0.00    -0.019 C 
ATOM     34  C   UNL     1     -10.848  -6.843  -7.943  0.00  0.00    -0.004 C 
ATOM     35  C   UNL     1      -9.690  -7.764  -8.340  0.00  0.00    -0.019 C 
ATOM     36  C   UNL     1      -8.516  -7.540  -7.385  0.00  0.00    -0.079 C 
ATOM     37  H   UNL     1      -7.837  -5.916  -8.414  0.00  0.00    -0.082 HD
ENDBRANCH  30  31
ENDBRANCH  29  30
ENDBRANCH  27  29
ENDBRANCH  24  25
ENDBRANCH  23  24
ENDBRANCH  10  23
TORSDOF 8
