REMARK  Name = ZINC60167269
REMARK  7 active torsions:
REMARK  status: ('A' for Active; 'I' for Inactive)
REMARK    1  A    between atoms: C_3  and  C_8
REMARK    2  A    between atoms: C_8  and  N_9
REMARK    3  A    between atoms: C_13  and  C_16
REMARK    4  A    between atoms: N_18  and  C_19
REMARK    5  A    between atoms: C_19  and  C_20
REMARK    6  A    between atoms: C_20  and  C_22
REMARK    7  A    between atoms: C_20  and  N_29
REMARK                            x       y       z     vdW  Elec       q    Type
REMARK                         _______ _______ _______ _____ _____    ______ ____
ROOT
ATOM      1  C   UNL     1       7.535   3.467   3.208  0.00  0.00    +0.214 C 
ATOM      2  O   UNL     1       8.266   3.402   2.242  0.00  0.00    -0.276 OA
ATOM      3  N   UNL     1       7.813   4.328   4.207  0.00  0.00    -0.313 N 
ATOM      4  H   UNL     1       7.229   4.379   4.980  0.00  0.00    +0.149 HD
ENDROOT
BRANCH   1   9
ATOM      5  N   UNL     1       5.051   0.841   2.123  0.00  0.00    +0.383 N 
ATOM      6  C   UNL     1       5.173  -0.067   3.269  0.00  0.00    -0.078 C 
ATOM      7  C   UNL     1       5.213   0.744   4.566  0.00  0.00    -0.018 C 
ATOM      8  C   UNL     1       6.417   1.691   4.532  0.00  0.00    +0.009 C 
ATOM      9  C   UNL     1       6.317   2.583   3.292  0.00  0.00    +0.058 C 
ATOM     10  C   UNL     1       6.236   1.704   2.042  0.00  0.00    -0.066 C 
ATOM     11  H   UNL     1       4.227   1.413   2.236  0.00  0.00    -0.081 HD
BRANCH   5  12
ATOM     12  C   UNL     1       4.934   0.056   0.887  0.00  0.00    -0.043 C 
BRANCH  12  15
ATOM     13  C   UNL     1       1.316  -0.920   0.430  0.00  0.00    +0.003 A 
ATOM     14  C   UNL     1       2.491  -0.193   0.405  0.00  0.00    +0.002 A 
ATOM     15  C   UNL     1       3.654  -0.739   0.916  0.00  0.00    -0.061 A 
ATOM     16  C   UNL     1       3.643  -2.012   1.453  0.00  0.00    +0.040 A 
ATOM     17  C   UNL     1       2.466  -2.741   1.479  0.00  0.00    +0.124 A 
ATOM     18  C   UNL     1       1.302  -2.193   0.967  0.00  0.00    +0.038 A 
ATOM     19  F   UNL     1       2.454  -3.986   2.003  0.00  0.00    -0.205 F 
ENDBRANCH  12  15
ENDBRANCH   5  12
ENDBRANCH   1   9
BRANCH   3  20
ATOM     20  C   UNL     1       8.998   5.186   4.126  0.00  0.00    +0.127 C 
BRANCH  20  21
ATOM     21  C   UNL     1       9.080   6.062   5.378  0.00  0.00    +0.104 C 
BRANCH  21  22
ATOM     22  C   UNL     1      10.226   7.030   5.240  0.00  0.00    -0.029 A 
ATOM     23  C   UNL     1      10.366   7.775   4.084  0.00  0.00    +0.006 A 
ATOM     24  C   UNL     1      11.417   8.664   3.957  0.00  0.00    +0.020 A 
ATOM     25  C   UNL     1      12.330   8.806   4.986  0.00  0.00    +0.041 A 
ATOM     26  C   UNL     1      12.190   8.060   6.143  0.00  0.00    +0.020 A 
ATOM     27  C   UNL     1      11.135   7.176   6.271  0.00  0.00    +0.006 A 
ATOM     28 CL   UNL     1      13.651   9.921   4.827  0.00  0.00    -0.084 Cl
ENDBRANCH  21  22
BRANCH  21  29
ATOM     29  N   UNL     1       7.825   6.808   5.537  0.00  0.00    -0.290 NA
ATOM     30  C   UNL     1       7.593   7.699   4.391  0.00  0.00    +0.113 C 
ATOM     31  C   UNL     1       6.250   8.412   4.569  0.00  0.00    +0.175 C 
ATOM     32  O   UNL     1       6.251   9.118   5.812  0.00  0.00    -0.377 OA
ATOM     33  C   UNL     1       6.473   8.280   6.950  0.00  0.00    +0.175 C 
ATOM     34  C   UNL     1       7.819   7.567   6.796  0.00  0.00    +0.113 C 
ENDBRANCH  21  29
ENDBRANCH  20  21
ENDBRANCH   3  20
TORSDOF 7
