REMARK  Name = ZINC00838730
REMARK  12 active torsions:
REMARK  status: ('A' for Active; 'I' for Inactive)
REMARK    1  A    between atoms: C_1  and  C_2
REMARK    2  A    between atoms: C_3  and  C_33
REMARK    3  A    between atoms: C_4  and  C_25
REMARK    4  A    between atoms: C_10  and  C_15
REMARK    5  A    between atoms: C_18  and  O_23
REMARK    6  A    between atoms: C_19  and  O_21
REMARK    7  A    between atoms: O_21  and  C_22
REMARK    8  A    between atoms: O_23  and  C_24
REMARK    9  A    between atoms: C_33  and  O_35
REMARK   10  A    between atoms: O_35  and  C_36
REMARK   11  A    between atoms: C_36  and  C_37
REMARK   12  A    between atoms: C_36  and  C_38
REMARK                            x       y       z     vdW  Elec       q    Type
REMARK                         _______ _______ _______ _____ _____    ______ ____
ROOT
ATOM      1  C   UNL     1       5.787   7.889  -3.778  0.00  0.00    +0.061 C 
ATOM      2  C   UNL     1       5.366   7.273  -2.469  0.00  0.00    +0.016 C 
ATOM      3  C   UNL     1       5.981   7.637  -1.331  0.00  0.00    +0.065 C 
ATOM      4  C   UNL     1       5.594   7.040  -0.010  0.00  0.00    +0.096 C 
ATOM      5  C   UNL     1       4.238   6.384  -0.089  0.00  0.00    +0.024 C 
ATOM      6  C   UNL     1       3.692   6.072  -1.284  0.00  0.00    +0.016 C 
ATOM      7  N   UNL     1       4.360   6.348  -2.446  0.00  0.00    -0.321 N 
ATOM      8  C   UNL     1       2.336   5.416  -1.371  0.00  0.00    +0.059 C 
ATOM      9  C   UNL     1       2.107   4.544  -0.134  0.00  0.00    +0.032 C 
ATOM     10  C   UNL     1       2.221   5.425   1.115  0.00  0.00    +0.088 C 
ATOM     11  C   UNL     1       3.563   6.105   1.112  0.00  0.00    +0.162 C 
ATOM     12  O   UNL     1       4.075   6.416   2.170  0.00  0.00    -0.292 OA
ATOM     13  H   UNL     1       4.080   5.817  -3.368  0.00  0.00    +0.152 HD
ENDROOT
BRANCH   4  14
ATOM     14  C   UNL     1       6.619   6.009   0.385  0.00  0.00    +0.018 A 
ATOM     15  C   UNL     1       6.823   4.894  -0.410  0.00  0.00    +0.129 A 
ATOM     16  C   UNL     1       7.769   3.950  -0.049  0.00  0.00    +0.039 A 
ATOM     17  C   UNL     1       8.503   4.116   1.111  0.00  0.00    +0.004 A 
ATOM     18  C   UNL     1       8.296   5.226   1.908  0.00  0.00    +0.020 A 
ATOM     19  C   UNL     1       7.354   6.173   1.545  0.00  0.00    +0.048 A 
ATOM     20 CL   UNL     1       7.095   7.567   2.547  0.00  0.00    -0.083 Cl
ATOM     21  F   UNL     1       6.101   4.729  -1.541  0.00  0.00    -0.205 F 
ENDBRANCH   4  14
BRANCH   9  22
ATOM     22  C   UNL     1       0.732   3.929  -0.196  0.00  0.00    -0.040 A 
ATOM     23  C   UNL     1      -0.385   4.742  -0.250  0.00  0.00    +0.008 A 
ATOM     24  C   UNL     1      -1.648   4.182  -0.306  0.00  0.00    +0.049 A 
ATOM     25  C   UNL     1      -1.796   2.805  -0.314  0.00  0.00    +0.161 A 
ATOM     26  C   UNL     1      -0.671   1.987  -0.254  0.00  0.00    +0.162 A 
ATOM     27  C   UNL     1       0.592   2.554  -0.198  0.00  0.00    +0.053 A 
BRANCH  26  28
ATOM     28  O   UNL     1      -0.811   0.634  -0.256  0.00  0.00    -0.491 OA
ATOM     29  C   UNL     1       0.387  -0.142  -0.199  0.00  0.00    +0.277 C 
ENDBRANCH  26  28
BRANCH  25  30
ATOM     30  O   UNL     1      -3.037   2.253  -0.375  0.00  0.00    -0.491 OA
ATOM     31  C   UNL     1      -4.145   3.153  -0.435  0.00  0.00    +0.277 C 
ENDBRANCH  25  30
ENDBRANCH   9  22
BRANCH   3  32
ATOM     32  C   UNL     1       7.014   8.603  -1.379  0.00  0.00    +0.338 C 
ATOM     33  O   UNL     1       6.808   9.735  -0.983  0.00  0.00    -0.245 OA
BRANCH  32  34
ATOM     34  O   UNL     1       8.228   8.269  -1.865  0.00  0.00    -0.459 OA
BRANCH  34  35
ATOM     35  C   UNL     1       9.223   9.293  -1.884  0.00  0.00    +0.171 C 
ATOM     36  C   UNL     1      10.608   8.662  -1.725  0.00  0.00    +0.052 C 
ATOM     37  C   UNL     1       9.156  10.046  -3.214  0.00  0.00    +0.052 C 
ENDBRANCH  34  35
ENDBRANCH  32  34
ENDBRANCH   3  32
TORSDOF 7
