REMARK  Name = ZINC20890735
REMARK  6 active torsions:
REMARK  status: ('A' for Active; 'I' for Inactive)
REMARK    1  A    between atoms: C_1  and  C_2
REMARK    2  A    between atoms: C_4  and  C_34
REMARK    3  A    between atoms: C_11  and  C_13
REMARK    4  A    between atoms: C_14  and  C_28
REMARK    5  A    between atoms: N_19  and  C_20
REMARK    6  A    between atoms: C_20  and  C_21
REMARK                            x       y       z     vdW  Elec       q    Type
REMARK                         _______ _______ _______ _____ _____    ______ ____
ROOT
ATOM      1  C   UNL     1       1.056  10.037   0.803  0.00  0.00    +0.066 C 
ATOM      2  C   UNL     1      -0.084   9.540   1.655  0.00  0.00    +0.044 A 
ATOM      3  C   UNL     1      -1.086  10.408   2.061  0.00  0.00    +0.046 A 
ATOM      4  C   UNL     1      -2.116   9.909   2.844  0.00  0.00    +0.044 A 
ATOM      5  N   UNL     1      -2.111   8.630   3.177  0.00  0.00    -0.216 NA
ATOM      6  C   UNL     1      -1.138   7.829   2.773  0.00  0.00    +0.253 A 
ATOM      7  N   UNL     1      -0.138   8.273   2.029  0.00  0.00    -0.216 NA
ATOM      8  N   UNL     1      -1.165   6.485   3.144  0.00  0.00    -0.183 N 
ATOM      9  C   UNL     1      -1.233   5.427   2.307  0.00  0.00    +0.139 A 
ATOM     10  C   UNL     1      -1.226   4.293   3.073  0.00  0.00    +0.024 A 
ATOM     11  C   UNL     1      -1.162   4.676   4.405  0.00  0.00    +0.066 A 
ATOM     12  N   UNL     1      -1.126   5.986   4.456  0.00  0.00    -0.167 NA
ATOM     13  C   UNL     1      -1.139   3.745   5.590  0.00  0.00    +0.068 C 
ATOM     14  C   UNL     1      -1.279   2.912   2.470  0.00  0.00    +0.063 C 
ATOM     15  C   UNL     1      -2.031   2.997   1.137  0.00  0.00    +0.109 C 
ATOM     16  C   UNL     1      -1.590   4.190   0.338  0.00  0.00    +0.222 C 
ATOM     17  O   UNL     1      -1.479   4.083  -0.866  0.00  0.00    -0.275 OA
ATOM     18  N   UNL     1      -1.314   5.378   0.916  0.00  0.00    -0.251 N 
ATOM     19  C   UNL     1      -3.228  10.815   3.308  0.00  0.00    +0.066 C 
ENDROOT
BRANCH  14  20
ATOM     20  C   UNL     1       0.120   2.407   2.232  0.00  0.00    -0.039 A 
ATOM     21  C   UNL     1       0.971   3.098   1.389  0.00  0.00    +0.004 A 
ATOM     22  C   UNL     1       2.253   2.631   1.166  0.00  0.00    +0.000 A 
ATOM     23  C   UNL     1       2.684   1.474   1.786  0.00  0.00    +0.000 A 
ATOM     24  C   UNL     1       1.834   0.783   2.629  0.00  0.00    +0.000 A 
ATOM     25  C   UNL     1       0.552   1.250   2.852  0.00  0.00    +0.004 A 
ENDBRANCH  14  20
BRANCH  18  26
ATOM     26  C   UNL     1      -1.105   6.581   0.106  0.00  0.00    +0.150 C 
BRANCH  26  27
ATOM     27  C   UNL     1       0.319   6.614  -0.386  0.00  0.00    -0.028 A 
ATOM     28  C   UNL     1       0.583   6.860  -1.721  0.00  0.00    +0.005 A 
ATOM     29  C   UNL     1       1.889   6.891  -2.173  0.00  0.00    +0.002 A 
ATOM     30  C   UNL     1       2.932   6.675  -1.291  0.00  0.00    +0.020 A 
ATOM     31  C   UNL     1       2.668   6.428   0.044  0.00  0.00    +0.041 A 
ATOM     32  C   UNL     1       1.361   6.403   0.497  0.00  0.00    +0.025 A 
ATOM     33 CL   UNL     1       3.976   6.156   1.152  0.00  0.00    -0.084 Cl
ENDBRANCH  26  27
ENDBRANCH  18  26
TORSDOF 3
