REMARK  Name = ZINC63686651
REMARK  12 active torsions:
REMARK  status: ('A' for Active; 'I' for Inactive)
REMARK    1  A    between atoms: C_1  and  C_2
REMARK    2  A    between atoms: C_2  and  N_3
REMARK    3  A    between atoms: C_4  and  C_24
REMARK    4  A    between atoms: C_8  and  S_10
REMARK    5  A    between atoms: S_10  and  C_11
REMARK    6  A    between atoms: C_11  and  C_12
REMARK    7  A    between atoms: C_24  and  O_25
REMARK    8  A    between atoms: O_25  and  C_26
REMARK    9  A    between atoms: C_29  and  C_32
REMARK   10  A    between atoms: C_32  and  C_33
REMARK   11  A    between atoms: C_32  and  C_34
REMARK   12  A    between atoms: C_32  and  C_35
REMARK                            x       y       z     vdW  Elec       q    Type
REMARK                         _______ _______ _______ _____ _____    ______ ____
ROOT
ATOM      1  N   UNL     1       0.611  -0.728   1.146  0.00  0.00    -0.259 NA
ATOM      2  C   UNL     1       0.783  -2.197   1.067  0.00  0.00    +0.178 C 
ATOM      3  N   UNL     1       0.637  -2.657   2.473  0.00  0.00    -0.234 NA
ATOM      4  N   UNL     1      -0.422  -1.783   3.002  0.00  0.00    -0.229 NA
ATOM      5  C   UNL     1      -0.157  -0.465   2.381  0.00  0.00    +0.200 C 
ATOM      6  H   UNL     1       0.358  -3.626   2.509  0.00  0.00    +0.142 HD
ATOM      7  H   UNL     1      -1.335  -2.126   2.745  0.00  0.00    +0.143 HD
ENDROOT
BRANCH   1   9
ATOM      8  C   UNL     1       0.802  -0.337  -1.264  0.00  0.00    +0.020 C 
ATOM      9  C   UNL     1      -0.100  -0.217  -0.034  0.00  0.00    +0.085 C 
ENDBRANCH   1   9
BRANCH   5  10
ATOM     10  S   UNL     1      -1.722   0.358   1.978  0.00  0.00    -0.119 S 
BRANCH  10  11
ATOM     11  C   UNL     1      -2.314   0.982   3.575  0.00  0.00    +0.125 C 
BRANCH  11  12
ATOM     12  C   UNL     1      -3.562   1.801   3.362  0.00  0.00    +0.030 A 
ATOM     13  N   UNL     1      -3.444   3.042   2.833  0.00  0.00    -0.355 N 
ATOM     14  C   UNL     1      -4.545   3.841   2.614  0.00  0.00    +0.086 A 
ATOM     15  C   UNL     1      -5.825   3.363   2.945  0.00  0.00    +0.048 A 
ATOM     16  C   UNL     1      -6.947   4.163   2.729  0.00  0.00    +0.014 A 
ATOM     17  C   UNL     1      -6.797   5.412   2.194  0.00  0.00    +0.004 A 
ATOM     18  C   UNL     1      -5.537   5.891   1.863  0.00  0.00    +0.040 A 
ATOM     19  C   UNL     1      -4.413   5.117   2.068  0.00  0.00    +0.147 A 
ATOM     20  F   UNL     1      -3.192   5.593   1.744  0.00  0.00    -0.203 F 
ATOM     21  C   UNL     1      -5.942   2.012   3.520  0.00  0.00    +0.190 A 
ATOM     22  O   UNL     1      -7.029   1.549   3.825  0.00  0.00    -0.287 OA
ATOM     23  C   UNL     1      -4.754   1.267   3.703  0.00  0.00    +0.073 A 
ATOM     24  H   UNL     1      -2.564   3.376   2.602  0.00  0.00    +0.166 HD
ENDBRANCH  11  12
ENDBRANCH  10  11
ENDBRANCH   5  10
BRANCH   2  25
ATOM     25  C   UNL     1       2.171  -2.545   0.528  0.00  0.00    +0.265 C 
BRANCH  25  26
ATOM     26  O   UNL     1       3.169  -2.007   1.397  0.00  0.00    -0.489 OA
BRANCH  26  27
ATOM     27  C   UNL     1       4.467  -2.228   1.059  0.00  0.00    +0.121 A 
ATOM     28  C   UNL     1       4.773  -2.943  -0.089  0.00  0.00    +0.046 A 
ATOM     29  C   UNL     1       6.093  -3.166  -0.431  0.00  0.00    +0.008 A 
ATOM     30  C   UNL     1       7.108  -2.678   0.371  0.00  0.00    -0.042 A 
ATOM     31  C   UNL     1       6.805  -1.965   1.516  0.00  0.00    +0.008 A 
ATOM     32  C   UNL     1       5.487  -1.734   1.859  0.00  0.00    +0.046 A 
BRANCH  30  33
ATOM     33  C   UNL     1       8.547  -2.923  -0.004  0.00  0.00    -0.013 C 
ATOM     34  C   UNL     1       8.829  -2.306  -1.376  0.00  0.00    +0.015 C 
ATOM     35  C   UNL     1       9.463  -2.282   1.041  0.00  0.00    +0.015 C 
ATOM     36  C   UNL     1       8.810  -4.429  -0.058  0.00  0.00    +0.015 C 
ENDBRANCH  30  33
ENDBRANCH  26  27
ENDBRANCH  25  26
ENDBRANCH   2  25
TORSDOF 8
