REMARK  Name = ZINC63744071
REMARK  15 active torsions:
REMARK  status: ('A' for Active; 'I' for Inactive)
REMARK    1  A    between atoms: C_1  and  C_2
REMARK    2  A    between atoms: C_4  and  C_39
REMARK    3  A    between atoms: C_9  and  N_25
REMARK    4  A    between atoms: N_10  and  C_11
REMARK    5  A    between atoms: C_11  and  C_13
REMARK    6  A    between atoms: C_14  and  C_15
REMARK    7  A    between atoms: C_18  and  O_23
REMARK    8  A    between atoms: C_19  and  O_21
REMARK    9  A    between atoms: O_21  and  C_22
REMARK   10  A    between atoms: O_23  and  C_24
REMARK   11  A    between atoms: N_25  and  C_26
REMARK   12  A    between atoms: C_26  and  C_27
REMARK   13  A    between atoms: C_27  and  C_28
REMARK   14  A    between atoms: C_32  and  O_37
REMARK   15  A    between atoms: O_37  and  C_38
REMARK                            x       y       z     vdW  Elec       q    Type
REMARK                         _______ _______ _______ _____ _____    ______ ____
ROOT
ATOM      1  C   UNL     1      -0.500  -6.725   5.039  0.00  0.00    +0.066 C 
ATOM      2  C   UNL     1      -0.505  -6.038   3.697  0.00  0.00    +0.044 A 
ATOM      3  C   UNL     1      -0.507  -6.782   2.528  0.00  0.00    +0.046 A 
ATOM      4  C   UNL     1      -0.513  -6.110   1.316  0.00  0.00    +0.044 A 
ATOM      5  N   UNL     1      -0.516  -4.787   1.311  0.00  0.00    -0.217 NA
ATOM      6  C   UNL     1      -0.514  -4.106   2.447  0.00  0.00    +0.231 A 
ATOM      7  N   UNL     1      -0.514  -4.717   3.622  0.00  0.00    -0.217 NA
ATOM      8  N   UNL     1      -0.518  -2.718   2.405  0.00  0.00    -0.295 N 
ATOM      9  C   UNL     1      -0.406  -1.998   3.563  0.00  0.00    +0.218 C 
ATOM     10  N   UNL     1      -0.188  -2.620   4.710  0.00  0.00    -0.142 NA
ATOM     11  C   UNL     1      -0.514  -6.877   0.018  0.00  0.00    +0.066 C 
ATOM     12  H   UNL     1      -0.600  -2.259   1.554  0.00  0.00    +0.172 HD
ENDROOT
BRANCH  10  13
ATOM     13  C   UNL     1      -0.078  -1.913   5.847  0.00  0.00    +0.263 C 
ATOM     14  O   UNL     1      -0.179  -0.698   5.822  0.00  0.00    -0.269 OA
BRANCH  13  15
ATOM     15  C   UNL     1       0.164  -2.603   7.119  0.00  0.00    +0.070 C 
ATOM     16  C   UNL     1       0.274  -1.894   8.260  0.00  0.00    +0.013 C 
BRANCH  16  17
ATOM     17  C   UNL     1       0.516  -2.585   9.535  0.00  0.00    -0.021 A 
ATOM     18  C   UNL     1       0.639  -3.979   9.565  0.00  0.00    +0.012 A 
ATOM     19  C   UNL     1       0.866  -4.624  10.761  0.00  0.00    +0.050 A 
ATOM     20  C   UNL     1       0.974  -3.896  11.938  0.00  0.00    +0.162 A 
ATOM     21  C   UNL     1       0.853  -2.507  11.916  0.00  0.00    +0.162 A 
ATOM     22  C   UNL     1       0.631  -1.851  10.721  0.00  0.00    +0.057 A 
BRANCH  21  23
ATOM     23  O   UNL     1       0.958  -1.797  13.071  0.00  0.00    -0.491 OA
ATOM     24  C   UNL     1       0.824  -0.378  12.975  0.00  0.00    +0.277 C 
ENDBRANCH  21  23
BRANCH  20  25
ATOM     25  O   UNL     1       1.197  -4.538  13.114  0.00  0.00    -0.491 OA
ATOM     26  C   UNL     1       1.310  -5.961  13.065  0.00  0.00    +0.277 C 
ENDBRANCH  20  25
ENDBRANCH  16  17
ENDBRANCH  13  15
ENDBRANCH  10  13
BRANCH   9  27
ATOM     27  N   UNL     1      -0.519  -0.639   3.535  0.00  0.00    -0.252 NA
BRANCH  27  28
ATOM     28  C   UNL     1      -0.649   0.059   2.254  0.00  0.00    +0.149 C 
BRANCH  28  29
ATOM     29  C   UNL     1      -0.635   1.570   2.493  0.00  0.00    +0.056 C 
BRANCH  29  30
ATOM     30  C   UNL     1      -0.890   2.287   1.192  0.00  0.00    -0.040 C 
ATOM     31  C   UNL     1      -2.080   2.731   0.730  0.00  0.00    -0.001 A 
ATOM     32  C   UNL     1      -3.440   2.682   1.282  0.00  0.00    +0.013 A 
ATOM     33  C   UNL     1      -4.456   3.223   0.575  0.00  0.00    +0.046 A 
ATOM     34  C   UNL     1      -4.242   3.832  -0.676  0.00  0.00    +0.122 A 
ATOM     35  C   UNL     1      -3.013   3.914  -1.247  0.00  0.00    +0.071 A 
ATOM     36  C   UNL     1      -1.880   3.377  -0.587  0.00  0.00    +0.046 A 
ATOM     37  N   UNL     1      -0.612   3.333  -0.926  0.00  0.00    -0.380 N 
ATOM     38  C   UNL     1       0.133   2.659   0.143  0.00  0.00    +0.144 C 
ATOM     39  H   UNL     1      -0.231   3.689  -1.744  0.00  0.00    +0.160 HD
BRANCH  34  40
ATOM     40  O   UNL     1      -5.304   4.356  -1.336  0.00  0.00    -0.495 OA
ATOM     41  C   UNL     1      -6.580   4.248  -0.702  0.00  0.00    +0.277 C 
ENDBRANCH  34  40
ENDBRANCH  29  30
ENDBRANCH  28  29
ENDBRANCH  27  28
ENDBRANCH   9  27
TORSDOF 10
