REMARK  Name = ZINC36597830
REMARK  16 active torsions:
REMARK  status: ('A' for Active; 'I' for Inactive)
REMARK    1  A    between atoms: C_1  and  C_2
REMARK    2  A    between atoms: C_5  and  C_7
REMARK    3  A    between atoms: C_7  and  N_8
REMARK    4  A    between atoms: N_8  and  C_9
REMARK    5  A    between atoms: C_9  and  C_11
REMARK    6  A    between atoms: C_9  and  C_20
REMARK    7  A    between atoms: C_14  and  N_17
REMARK    8  A    between atoms: N_17  and  C_18
REMARK    9  A    between atoms: N_17  and  C_19
REMARK   10  A    between atoms: N_22  and  C_23
REMARK   11  A    between atoms: C_23  and  C_24
REMARK   12  A    between atoms: C_23  and  C_25
REMARK   13  A    between atoms: C_23  and  C_26
REMARK   14  A    between atoms: C_27  and  C_29
REMARK   15  A    between atoms: C_33  and  O_36
REMARK   16  A    between atoms: C_34  and  O_35
REMARK                            x       y       z     vdW  Elec       q    Type
REMARK                         _______ _______ _______ _____ _____    ______ ____
ROOT
ATOM      1  N   UNL     1       1.726  -3.045  -2.293  0.00  0.00    -0.275 N 
ATOM      2  C   UNL     1       1.654  -3.864  -1.225  0.00  0.00    +0.252 C 
ATOM      3  O   UNL     1       0.657  -4.535  -1.041  0.00  0.00    -0.270 OA
ENDROOT
BRANCH   2   4
ATOM      4  C   UNL     1       2.784  -3.947  -0.281  0.00  0.00    +0.082 A 
ATOM      5  C   UNL     1       3.970  -3.254  -0.542  0.00  0.00    +0.017 A 
ATOM      6  C   UNL     1       5.023  -3.334   0.343  0.00  0.00    +0.005 A 
ATOM      7  C   UNL     1       4.915  -4.099   1.493  0.00  0.00    +0.049 A 
ATOM      8  C   UNL     1       3.747  -4.791   1.765  0.00  0.00    +0.159 A 
ATOM      9  C   UNL     1       2.673  -4.716   0.884  0.00  0.00    +0.171 A 
BRANCH   9  10
ATOM     10  O   UNL     1       1.524  -5.388   1.150  0.00  0.00    -0.503 OA
ATOM     11  H   UNL     1       1.502  -6.287   0.793  0.00  0.00    +0.292 HD
ENDBRANCH   9  10
BRANCH   8  12
ATOM     12  O   UNL     1       3.649  -5.540   2.896  0.00  0.00    -0.503 OA
ATOM     13  H   UNL     1       3.306  -5.056   3.660  0.00  0.00    +0.292 HD
ENDBRANCH   8  12
ENDBRANCH   2   4
BRANCH   1  14
ATOM     14  C   UNL     1       0.710  -3.120  -3.345  0.00  0.00    +0.183 C 
BRANCH  14  19
ATOM     15  C   UNL     1       3.039  -3.214  -7.818  0.00  0.00    +0.086 C 
ATOM     16  C   UNL     1       2.350  -3.676  -6.559  0.00  0.00    +0.102 A 
ATOM     17  C   UNL     1       2.091  -4.954  -6.228  0.00  0.00    +0.045 A 
ATOM     18  C   UNL     1       1.438  -4.927  -4.974  0.00  0.00    +0.046 A 
ATOM     19  C   UNL     1       1.338  -3.635  -4.614  0.00  0.00    +0.122 A 
ATOM     20  O   UNL     1       1.898  -2.882  -5.575  0.00  0.00    -0.463 OA
ENDBRANCH  14  19
ENDBRANCH   1  14
BRANCH   1  21
ATOM     21  C   UNL     1       2.822  -2.078  -2.401  0.00  0.00    +0.193 C 
BRANCH  21  22
ATOM     22  C   UNL     1       4.014  -2.740  -3.041  0.00  0.00    -0.018 A 
ATOM     23  C   UNL     1       3.848  -3.899  -3.777  0.00  0.00    +0.008 A 
ATOM     24  C   UNL     1       4.939  -4.508  -4.365  0.00  0.00    +0.023 A 
ATOM     25  C   UNL     1       6.205  -3.955  -4.217  0.00  0.00    +0.029 A 
ATOM     26  C   UNL     1       6.369  -2.791  -3.477  0.00  0.00    +0.023 A 
ATOM     27  C   UNL     1       5.272  -2.184  -2.896  0.00  0.00    +0.008 A 
BRANCH  25  28
ATOM     28  N   UNL     1       7.310  -4.569  -4.810  0.00  0.00    -0.336 N 
ATOM     29  C   UNL     1       7.136  -5.797  -5.589  0.00  0.00    +0.129 C 
ATOM     30  C   UNL     1       8.644  -3.985  -4.653  0.00  0.00    +0.129 C 
ENDBRANCH  25  28
ENDBRANCH  21  22
BRANCH  21  31
ATOM     31  C   UNL     1       2.381  -0.911  -3.247  0.00  0.00    +0.239 C 
ATOM     32  O   UNL     1       1.212  -0.789  -3.548  0.00  0.00    -0.273 OA
ATOM     33  N   UNL     1       3.284  -0.004  -3.667  0.00  0.00    -0.309 N 
ATOM     34  H   UNL     1       4.218  -0.102  -3.426  0.00  0.00    +0.149 HD
BRANCH  33  35
ATOM     35  C   UNL     1       2.855   1.130  -4.490  0.00  0.00    +0.026 C 
ATOM     36  C   UNL     1       1.830   1.961  -3.716  0.00  0.00    +0.031 C 
ATOM     37  C   UNL     1       4.067   2.001  -4.829  0.00  0.00    +0.031 C 
ATOM     38  C   UNL     1       2.222   0.612  -5.782  0.00  0.00    +0.031 C 
ENDBRANCH  33  35
ENDBRANCH  21  31
ENDBRANCH   1  21
TORSDOF 10
