REMARK  Name = ZINC35954899
REMARK  7 active torsions:
REMARK  status: ('A' for Active; 'I' for Inactive)
REMARK    1  A    between atoms: C_1  and  N_2
REMARK    2  A    between atoms: N_2  and  C_3
REMARK    3  A    between atoms: N_2  and  C_4
REMARK    4  A    between atoms: C_4  and  C_5
REMARK    5  A    between atoms: C_5  and  N_6
REMARK    6  A    between atoms: C_12  and  C_14
REMARK    7  A    between atoms: N_27  and  C_30
REMARK                            x       y       z     vdW  Elec       q    Type
REMARK                         _______ _______ _______ _____ _____    ______ ____
ROOT
ATOM      1  C   UNL     1      -8.024  -0.058  -3.013  0.00  0.00    +0.156 A 
ATOM      2  C   UNL     1      -9.304   0.608  -3.252  0.00  0.00    +0.018 A 
ATOM      3  C   UNL     1     -10.065   1.178  -2.230  0.00  0.00    +0.011 A 
ATOM      4  C   UNL     1     -11.250   1.782  -2.536  0.00  0.00    +0.001 A 
ATOM      5  C   UNL     1     -11.709   1.837  -3.849  0.00  0.00    +0.001 A 
ATOM      6  C   UNL     1     -10.989   1.288  -4.870  0.00  0.00    +0.012 A 
ATOM      7  C   UNL     1      -9.770   0.663  -4.591  0.00  0.00    +0.026 A 
ATOM      8  C   UNL     1      -8.964   0.072  -5.591  0.00  0.00    +0.152 A 
ATOM      9  N   UNL     1      -7.820  -0.504  -5.251  0.00  0.00    -0.133 NA
ATOM     10  N   UNL     1      -7.375  -0.563  -4.052  0.00  0.00    -0.142 NA
ATOM     11  N   UNL     1      -9.365   0.094  -6.909  0.00  0.00    -0.310 N 
ATOM     12  C   UNL     1      -8.891   1.148  -7.817  0.00  0.00    +0.125 C 
ATOM     13  C   UNL     1      -8.234   0.486  -9.035  0.00  0.00    +0.124 C 
ATOM     14  N   UNL     1      -9.143  -0.544  -9.557  0.00  0.00    -0.327 N 
ATOM     15  C   UNL     1      -9.616  -1.597  -8.649  0.00  0.00    +0.124 C 
ATOM     16  C   UNL     1     -10.269  -0.939  -7.433  0.00  0.00    +0.125 C 
ENDROOT
BRANCH   1  23
ATOM     17  N   UNL     1      -3.481   0.392  -1.009  0.00  0.00    -0.301 NA
ATOM     18  C   UNL     1      -4.447   0.482   0.095  0.00  0.00    +0.103 C 
ATOM     19  C   UNL     1      -5.575  -0.530  -0.135  0.00  0.00    +0.123 C 
ATOM     20  N   UNL     1      -6.139  -0.305  -1.474  0.00  0.00    -0.294 N 
ATOM     21  C   UNL     1      -5.215  -0.244  -2.617  0.00  0.00    +0.123 C 
ATOM     22  C   UNL     1      -4.101   0.756  -2.290  0.00  0.00    +0.103 C 
ATOM     23  C   UNL     1      -7.467  -0.159  -1.650  0.00  0.00    +0.267 C 
ATOM     24  O   UNL     1      -8.206  -0.110  -0.686  0.00  0.00    -0.268 OA
BRANCH  17  25
ATOM     25  C   UNL     1      -2.299   1.221  -0.742  0.00  0.00    +0.066 C 
BRANCH  25  26
ATOM     26  C   UNL     1      -1.541   0.657   0.462  0.00  0.00    -0.064 C 
BRANCH  26  28
ATOM     27  C   UNL     1      -0.785   2.832   1.135  0.00  0.00    -0.097 C 
ATOM     28  N   UNL     1      -0.358   1.486   0.729  0.00  0.00    +0.377 N 
ATOM     29  C   UNL     1       0.434   0.877   1.806  0.00  0.00    -0.097 C 
ATOM     30  H   UNL     1       0.204   1.549  -0.107  0.00  0.00    -0.083 HD
ENDBRANCH  26  28
ENDBRANCH  25  26
ENDBRANCH  17  25
ENDBRANCH   1  23
BRANCH  14  31
ATOM     31  C   UNL     1      -9.550  -0.521 -10.895  0.00  0.00    +0.030 A 
ATOM     32  C   UNL     1     -10.275  -1.583 -11.419  0.00  0.00    +0.026 A 
ATOM     33  C   UNL     1     -10.677  -1.558 -12.740  0.00  0.00    +0.040 A 
ATOM     34  C   UNL     1     -10.357  -0.476 -13.542  0.00  0.00    +0.124 A 
ATOM     35  C   UNL     1      -9.633   0.584 -13.022  0.00  0.00    +0.040 A 
ATOM     36  C   UNL     1      -9.234   0.566 -11.700  0.00  0.00    +0.026 A 
ATOM     37  F   UNL     1     -10.750  -0.454 -14.834  0.00  0.00    -0.205 F 
ENDBRANCH  14  31
TORSDOF 5
