REMARK  Name = ZINC04328531
REMARK  9 active torsions:
REMARK  status: ('A' for Active; 'I' for Inactive)
REMARK    1  A    between atoms: C_1  and  C_2
REMARK    2  A    between atoms: C_2  and  S_3
REMARK    3  A    between atoms: S_3  and  C_4
REMARK    4  A    between atoms: C_4  and  S_26
REMARK    5  A    between atoms: C_5  and  C_24
REMARK    6  A    between atoms: C_11  and  C_18
REMARK    7  A    between atoms: C_13  and  C_16
REMARK    8  A    between atoms: S_26  and  C_27
REMARK    9  A    between atoms: C_27  and  C_28
REMARK                            x       y       z     vdW  Elec       q    Type
REMARK                         _______ _______ _______ _____ _____    ______ ____
ROOT
ATOM      1  C   UNL     1       3.558   1.738  -0.562  0.00  0.00    +0.157 C 
ATOM      2  C   UNL     1       2.451   1.445   0.455  0.00  0.00    +0.148 C 
ATOM      3  C   UNL     1       1.348   2.438   0.615  0.00  0.00    -0.029 C 
ATOM      4  C   UNL     1       0.088   2.015   0.763  0.00  0.00    -0.011 C 
ATOM      5  C   UNL     1      -0.841   3.191   0.922  0.00  0.00    +0.049 C 
ATOM      6  C   UNL     1       0.076   4.389   1.261  0.00  0.00    +0.010 C 
ATOM      7  C   UNL     1       1.420   3.939   0.641  0.00  0.00    +0.034 C 
ATOM      8  C   UNL     1       0.762  -0.367   0.574  0.00  0.00    +0.113 C 
ATOM      9  C   UNL     1       1.794   0.259  -0.322  0.00  0.00    +0.156 C 
ATOM     10  C   UNL     1       2.975  -0.482  -0.827  0.00  0.00    +0.092 C 
ATOM     11  N   UNL     1       3.026  -1.825  -1.092  0.00  0.00    -0.347 N 
ATOM     12  H   UNL     1       2.241  -2.377  -0.949  0.00  0.00    +0.143 HD
ATOM     13  H   UNL     1       3.847  -2.224  -1.421  0.00  0.00    +0.143 HD
ATOM     14  N   UNL     1      -0.351   0.651   0.771  0.00  0.00    -0.401 NA
ATOM     15  H   UNL     1      -1.036   0.531   0.015  0.00  0.00    +0.124 HD
ATOM     16  H   UNL     1      -0.802   0.464   1.674  0.00  0.00    +0.124 HD
ATOM     17  N   UNL     1       3.973   0.365  -0.982  0.00  0.00    -0.351 N 
ATOM     18  H   UNL     1       4.902   0.117  -1.340  0.00  0.00    +0.163 HD
ENDROOT
BRANCH   8  19
ATOM     19  C   UNL     1       1.378  -0.732   1.900  0.00  0.00    -0.027 A 
ATOM     20  C   UNL     1       2.351  -1.711   1.965  0.00  0.00    +0.005 A 
ATOM     21  C   UNL     1       2.919  -2.042   3.181  0.00  0.00    +0.000 A 
ATOM     22  C   UNL     1       2.506  -1.401   4.334  0.00  0.00    +0.000 A 
ATOM     23  C   UNL     1       1.529  -0.425   4.270  0.00  0.00    +0.000 A 
ATOM     24  C   UNL     1       0.965  -0.090   3.053  0.00  0.00    +0.005 A 
ENDBRANCH   8  19
BRANCH   9  25
ATOM     25  C   UNL     1       1.098   0.848  -1.478  0.00  0.00    +0.081 C 
ATOM     26  N   UNL     1       0.561   1.302  -2.370  0.00  0.00    -0.195 NA
ENDBRANCH   9  25
BRANCH   2  27
ATOM     27  C   UNL     1       3.005   1.018   1.750  0.00  0.00    +0.080 C 
ATOM     28  N   UNL     1       3.432   0.687   2.749  0.00  0.00    -0.195 NA
ENDBRANCH   2  27
BRANCH   1  29
ATOM     29  S   UNL     1       4.941   2.614   0.221  0.00  0.00    -0.121 S 
BRANCH  29  31
ATOM     30  C   UNL     1       7.670   2.482   0.081  0.00  0.00    +0.015 C 
ATOM     31  C   UNL     1       6.413   1.758  -0.406  0.00  0.00    +0.069 C 
ENDBRANCH  29  31
ENDBRANCH   1  29
BRANCH   1  32
ATOM     32  S   UNL     1       2.913   2.680  -1.971  0.00  0.00    -0.121 S 
BRANCH  32  33
ATOM     33  C   UNL     1       4.385   3.045  -2.966  0.00  0.00    +0.069 C 
ATOM     34  C   UNL     1       3.997   3.945  -4.141  0.00  0.00    +0.015 C 
ENDBRANCH  32  33
ENDBRANCH   1  32
TORSDOF 7
