REMARK  Name = ZINC18202391
REMARK  10 active torsions:
REMARK  status: ('A' for Active; 'I' for Inactive)
REMARK    1  A    between atoms: C_1  and  C_2
REMARK    2  A    between atoms: C_5  and  C_8
REMARK    3  A    between atoms: C_8  and  S_9
REMARK    4  A    between atoms: S_9  and  C_10
REMARK    5  A    between atoms: C_10  and  C_11
REMARK    6  A    between atoms: C_11  and  N_12
REMARK    7  A    between atoms: C_13  and  C_15
REMARK    8  A    between atoms: C_19  and  N_21
REMARK    9  A    between atoms: N_21  and  S_22
REMARK   10  A    between atoms: S_22  and  C_25
REMARK                            x       y       z     vdW  Elec       q    Type
REMARK                         _______ _______ _______ _____ _____    ______ ____
ROOT
ATOM      1  C   UNL     1       4.373   1.196  -4.540  0.00  0.00    +0.038 A 
ATOM      2  C   UNL     1       5.198   2.215  -4.060  0.00  0.00    +0.013 A 
ATOM      3  C   UNL     1       5.727   2.133  -2.789  0.00  0.00    +0.003 A 
ATOM      4  C   UNL     1       5.443   1.044  -1.986  0.00  0.00    +0.024 A 
ATOM      5  C   UNL     1       4.622   0.025  -2.454  0.00  0.00    +0.049 A 
ATOM      6  C   UNL     1       4.090   0.096  -3.732  0.00  0.00    +0.037 A 
ENDROOT
BRANCH   1   8
ATOM      7  N   UNL     1       4.083   2.345  -6.684  0.00  0.00    -0.311 N 
ATOM      8  C   UNL     1       3.805   1.282  -5.903  0.00  0.00    +0.244 C 
ATOM      9  O   UNL     1       3.086   0.394  -6.319  0.00  0.00    -0.270 OA
ATOM     10  H   UNL     1       4.657   3.053  -6.352  0.00  0.00    +0.149 HD
BRANCH   7  11
ATOM     11  C   UNL     1       3.521   2.429  -8.033  0.00  0.00    +0.115 C 
BRANCH  11  12
ATOM     12  C   UNL     1       3.989   3.724  -8.701  0.00  0.00    +0.088 C 
BRANCH  12  13
ATOM     13  S   UNL     1       3.292   3.829 -10.372  0.00  0.00    -0.155 S 
BRANCH  13  14
ATOM     14  C   UNL     1       3.934   5.398 -11.018  0.00  0.00    +0.104 C 
BRANCH  14  19
ATOM     15  C   UNL     1       1.979   6.215 -16.394  0.00  0.00    +0.044 C 
ATOM     16  C   UNL     1       2.489   6.002 -14.992  0.00  0.00    -0.050 A 
ATOM     17  C   UNL     1       1.764   6.475 -13.914  0.00  0.00    +0.003 A 
ATOM     18  C   UNL     1       2.232   6.280 -12.627  0.00  0.00    +0.005 A 
ATOM     19  C   UNL     1       3.424   5.611 -12.420  0.00  0.00    -0.038 A 
ATOM     20  C   UNL     1       4.151   5.142 -13.498  0.00  0.00    +0.005 A 
ATOM     21  C   UNL     1       3.681   5.334 -14.784  0.00  0.00    +0.003 A 
ENDBRANCH  14  19
ENDBRANCH  13  14
ENDBRANCH  12  13
ENDBRANCH  11  12
ENDBRANCH   7  11
ENDBRANCH   1   8
BRANCH   5  22
ATOM     22  N   UNL     1       4.338  -1.074  -1.639  0.00  0.00    -0.216 N 
ATOM     23  H   UNL     1       4.380  -1.972  -2.003  0.00  0.00    +0.174 HD
BRANCH  22  24
ATOM     24  S   UNL     1       3.931  -0.843  -0.050  0.00  0.00    +0.072 S 
ATOM     25  O   UNL     1       4.904   0.039   0.494  0.00  0.00    -0.150 OA
ATOM     26  O   UNL     1       3.679  -2.130   0.496  0.00  0.00    -0.150 OA
BRANCH  24  27
ATOM     27  C   UNL     1       2.397   0.024  -0.026  0.00  0.00    +0.112 A 
ATOM     28  C   UNL     1       1.207  -0.680  -0.016  0.00  0.00    +0.032 A 
ATOM     29  C   UNL     1       0.002  -0.004   0.002  0.00  0.00    +0.051 A 
ATOM     30  C   UNL     1      -0.017   1.383   0.010  0.00  0.00    +0.162 A 
ATOM     31  C   UNL     1       1.179   2.090   0.002  0.00  0.00    +0.164 A 
ATOM     32  C   UNL     1       2.386   1.406  -0.017  0.00  0.00    +0.078 A 
ATOM     33  O   UNL     1       1.184   3.451   0.018  0.00  0.00    -0.485 OA
ATOM     34  C   UNL     1      -0.040   4.103  -0.340  0.00  0.00    +0.270 C 
ATOM     35  C   UNL     1      -1.189   3.413   0.408  0.00  0.00    +0.270 C 
ATOM     36  O   UNL     1      -1.212   2.035   0.019  0.00  0.00    -0.485 OA
ENDBRANCH  24  27
ENDBRANCH  22  24
ENDBRANCH   5  22
TORSDOF 9
