REMARK  Name = ZINC36047546
REMARK  10 active torsions:
REMARK  status: ('A' for Active; 'I' for Inactive)
REMARK    1  A    between atoms: C_1  and  C_2
REMARK    2  A    between atoms: C_4  and  C_23
REMARK    3  A    between atoms: C_7  and  C_14
REMARK    4  A    between atoms: C_9  and  C_13
REMARK    5  A    between atoms: C_18  and  O_21
REMARK    6  A    between atoms: C_19  and  O_20
REMARK    7  A    between atoms: O_21  and  C_22
REMARK    8  A    between atoms: C_27  and  O_30
REMARK    9  A    between atoms: C_28  and  O_29
REMARK   10  A    between atoms: O_30  and  C_31
REMARK                            x       y       z     vdW  Elec       q    Type
REMARK                         _______ _______ _______ _____ _____    ______ ____
ROOT
ATOM      1  C   UNL     1      -0.019   1.526   0.010  0.00  0.00    +0.014 C 
ATOM      2  C   UNL     1       0.002  -0.004   0.002  0.00  0.00    +0.043 C 
ATOM      3  C   UNL     1       0.732  -0.505  -1.250  0.00  0.00    -0.026 C 
ATOM      4  N   UNL     1       2.142  -0.103  -1.187  0.00  0.00    +0.389 N 
ATOM      5  C   UNL     1       2.820  -0.803  -0.090  0.00  0.00    -0.026 C 
ATOM      6  C   UNL     1       2.251  -0.326   1.251  0.00  0.00    +0.043 C 
ATOM      7  C   UNL     1       0.747  -0.512   1.219  0.00  0.00    +0.136 C 
ATOM      8  O   UNL     1       0.163  -1.046   2.132  0.00  0.00    -0.297 OA
ATOM      9  C   UNL     1       2.850  -1.152   2.390  0.00  0.00    +0.014 C 
ATOM     10  H   UNL     1       2.594  -0.332  -2.060  0.00  0.00    -0.084 HD
ATOM     11  H   UNL     1       2.200   0.893  -1.035  0.00  0.00    -0.084 HD
ENDROOT
BRANCH   5  12
ATOM     12  C   UNL     1       4.297  -0.507  -0.142  0.00  0.00    -0.016 A 
ATOM     13  C   UNL     1       4.748   0.657  -0.735  0.00  0.00    +0.006 A 
ATOM     14  C   UNL     1       6.102   0.931  -0.784  0.00  0.00    +0.004 A 
ATOM     15  C   UNL     1       7.011   0.042  -0.241  0.00  0.00    +0.049 A 
ATOM     16  C   UNL     1       6.566  -1.126   0.354  0.00  0.00    +0.161 A 
ATOM     17  C   UNL     1       5.202  -1.400   0.409  0.00  0.00    +0.160 A 
BRANCH  17  18
ATOM     18  O   UNL     1       4.759  -2.543   0.998  0.00  0.00    -0.503 OA
ATOM     19  H   UNL     1       4.688  -3.294   0.394  0.00  0.00    +0.292 HD
ENDBRANCH  17  18
BRANCH  16  20
ATOM     20  O   UNL     1       7.458  -2.002   0.889  0.00  0.00    -0.491 OA
ATOM     21  C   UNL     1       8.841  -1.653   0.801  0.00  0.00    +0.277 C 
ENDBRANCH  16  20
ENDBRANCH   5  12
BRANCH   3  22
ATOM     22  C   UNL     1       0.093   0.094  -2.477  0.00  0.00    -0.016 A 
ATOM     23  C   UNL     1       0.677   1.181  -3.100  0.00  0.00    +0.006 A 
ATOM     24  C   UNL     1       0.094   1.732  -4.225  0.00  0.00    +0.004 A 
ATOM     25  C   UNL     1      -1.077   1.199  -4.732  0.00  0.00    +0.049 A 
ATOM     26  C   UNL     1      -1.667   0.110  -4.113  0.00  0.00    +0.161 A 
ATOM     27  C   UNL     1      -1.076  -0.449  -2.983  0.00  0.00    +0.160 A 
BRANCH  27  28
ATOM     28  O   UNL     1      -1.649  -1.522  -2.375  0.00  0.00    -0.503 OA
ATOM     29  H   UNL     1      -2.288  -1.290  -1.688  0.00  0.00    +0.292 HD
ENDBRANCH  27  28
BRANCH  26  30
ATOM     30  O   UNL     1      -2.818  -0.416  -4.611  0.00  0.00    -0.491 OA
ATOM     31  C   UNL     1      -3.364   0.205  -5.776  0.00  0.00    +0.277 C 
ENDBRANCH  26  30
ENDBRANCH   3  22
TORSDOF 6
