REMARK  Name = ZINC40581756
REMARK  9 active torsions:
REMARK  status: ('A' for Active; 'I' for Inactive)
REMARK    1  A    between atoms: C_1  and  C_2
REMARK    2  A    between atoms: C_2  and  C_3
REMARK    3  A    between atoms: C_2  and  C_4
REMARK    4  A    between atoms: C_2  and  N_5
REMARK    5  A    between atoms: C_7  and  N_26
REMARK    6  A    between atoms: C_8  and  N_12
REMARK    7  A    between atoms: N_12  and  C_13
REMARK    8  A    between atoms: C_13  and  C_14
REMARK    9  A    between atoms: C_13  and  C_20
REMARK                            x       y       z     vdW  Elec       q    Type
REMARK                         _______ _______ _______ _____ _____    ______ ____
ROOT
ATOM      1  N   UNL     1       0.688  -0.476  -1.203  0.00  0.00    -0.322 N 
ATOM      2  C   UNL     1       2.008  -0.122  -1.433  0.00  0.00    +0.155 A 
ATOM      3  C   UNL     1       2.668  -0.561  -2.578  0.00  0.00    +0.205 A 
ATOM      4  C   UNL     1       3.992  -0.177  -2.763  0.00  0.00    +0.155 A 
ATOM      5  N   UNL     1       4.577   0.590  -1.845  0.00  0.00    -0.218 NA
ATOM      6  C   UNL     1       3.919   0.984  -0.774  0.00  0.00    +0.225 A 
ATOM      7  N   UNL     1       2.663   0.647  -0.565  0.00  0.00    -0.218 NA
ATOM      8  H   UNL     1       0.218  -1.037  -1.840  0.00  0.00    +0.148 HD
ENDROOT
BRANCH   1  10
ATOM      9  C   UNL     1      -0.019   1.526   0.010  0.00  0.00    +0.031 C 
ATOM     10  C   UNL     1       0.002  -0.004   0.002  0.00  0.00    +0.025 C 
ATOM     11  C   UNL     1       0.742  -0.511   1.242  0.00  0.00    +0.031 C 
ATOM     12  C   UNL     1      -1.433  -0.534   0.013  0.00  0.00    +0.031 C 
ENDBRANCH   1  10
BRANCH   3  13
ATOM     13  N   UNL     1       1.978  -1.413  -3.572  0.00  0.00    +0.063 N 
ATOM     14  O   UNL     1       1.377  -0.905  -4.490  0.00  0.00    -0.126 OA
ATOM     15  O   UNL     1       2.015  -2.617  -3.467  0.00  0.00    -0.126 OA
ENDBRANCH   3  13
BRANCH   4  16
ATOM     16  N   UNL     1       4.693  -0.588  -3.886  0.00  0.00    -0.316 N 
ATOM     17  H   UNL     1       4.260  -1.147  -4.550  0.00  0.00    +0.148 HD
BRANCH  16  18
ATOM     18  C   UNL     1       6.087  -0.178  -4.070  0.00  0.00    +0.132 C 
BRANCH  18  19
ATOM     19  C   UNL     1       6.993  -1.132  -3.334  0.00  0.00    -0.023 A 
ATOM     20  C   UNL     1       6.726  -2.489  -3.350  0.00  0.00    +0.006 A 
ATOM     21  C   UNL     1       7.557  -3.364  -2.675  0.00  0.00    +0.000 A 
ATOM     22  C   UNL     1       8.654  -2.882  -1.984  0.00  0.00    +0.000 A 
ATOM     23  C   UNL     1       8.920  -1.526  -1.970  0.00  0.00    +0.000 A 
ATOM     24  C   UNL     1       8.092  -0.652  -2.648  0.00  0.00    +0.006 A 
ENDBRANCH  18  19
BRANCH  18  25
ATOM     25  C   UNL     1       6.426  -0.196  -5.538  0.00  0.00    -0.023 A 
ATOM     26  C   UNL     1       5.948  -1.210  -6.346  0.00  0.00    +0.006 A 
ATOM     27  C   UNL     1       6.259  -1.226  -7.693  0.00  0.00    +0.000 A 
ATOM     28  C   UNL     1       7.048  -0.228  -8.232  0.00  0.00    +0.000 A 
ATOM     29  C   UNL     1       7.526   0.787  -7.424  0.00  0.00    +0.000 A 
ATOM     30  C   UNL     1       7.211   0.806  -6.079  0.00  0.00    +0.006 A 
ENDBRANCH  18  25
ENDBRANCH  16  18
ENDBRANCH   4  16
TORSDOF 6
