REMARK  Name = ZINC44467190
REMARK  8 active torsions:
REMARK  status: ('A' for Active; 'I' for Inactive)
REMARK    1  A    between atoms: C_1  and  O_2
REMARK    2  A    between atoms: O_2  and  C_3
REMARK    3  A    between atoms: C_6  and  C_11
REMARK    4  A    between atoms: C_7  and  O_10
REMARK    5  A    between atoms: C_11  and  CA_12
REMARK    6  A    between atoms: CA_12  and  C_14
REMARK    7  A    between atoms: CA_12  and  N_16
REMARK    8  A    between atoms: C_14  and  O_15
REMARK                            x       y       z     vdW  Elec       q    Type
REMARK                         _______ _______ _______ _____ _____    ______ ____
ROOT
ATOM      1  C   UNL     1       0.606  -0.607  -1.056  0.00  0.00    +0.151 A 
ATOM      2  C   UNL     1      -0.131  -0.921  -2.190  0.00  0.00    +0.061 A 
ATOM      3  C   UNL     1       0.483  -1.535  -3.266  0.00  0.00    +0.026 A 
ATOM      4  C   UNL     1       1.831  -1.838  -3.215  0.00  0.00    -0.005 A 
ATOM      5  C   UNL     1       2.571  -1.526  -2.085  0.00  0.00    +0.137 A 
ATOM      6  C   UNL     1       1.959  -0.904  -1.006  0.00  0.00    +0.102 A 
ATOM      7 BR   UNL     1       2.968  -0.471   0.534  0.00  0.00    -0.043 Br
ATOM      8 BR   UNL     1      -1.975  -0.510  -2.263  0.00  0.00    -0.046 Br
ENDROOT
BRANCH   1  10
ATOM      9  C   UNL     1      -0.017   1.425   0.010  0.00  0.00    +0.277 C 
ATOM     10  O   UNL     1       0.002  -0.004   0.002  0.00  0.00    -0.493 OA
ENDBRANCH   1  10
BRANCH   5  11
ATOM     11  O   UNL     1       3.897  -1.823  -2.036  0.00  0.00    -0.505 OA
ATOM     12  H   UNL     1       4.471  -1.118  -2.365  0.00  0.00    +0.292 HD
ENDBRANCH   5  11
BRANCH   4  13
ATOM     13  C   UNL     1       2.496  -2.508  -4.390  0.00  0.00    +0.025 C 
BRANCH  13  14
ATOM     14  CA  UNL     1       2.521  -4.021  -4.167  0.00  0.00    -0.045 C 
BRANCH  14  15
ATOM     15  N   UNL     1       3.371  -4.332  -3.009  0.00  0.00    +0.382 N 
ATOM     16  H1  UNL     1       4.309  -4.002  -3.182  0.00  0.00    -0.090 HD
ATOM     17  H2  UNL     1       3.001  -3.877  -2.188  0.00  0.00    -0.090 HD
ATOM     18  H3  UNL     1       3.387  -5.330  -2.862  0.00  0.00    -0.090 HD
ENDBRANCH  14  15
BRANCH  14  19
ATOM     19  C   UNL     1       3.083  -4.711  -5.411  0.00  0.00    +0.140 C 
BRANCH  19  20
ATOM     20  O   UNL     1       2.998  -6.128  -5.249  0.00  0.00    -0.397 OA
ATOM     21  H   UNL     1       3.338  -6.631  -6.002  0.00  0.00    +0.209 HD
ENDBRANCH  19  20
ENDBRANCH  14  19
ENDBRANCH  13  14
ENDBRANCH   4  13
TORSDOF 7
