REMARK  Name = ZINC12386976
REMARK  7 active torsions:
REMARK  status: ('A' for Active; 'I' for Inactive)
REMARK    1  A    between atoms: C_1  and  C_2
REMARK    2  A    between atoms: C_5  and  C_8
REMARK    3  A    between atoms: C_8  and  C_13
REMARK    4  A    between atoms: C_15  and  C_18
REMARK    5  A    between atoms: C_18  and  N_65
REMARK    6  A    between atoms: C_22  and  C_25
REMARK    7  A    between atoms: C_25  and  N_26
REMARK                            x       y       z     vdW  Elec       q    Type
REMARK                         _______ _______ _______ _____ _____    ______ ____
ROOT
ATOM      1  C   UNL     1       0.620   2.758   8.053  0.00  0.00    +0.182 A 
ATOM      2  N   UNL     1       1.340   2.369   6.986  0.00  0.00    -0.197 NA
ATOM      3  C   UNL     1       1.633   3.470   6.337  0.00  0.00    +0.211 A 
ATOM      4  O   UNL     1       1.094   4.481   7.024  0.00  0.00    -0.340 OA
ATOM      5  N   UNL     1       0.515   4.052   8.000  0.00  0.00    -0.060 NA
ENDROOT
BRANCH   1   6
ATOM      6  C   UNL     1       0.043   1.859   9.116  0.00  0.00    +0.059 C 
ATOM      7  C   UNL     1      -0.990   0.899   8.492  0.00  0.00    +0.019 C 
ATOM      8  C   UNL     1      -2.096   0.779   9.570  0.00  0.00    +0.001 C 
ATOM      9  C   UNL     1      -2.177   2.218  10.139  0.00  0.00    +0.001 C 
ATOM     10  C   UNL     1      -0.711   2.698  10.163  0.00  0.00    +0.019 C 
BRANCH   6  15
ATOM     11  C   UNL     1       4.265  -1.155  11.662  0.00  0.00    +0.044 C 
ATOM     12  C   UNL     1       3.164  -0.369  10.999  0.00  0.00    -0.050 A 
ATOM     13  C   UNL     1       1.844  -0.623  11.319  0.00  0.00    +0.003 A 
ATOM     14  C   UNL     1       0.834   0.099  10.710  0.00  0.00    +0.005 A 
ATOM     15  C   UNL     1       1.144   1.073   9.781  0.00  0.00    -0.034 A 
ATOM     16  C   UNL     1       2.465   1.323   9.456  0.00  0.00    +0.005 A 
ATOM     17  C   UNL     1       3.475   0.606  10.069  0.00  0.00    +0.003 A 
ENDBRANCH   6  15
ENDBRANCH   1   6
BRANCH   3  18
ATOM     18  C   UNL     1       2.430   3.575   5.062  0.00  0.00    +0.022 C 
BRANCH  18  24
ATOM     19  C   UNL     1       0.624   4.642   3.854  0.00  0.00    -0.078 C 
ATOM     20  C   UNL     1      -0.202   4.587   2.567  0.00  0.00    -0.018 C 
ATOM     21  C   UNL     1      -1.010   3.287   2.540  0.00  0.00    +0.001 C 
ATOM     22  C   UNL     1      -0.052   2.098   2.647  0.00  0.00    -0.010 C 
ATOM     23  C   UNL     1       0.769   2.224   3.932  0.00  0.00    -0.073 C 
ATOM     24  N   UNL     1       1.542   3.484   3.885  0.00  0.00    +0.386 N 
ATOM     25  H   UNL     1       2.116   3.491   3.033  0.00  0.00    -0.081 HD
BRANCH  22  26
ATOM     26  C   UNL     1      -0.856   0.796   2.680  0.00  0.00    +0.109 C 
BRANCH  26  27
ATOM     27  N   UNL     1      -1.552   0.619   1.403  0.00  0.00    -0.301 N 
ATOM     28  C   UNL     1      -0.989  -0.083   0.244  0.00  0.00    +0.108 C 
ATOM     29  C   UNL     1      -1.852   0.351  -0.962  0.00  0.00    +0.028 C 
ATOM     30  C   UNL     1      -3.187   0.725  -0.276  0.00  0.00    +0.097 C 
ATOM     31  C   UNL     1      -2.790   1.078   1.140  0.00  0.00    +0.216 C 
ATOM     32  O   UNL     1      -3.485   1.687   1.925  0.00  0.00    -0.276 OA
ENDBRANCH  26  27
ENDBRANCH  22  26
ENDBRANCH  18  24
ENDBRANCH   3  18
TORSDOF 6
