REMARK  Name = ZINC59121780
REMARK  9 active torsions:
REMARK  status: ('A' for Active; 'I' for Inactive)
REMARK    1  A    between atoms: C_1  and  C_2
REMARK    2  A    between atoms: C_2  and  C_3
REMARK    3  A    between atoms: C_3  and  N_4
REMARK    4  A    between atoms: N_4  and  C_5
REMARK    5  A    between atoms: N_4  and  C_17
REMARK    6  A    between atoms: C_5  and  C_6
REMARK    7  A    between atoms: C_11  and  C_16
REMARK    8  A    between atoms: C_17  and  C_19
REMARK    9  A    between atoms: C_17  and  C_20
REMARK                            x       y       z     vdW  Elec       q    Type
REMARK                         _______ _______ _______ _____ _____    ______ ____
ROOT
ATOM      1  N   UNL     1      -1.319  -1.629  -0.252  0.00  0.00    -0.290 NA
ENDROOT
BRANCH   1   2
ATOM      2  C   UNL     1      -0.794  -2.407  -1.382  0.00  0.00    +0.085 C 
ATOM      3  C   UNL     1      -1.572  -3.719  -1.503  0.00  0.00    +0.029 C 
BRANCH   2   4
ATOM      4  C   UNL     1       0.664  -2.707  -1.151  0.00  0.00    -0.017 A 
ATOM      5  C   UNL     1       1.119  -2.987   0.124  0.00  0.00    +0.006 A 
ATOM      6  C   UNL     1       2.457  -3.263   0.335  0.00  0.00    +0.000 A 
ATOM      7  C   UNL     1       3.341  -3.259  -0.728  0.00  0.00    +0.001 A 
ATOM      8  C   UNL     1       2.887  -2.979  -2.003  0.00  0.00    +0.015 A 
ATOM      9  C   UNL     1       1.547  -2.708  -2.216  0.00  0.00    +0.023 A 
ATOM     10 BR   UNL     1       0.924  -2.332  -3.961  0.00  0.00    -0.050 Br
ENDBRANCH   2   4
ENDBRANCH   1   2
BRANCH   1  11
ATOM     11  C   UNL     1      -0.904  -0.223  -0.342  0.00  0.00    +0.085 C 
BRANCH  11  13
ATOM     12  C   UNL     1       0.997   1.360   0.009  0.00  0.00    +0.005 C 
ATOM     13  C   UNL     1       0.595  -0.115  -0.054  0.00  0.00    +0.012 C 
ENDBRANCH  11  13
ENDBRANCH   1  11
BRANCH   1  14
ATOM     14  C   UNL     1      -2.782  -1.742  -0.169  0.00  0.00    +0.138 C 
BRANCH  14  15
ATOM     15  C   UNL     1      -3.259  -1.143   1.129  0.00  0.00    +0.037 A 
ATOM     16  C   UNL     1      -4.060  -0.021   1.131  0.00  0.00    +0.093 A 
ATOM     17  C   UNL     1      -4.492   0.519   2.343  0.00  0.00    +0.259 A 
ATOM     18  O   UNL     1      -5.202   1.512   2.351  0.00  0.00    -0.267 OA
ATOM     19  N   UNL     1      -4.121  -0.066   3.521  0.00  0.00    -0.261 N 
ATOM     20  C   UNL     1      -4.464   0.345   4.787  0.00  0.00    +0.033 A 
ATOM     21  C   UNL     1      -4.035  -0.313   5.864  0.00  0.00    +0.070 A 
ATOM     22  S   UNL     1      -3.070  -1.625   5.130  0.00  0.00    -0.059 S 
ATOM     23  C   UNL     1      -3.324  -1.176   3.427  0.00  0.00    +0.158 A 
ATOM     24  N   UNL     1      -2.919  -1.691   2.293  0.00  0.00    -0.337 N 
ATOM     25  C   UNL     1      -5.338   1.560   4.960  0.00  0.00    +0.064 C 
ATOM     26  H   UNL     1      -2.359  -2.483   2.302  0.00  0.00    +0.168 HD
ENDBRANCH  14  15
ENDBRANCH   1  14
TORSDOF 6
