REMARK  Name = ZINC22682584
REMARK  10 active torsions:
REMARK  status: ('A' for Active; 'I' for Inactive)
REMARK    1  A    between atoms: C_1  and  N_2
REMARK    2  A    between atoms: N_2  and  C_3
REMARK    3  A    between atoms: N_2  and  C_4
REMARK    4  A    between atoms: C_4  and  C_6
REMARK    5  A    between atoms: C_4  and  C_30
REMARK    6  A    between atoms: C_6  and  N_7
REMARK    7  A    between atoms: C_8  and  C_10
REMARK    8  A    between atoms: C_14  and  N_16
REMARK    9  A    between atoms: N_16  and  S_17
REMARK   10  A    between atoms: S_17  and  C_20
REMARK                            x       y       z     vdW  Elec       q    Type
REMARK                         _______ _______ _______ _____ _____    ______ ____
ROOT
ATOM      1  C   UNL     1       5.315   1.583  -4.271  0.00  0.00    +0.038 A 
ATOM      2  C   UNL     1       5.541   2.875  -3.793  0.00  0.00    +0.013 A 
ATOM      3  C   UNL     1       5.953   3.067  -2.490  0.00  0.00    +0.003 A 
ATOM      4  C   UNL     1       6.144   1.983  -1.654  0.00  0.00    +0.024 A 
ATOM      5  C   UNL     1       5.922   0.693  -2.119  0.00  0.00    +0.049 A 
ATOM      6  C   UNL     1       5.513   0.489  -3.429  0.00  0.00    +0.037 A 
ENDROOT
BRANCH   1   8
ATOM      7  N   UNL     1       4.687   2.433  -6.480  0.00  0.00    -0.313 N 
ATOM      8  C   UNL     1       4.873   1.374  -5.666  0.00  0.00    +0.244 C 
ATOM      9  O   UNL     1       4.676   0.248  -6.080  0.00  0.00    -0.270 OA
ATOM     10  H   UNL     1       4.865   3.452  -6.105  0.00  0.00    +0.149 HD
BRANCH   7  11
ATOM     11  C   UNL     1       4.250   2.226  -7.862  0.00  0.00    +0.094 C 
BRANCH  11  12
ATOM     12  C   UNL     1       4.117   3.580  -8.563  0.00  0.00    -0.021 C 
BRANCH  12  13
ATOM     13  C   UNL     1       3.550   3.377  -9.944  0.00  0.00    -0.057 A 
ATOM     14  C   UNL     1       2.426   2.591 -10.122  0.00  0.00    +0.002 A 
ATOM     15  C   UNL     1       1.905   2.404 -11.388  0.00  0.00    +0.003 A 
ATOM     16  C   UNL     1       2.507   3.003 -12.479  0.00  0.00    +0.038 A 
ATOM     17  C   UNL     1       3.632   3.790 -12.303  0.00  0.00    +0.124 A 
ATOM     18  C   UNL     1       4.150   3.981 -11.033  0.00  0.00    +0.040 A 
ATOM     19  F   UNL     1       4.221   4.376 -13.368  0.00  0.00    -0.205 F 
ENDBRANCH  12  13
BRANCH  12  21
ATOM     20  C   UNL     1       3.211   5.813  -8.328  0.00  0.00    -0.096 C 
ATOM     21  N   UNL     1       3.220   4.447  -7.788  0.00  0.00    +0.382 N 
ATOM     22  C   UNL     1       1.861   3.891  -7.741  0.00  0.00    -0.096 C 
ATOM     23  H   UNL     1       3.602   4.493  -6.757  0.00  0.00    -0.082 HD
ENDBRANCH  12  21
ENDBRANCH  11  12
ENDBRANCH   7  11
ENDBRANCH   1   8
BRANCH   5  24
ATOM     24  N   UNL     1       6.116  -0.400  -1.270  0.00  0.00    -0.216 N 
ATOM     25  H   UNL     1       6.657  -1.287  -1.631  0.00  0.00    +0.174 HD
BRANCH  24  26
ATOM     26  S   UNL     1       5.533  -0.358   0.279  0.00  0.00    +0.072 S 
ATOM     27  O   UNL     1       5.947   0.882   0.836  0.00  0.00    -0.150 OA
ATOM     28  O   UNL     1       5.862  -1.607   0.871  0.00  0.00    -0.150 OA
BRANCH  26  29
ATOM     29  C   UNL     1       3.775  -0.300   0.172  0.00  0.00    +0.112 A 
ATOM     30  C   UNL     1       3.046  -1.474   0.147  0.00  0.00    +0.032 A 
ATOM     31  C   UNL     1       1.667  -1.432   0.062  0.00  0.00    +0.051 A 
ATOM     32  C   UNL     1       1.011  -0.211   0.002  0.00  0.00    +0.162 A 
ATOM     33  C   UNL     1       1.744   0.969   0.030  0.00  0.00    +0.164 A 
ATOM     34  C   UNL     1       3.127   0.920   0.114  0.00  0.00    +0.078 A 
ATOM     35  O   UNL     1       1.120   2.178  -0.020  0.00  0.00    -0.485 OA
ATOM     36  C   UNL     1      -0.236   2.183  -0.479  0.00  0.00    +0.270 C 
ATOM     37  C   UNL     1      -0.990   1.052   0.233  0.00  0.00    +0.270 C 
ATOM     38  O   UNL     1      -0.347  -0.186  -0.090  0.00  0.00    -0.485 OA
ENDBRANCH  26  29
ENDBRANCH  24  26
ENDBRANCH   5  24
TORSDOF 8
