REMARK  Name = ZINC13581642
REMARK  6 active torsions:
REMARK  status: ('A' for Active; 'I' for Inactive)
REMARK    1  A    between atoms: C_5  and  C_7
REMARK    2  A    between atoms: C_7  and  C_8
REMARK    3  A    between atoms: C_11  and  O_30
REMARK    4  A    between atoms: C_12  and  C_14
REMARK    5  A    between atoms: N_15  and  N_16
REMARK    6  A    between atoms: C_17  and  C_19
REMARK                            x       y       z     vdW  Elec       q    Type
REMARK                         _______ _______ _______ _____ _____    ______ ____
ROOT
ATOM      1  C   UNL     1      -6.348  10.162   2.174  0.00  0.00    -0.042 A 
ATOM      2  C   UNL     1      -6.282   8.840   2.580  0.00  0.00    +0.007 A 
ATOM      3  C   UNL     1      -5.171   8.072   2.285  0.00  0.00    +0.046 A 
ATOM      4  C   UNL     1      -4.114   8.623   1.579  0.00  0.00    +0.125 A 
ATOM      5  C   UNL     1      -4.176   9.961   1.167  0.00  0.00    +0.036 A 
ATOM      6  C   UNL     1      -5.301  10.728   1.476  0.00  0.00    +0.017 A 
ENDROOT
BRANCH   5   7
ATOM      7  C   UNL     1      -3.057  10.557   0.416  0.00  0.00    +0.142 C 
ATOM      8  N   UNL     1      -2.825  11.832   0.499  0.00  0.00    -0.187 NA
BRANCH   8   9
ATOM      9  N   UNL     1      -3.492  12.604   1.460  0.00  0.00    -0.204 N 
ATOM     10  C   UNL     1      -3.338  13.943   1.473  0.00  0.00    +0.276 C 
ATOM     11  O   UNL     1      -2.688  14.488   0.606  0.00  0.00    -0.270 OA
ATOM     12  H   UNL     1      -4.064  12.174   2.115  0.00  0.00    +0.177 HD
BRANCH  10  13
ATOM     13  C   UNL     1      -3.974  14.763   2.566  0.00  0.00    +0.297 C 
ATOM     14  C   UNL     1      -3.394  14.352   3.926  0.00  0.00    +0.283 C 
ATOM     15  O   UNL     1      -4.009  15.158   4.937  0.00  0.00    -0.484 OA
ATOM     16  C   UNL     1      -4.088  16.494   4.689  0.00  0.00    +0.162 A 
ATOM     17  C   UNL     1      -4.322  17.369   5.740  0.00  0.00    +0.049 A 
ATOM     18  C   UNL     1      -4.414  18.727   5.503  0.00  0.00    +0.004 A 
ATOM     19  C   UNL     1      -4.262  19.219   4.220  0.00  0.00    +0.004 A 
ATOM     20  C   UNL     1      -4.022  18.354   3.170  0.00  0.00    +0.049 A 
ATOM     21  C   UNL     1      -3.933  16.989   3.400  0.00  0.00    +0.163 A 
ATOM     22  O   UNL     1      -3.689  16.150   2.357  0.00  0.00    -0.472 OA
ENDBRANCH  10  13
ENDBRANCH   8   9
ENDBRANCH   5   7
BRANCH   4  23
ATOM     23  O   UNL     1      -3.021   7.870   1.290  0.00  0.00    -0.506 OA
ATOM     24  H   UNL     1      -2.363   7.843   1.998  0.00  0.00    +0.292 HD
ENDBRANCH   4  23
BRANCH   1  25
ATOM     25  C   UNL     1      -7.565  10.988   2.502  0.00  0.00    +0.071 C 
BRANCH  25  30
ATOM     26  C   UNL     1      -6.762  13.857   4.821  0.00  0.00    +0.000 A 
ATOM     27  C   UNL     1      -6.841  13.243   6.057  0.00  0.00    +0.001 A 
ATOM     28  C   UNL     1      -7.153  11.900   6.144  0.00  0.00    +0.020 A 
ATOM     29  C   UNL     1      -7.393  11.170   4.993  0.00  0.00    +0.044 A 
ATOM     30  C   UNL     1      -7.309  11.783   3.756  0.00  0.00    -0.025 A 
ATOM     31  C   UNL     1      -6.996  13.127   3.670  0.00  0.00    +0.005 A 
ATOM     32 CL   UNL     1      -7.793   9.485   5.101  0.00  0.00    -0.083 Cl
ENDBRANCH  25  30
ENDBRANCH   1  25
TORSDOF 6
