REMARK  Name = ZINC13095784
REMARK  10 active torsions:
REMARK  status: ('A' for Active; 'I' for Inactive)
REMARK    1  A    between atoms: C_1  and  C_2
REMARK    2  A    between atoms: C_5  and  C_8
REMARK    3  A    between atoms: C_9  and  C_19
REMARK    4  A    between atoms: N_11  and  C_13
REMARK    5  A    between atoms: C_20  and  C_21
REMARK    6  A    between atoms: C_21  and  O_23
REMARK    7  A    between atoms: O_23  and  C_24
REMARK    8  A    between atoms: C_24  and  C_25
REMARK    9  A    between atoms: N_27  and  C_28
REMARK   10  A    between atoms: N_27  and  C_29
REMARK                            x       y       z     vdW  Elec       q    Type
REMARK                         _______ _______ _______ _____ _____    ______ ____
ROOT
ATOM      1  C   UNL     1      -2.635   1.196   0.015  0.00  0.00    +0.100 A 
ATOM      2  C   UNL     1      -1.293   1.792   0.018  0.00  0.00    +0.021 A 
ATOM      3  C   UNL     1      -1.476   3.162   0.026  0.00  0.00    +0.123 A 
ATOM      4  N   UNL     1      -2.800   3.400   0.033  0.00  0.00    -0.239 N 
ATOM      5  N   UNL     1      -3.496   2.188   0.030  0.00  0.00    -0.166 NA
ENDROOT
BRANCH   1  10
ATOM      6  C   UNL     1      -3.885  -4.424  -0.036  0.00  0.00    +0.044 C 
ATOM      7  C   UNL     1      -3.558  -2.953  -0.022  0.00  0.00    -0.050 A 
ATOM      8  C   UNL     1      -4.366  -2.074   0.676  0.00  0.00    +0.004 A 
ATOM      9  C   UNL     1      -4.071  -0.726   0.692  0.00  0.00    +0.010 A 
ATOM     10  C   UNL     1      -2.956  -0.251   0.002  0.00  0.00    +0.003 A 
ATOM     11  C   UNL     1      -2.149  -1.141  -0.705  0.00  0.00    +0.010 A 
ATOM     12  C   UNL     1      -2.450  -2.487  -0.709  0.00  0.00    +0.004 A 
ENDBRANCH   1  10
BRANCH   4  13
ATOM     13  C   UNL     1      -3.392   4.670   0.042  0.00  0.00    +0.065 A 
ATOM     14  C   UNL     1      -2.596   5.808   0.049  0.00  0.00    +0.028 A 
ATOM     15  C   UNL     1      -3.182   7.059   0.052  0.00  0.00    +0.002 A 
ATOM     16  C   UNL     1      -4.560   7.178   0.059  0.00  0.00    +0.000 A 
ATOM     17  C   UNL     1      -5.355   6.047   0.057  0.00  0.00    +0.002 A 
ATOM     18  C   UNL     1      -4.775   4.793   0.049  0.00  0.00    +0.028 A 
ENDBRANCH   4  13
BRANCH   2  19
ATOM     19  C   UNL     1      -0.013   1.076   0.008  0.00  0.00    +0.018 C 
ATOM     20  C   UNL     1       1.150   1.768   0.001  0.00  0.00    +0.092 C 
BRANCH  20  21
ATOM     21  C   UNL     1       2.385   1.077  -0.015  0.00  0.00    +0.332 C 
ATOM     22  O   UNL     1       2.401  -0.140  -0.022  0.00  0.00    -0.246 OA
BRANCH  21  23
ATOM     23  O   UNL     1       3.544   1.768  -0.022  0.00  0.00    -0.452 OA
BRANCH  23  24
ATOM     24  C   UNL     1       4.753   1.006  -0.038  0.00  0.00    +0.328 C 
BRANCH  24  25
ATOM     25  C   UNL     1       5.936   1.940  -0.044  0.00  0.00    +0.253 C 
ATOM     26  O   UNL     1       5.760   3.140  -0.036  0.00  0.00    -0.272 OA
ATOM     27  N   UNL     1       7.188   1.442  -0.059  0.00  0.00    -0.297 N 
ATOM     28  C   UNL     1       7.399  -0.008  -0.069  0.00  0.00    +0.132 C 
BRANCH  27  29
ATOM     29  C   UNL     1       8.337   2.350  -0.065  0.00  0.00    +0.098 C 
ATOM     30  C   UNL     1       9.205   2.098   1.179  0.00  0.00    +0.046 C 
ATOM     31  C   UNL     1      10.569   2.812   1.025  0.00  0.00    +0.168 C 
ATOM     32  S   UNL     1      10.802   2.847  -0.799  0.00  0.00    -0.029 S 
ATOM     33  O   UNL     1      10.834   4.199  -1.235  0.00  0.00    -0.174 OA
ATOM     34  O   UNL     1      11.870   1.975  -1.146  0.00  0.00    -0.174 OA
ATOM     35  C   UNL     1       9.210   2.085  -1.325  0.00  0.00    +0.188 C 
ENDBRANCH  27  29
ENDBRANCH  24  25
ENDBRANCH  23  24
ENDBRANCH  21  23
ENDBRANCH  20  21
ENDBRANCH   2  19
TORSDOF 8
