REMARK  Name = ZINC14720210
REMARK  18 active torsions:
REMARK  status: ('A' for Active; 'I' for Inactive)
REMARK    1  A    between atoms: C_1  and  C_2
REMARK    2  A    between atoms: C_2  and  C_3
REMARK    3  A    between atoms: C_3  and  C_4
REMARK    4  A    between atoms: C_4  and  N_5
REMARK    5  A    between atoms: N_5  and  C_6
REMARK    6  A    between atoms: C_7  and  N_19
REMARK    7  A    between atoms: N_8  and  C_15
REMARK    8  A    between atoms: C_15  and  C_16
REMARK    9  A    between atoms: C_16  and  C_17
REMARK   10  A    between atoms: C_16  and  C_18
REMARK   11  A    between atoms: C_20  and  C_22
REMARK   12  A    between atoms: C_24  and  O_34
REMARK   13  A    between atoms: C_25  and  O_29
REMARK   14  A    between atoms: O_29  and  C_30
REMARK   15  A    between atoms: C_30  and  C_31
REMARK   16  A    between atoms: C_31  and  C_32
REMARK   17  A    between atoms: C_31  and  C_33
REMARK   18  A    between atoms: O_34  and  C_35
REMARK                            x       y       z     vdW  Elec       q    Type
REMARK                         _______ _______ _______ _____ _____    ______ ____
ROOT
ATOM      1  N   UNL     1       1.077  -0.944   6.477  0.00  0.00    -0.260 N 
ATOM      2  C   UNL     1       1.849   0.012   5.925  0.00  0.00    +0.251 C 
ATOM      3  O   UNL     1       1.618   0.405   4.797  0.00  0.00    -0.270 OA
ENDROOT
BRANCH   1   4
ATOM      4  C   UNL     1       1.308  -1.356   7.806  0.00  0.00    +0.140 A 
ATOM      5  C   UNL     1       1.171  -0.465   8.851  0.00  0.00    +0.127 A 
ATOM      6  N   UNL     1       1.402  -0.897  10.136  0.00  0.00    -0.280 N 
ATOM      7  C   UNL     1       1.757  -2.173  10.372  0.00  0.00    +0.331 A 
ATOM      8  O   UNL     1       1.957  -2.536  11.516  0.00  0.00    -0.246 OA
ATOM      9  N   UNL     1       1.895  -3.055   9.367  0.00  0.00    -0.273 N 
ATOM     10  H   UNL     1       2.164  -3.997   9.569  0.00  0.00    +0.173 HD
ATOM     11  C   UNL     1       1.675  -2.685   8.090  0.00  0.00    +0.277 A 
ATOM     12  O   UNL     1       1.798  -3.494   7.186  0.00  0.00    -0.266 OA
BRANCH   5  13
ATOM     13  N   UNL     1       0.808   0.839   8.610  0.00  0.00    -0.343 N 
ATOM     14  H   UNL     1       0.562   1.116   7.714  0.00  0.00    +0.144 HD
ATOM     15  H   UNL     1       0.799   1.481   9.337  0.00  0.00    +0.144 HD
ENDBRANCH   5  13
BRANCH   6  16
ATOM     16  C   UNL     1       1.261   0.038  11.255  0.00  0.00    +0.131 C 
BRANCH  16  17
ATOM     17  C   UNL     1      -0.178  -0.000  11.773  0.00  0.00    +0.003 C 
ATOM     18  C   UNL     1      -0.296   0.881  13.018  0.00  0.00    +0.009 C 
ATOM     19  C   UNL     1      -1.124   0.520  10.688  0.00  0.00    +0.009 C 
ENDBRANCH  16  17
ENDBRANCH   6  16
ENDBRANCH   1   4
BRANCH   2  20
ATOM     20  C   UNL     1       2.977   0.583   6.688  0.00  0.00    +0.042 A 
ATOM     21  C   UNL     1       3.458   1.858   6.378  0.00  0.00    +0.062 A 
ATOM     22  C   UNL     1       4.513   2.388   7.095  0.00  0.00    +0.164 A 
ATOM     23  C   UNL     1       5.095   1.652   8.125  0.00  0.00    +0.180 A 
ATOM     24  C   UNL     1       4.621   0.383   8.430  0.00  0.00    +0.087 A 
ATOM     25  C   UNL     1       3.564  -0.150   7.721  0.00  0.00    +0.037 A 
ATOM     26 CL   UNL     1       5.355  -0.532   9.710  0.00  0.00    -0.080 Cl
BRANCH  22  27
ATOM     27  O   UNL     1       4.983   3.629   6.795  0.00  0.00    -0.491 OA
ATOM     28  C   UNL     1       4.339   4.327   5.728  0.00  0.00    +0.277 C 
ENDBRANCH  22  27
BRANCH  23  29
ATOM     29  O   UNL     1       6.133   2.175   8.829  0.00  0.00    -0.487 OA
BRANCH  29  30
ATOM     30  C   UNL     1       5.808   2.936   9.994  0.00  0.00    +0.232 C 
BRANCH  30  31
ATOM     31  C   UNL     1       7.096   3.439  10.650  0.00  0.00    +0.020 C 
ATOM     32  C   UNL     1       6.746   4.356  11.824  0.00  0.00    +0.010 C 
ATOM     33  C   UNL     1       7.909   2.247  11.158  0.00  0.00    +0.010 C 
ENDBRANCH  30  31
ENDBRANCH  29  30
ENDBRANCH  23  29
ENDBRANCH   2  20
BRANCH   1  34
ATOM     34  C   UNL     1      -0.002  -1.555   5.697  0.00  0.00    +0.114 C 
BRANCH  34  35
ATOM     35  C   UNL     1       0.571  -2.670   4.820  0.00  0.00    +0.019 C 
BRANCH  35  37
ATOM     36  C   UNL     1       0.031  -4.369   3.070  0.00  0.00    +0.004 C 
ATOM     37  C   UNL     1      -0.541  -3.254   3.947  0.00  0.00    -0.002 C 
ENDBRANCH  35  37
ENDBRANCH  34  35
ENDBRANCH   1  34
TORSDOF 12
