REMARK  Name = ZINC38905156
REMARK  7 active torsions:
REMARK  status: ('A' for Active; 'I' for Inactive)
REMARK    1  A    between atoms: C_1  and  C_2
REMARK    2  A    between atoms: C_2  and  O_3
REMARK    3  A    between atoms: O_3  and  C_4
REMARK    4  A    between atoms: C_12  and  C_14
REMARK    5  A    between atoms: N_19  and  C_21
REMARK    6  A    between atoms: C_21  and  C_22
REMARK    7  A    between atoms: C_24  and  C_27
REMARK                            x       y       z     vdW  Elec       q    Type
REMARK                         _______ _______ _______ _____ _____    ______ ____
ROOT
ATOM      1  C   UNL     1       4.395  -5.193  -5.032  0.00  0.00    +0.059 C 
ATOM      2  C   UNL     1       5.140  -5.712  -3.798  0.00  0.00    +0.009 C 
ATOM      3  C   UNL     1       5.420  -7.208  -3.974  0.00  0.00    -0.018 C 
ATOM      4  C   UNL     1       6.213  -7.424  -5.265  0.00  0.00    -0.078 C 
ATOM      5  N   UNL     1       5.437  -6.932  -6.409  0.00  0.00    +0.386 N 
ATOM      6  C   UNL     1       5.226  -5.485  -6.283  0.00  0.00    -0.065 C 
ATOM      7  H   UNL     1       4.543  -7.400  -6.434  0.00  0.00    -0.081 HD
ENDROOT
BRANCH   1  16
ATOM      8  C   UNL     1      -0.427  -1.829  -3.111  0.00  0.00    +0.403 C 
ATOM      9  O   UNL     1      -1.228  -2.599  -2.620  0.00  0.00    -0.226 OA
ATOM     10  N   UNL     1       0.605  -2.302  -3.838  0.00  0.00    -0.264 N 
ATOM     11  C   UNL     1       1.584  -1.382  -4.434  0.00  0.00    +0.130 C 
ATOM     12  C   UNL     1       2.986  -1.789  -3.964  0.00  0.00    +0.127 C 
ATOM     13  N   UNL     1       3.152  -3.234  -4.176  0.00  0.00    -0.298 N 
ATOM     14  C   UNL     1       2.172  -4.154  -3.581  0.00  0.00    +0.127 C 
ATOM     15  C   UNL     1       0.773  -3.747  -4.045  0.00  0.00    +0.130 C 
ATOM     16  C   UNL     1       4.183  -3.707  -4.903  0.00  0.00    +0.217 C 
ATOM     17  O   UNL     1       4.941  -2.937  -5.454  0.00  0.00    -0.275 OA
BRANCH   8  18
ATOM     18  O   UNL     1      -0.570  -0.502  -2.929  0.00  0.00    -0.451 OA
BRANCH  18  20
ATOM     19  C   UNL     1      -1.682   1.456  -2.052  0.00  0.00    +0.048 C 
ATOM     20  C   UNL     1      -1.686  -0.071  -2.148  0.00  0.00    +0.230 C 
ENDBRANCH  18  20
ENDBRANCH   8  18
ENDBRANCH   1  16
BRANCH   5  21
ATOM     21  C   UNL     1       6.168  -7.212  -7.652  0.00  0.00    +0.022 C 
BRANCH  21  22
ATOM     22  C   UNL     1       6.269  -8.703  -7.850  0.00  0.00    +0.211 A 
ATOM     23  N   UNL     1       5.413  -9.445  -8.492  0.00  0.00    -0.193 NA
ATOM     24  C   UNL     1       5.814 -10.729  -8.475  0.00  0.00    +0.202 A 
ATOM     25  N   UNL     1       6.941 -10.808  -7.813  0.00  0.00    -0.056 NA
ATOM     26  O   UNL     1       7.258  -9.486  -7.400  0.00  0.00    -0.340 OA
BRANCH  24  27
ATOM     27  C   UNL     1       5.097 -11.868  -9.101  0.00  0.00    +0.023 A 
ATOM     28  C   UNL     1       3.902 -11.651  -9.785  0.00  0.00    +0.013 A 
ATOM     29  C   UNL     1       3.240 -12.713 -10.366  0.00  0.00    +0.016 A 
ATOM     30  C   UNL     1       3.759 -13.992 -10.270  0.00  0.00    +0.018 A 
ATOM     31  C   UNL     1       4.945 -14.213  -9.591  0.00  0.00    +0.016 A 
ATOM     32  C   UNL     1       5.619 -13.157  -9.013  0.00  0.00    +0.013 A 
ATOM     33 BR   UNL     1       2.846 -15.443 -11.068  0.00  0.00    -0.050 Br
ENDBRANCH  24  27
ENDBRANCH  21  22
ENDBRANCH   5  21
TORSDOF 6
