REMARK  Name = ZINC12363041
REMARK  7 active torsions:
REMARK  status: ('A' for Active; 'I' for Inactive)
REMARK    1  A    between atoms: C_3  and  O_20
REMARK    2  A    between atoms: C_6  and  C_7
REMARK    3  A    between atoms: N_8  and  N_9
REMARK    4  A    between atoms: C_10  and  C_12
REMARK    5  A    between atoms: C_16  and  O_18
REMARK    6  A    between atoms: O_20  and  C_21
REMARK    7  A    between atoms: C_24  and  N_27
REMARK                            x       y       z     vdW  Elec       q    Type
REMARK                         _______ _______ _______ _____ _____    ______ ____
ROOT
ATOM      1  C   UNL     1      -5.524   7.611   0.042  0.00  0.00    +0.013 A 
ATOM      2  C   UNL     1      -5.707   6.245   0.070  0.00  0.00    +0.047 A 
ATOM      3  C   UNL     1      -4.610   5.394   0.022  0.00  0.00    +0.130 A 
ATOM      4  C   UNL     1      -3.324   5.915  -0.048  0.00  0.00    +0.047 A 
ATOM      5  C   UNL     1      -3.132   7.279  -0.081  0.00  0.00    +0.013 A 
ATOM      6  C   UNL     1      -4.232   8.139  -0.034  0.00  0.00    -0.005 A 
ENDROOT
BRANCH   6   7
ATOM      7  C   UNL     1      -4.031   9.599  -0.064  0.00  0.00    +0.138 C 
ATOM      8  N   UNL     1      -2.831  10.088  -0.135  0.00  0.00    -0.187 NA
BRANCH   8   9
ATOM      9  N   UNL     1      -2.640  11.475  -0.163  0.00  0.00    -0.203 N 
ATOM     10  C   UNL     1      -1.393  11.982  -0.237  0.00  0.00    +0.263 C 
ATOM     11  O   UNL     1      -0.434  11.236  -0.278  0.00  0.00    -0.268 OA
ATOM     12  H   UNL     1      -3.405  12.071  -0.130  0.00  0.00    +0.178 HD
BRANCH  10  13
ATOM     13  C   UNL     1      -1.192  13.446  -0.267  0.00  0.00    +0.042 A 
ATOM     14  C   UNL     1      -2.292  14.306  -0.225  0.00  0.00    +0.014 A 
ATOM     15  C   UNL     1      -2.100  15.671  -0.247  0.00  0.00    +0.019 A 
ATOM     16  C   UNL     1      -0.821  16.194  -0.323  0.00  0.00    +0.055 A 
ATOM     17  C   UNL     1       0.279  15.346  -0.371  0.00  0.00    +0.131 A 
ATOM     18  C   UNL     1       0.098  13.974  -0.343  0.00  0.00    +0.059 A 
ATOM     19  I   UNL     1      -0.541  18.269  -0.365  0.00  0.00    -0.040 I 
BRANCH  17  20
ATOM     20  O   UNL     1       1.533  15.864  -0.445  0.00  0.00    -0.506 OA
ATOM     21  H   UNL     1       1.849  16.003  -1.348  0.00  0.00    +0.292 HD
ENDBRANCH  17  20
ENDBRANCH  10  13
ENDBRANCH   8   9
ENDBRANCH   6   7
BRANCH   3  22
ATOM     22  O   UNL     1      -4.795   4.049   0.049  0.00  0.00    -0.438 OA
BRANCH  22  23
ATOM     23  C   UNL     1      -5.213   3.440  -1.090  0.00  0.00    +0.221 A 
ATOM     24  C   UNL     1      -5.317   2.055  -1.132  0.00  0.00    +0.070 A 
ATOM     25  C   UNL     1      -5.744   1.447  -2.299  0.00  0.00    +0.039 A 
ATOM     26  C   UNL     1      -6.053   2.250  -3.389  0.00  0.00    +0.144 A 
ATOM     27  C   UNL     1      -5.922   3.620  -3.278  0.00  0.00    +0.147 A 
ATOM     28  N   UNL     1      -5.517   4.171  -2.149  0.00  0.00    -0.219 NA
BRANCH  26  29
ATOM     29  N   UNL     1      -6.513   1.643  -4.658  0.00  0.00    +0.058 N 
ATOM     30  O   UNL     1      -6.622   0.433  -4.750  0.00  0.00    -0.126 OA
ATOM     31  O   UNL     1      -6.788   2.353  -5.609  0.00  0.00    -0.126 OA
ENDBRANCH  26  29
ENDBRANCH  22  23
ENDBRANCH   3  22
TORSDOF 7
