REMARK  Name = ZINC09532249
REMARK  8 active torsions:
REMARK  status: ('A' for Active; 'I' for Inactive)
REMARK    1  A    between atoms: C_1  and  C_2
REMARK    2  A    between atoms: C_2  and  C_27
REMARK    3  A    between atoms: N_5  and  N_9
REMARK    4  A    between atoms: C_10  and  C_12
REMARK    5  A    between atoms: C_12  and  S_13
REMARK    6  A    between atoms: S_13  and  C_14
REMARK    7  A    between atoms: C_17  and  C_20
REMARK    8  A    between atoms: N_18  and  C_19
REMARK                            x       y       z     vdW  Elec       q    Type
REMARK                         _______ _______ _______ _____ _____    ______ ____
ROOT
ATOM      1  N   UNL     1      -2.176   1.304  -0.213  0.00  0.00    -0.223 N 
ATOM      2  C   UNL     1      -2.373   1.972   0.941  0.00  0.00    +0.240 C 
ATOM      3  O   UNL     1      -1.705   1.704   1.918  0.00  0.00    -0.273 OA
ATOM      4  H   UNL     1      -2.710   1.519  -0.994  0.00  0.00    +0.174 HD
ENDROOT
BRANCH   1   9
ATOM      5  C   UNL     1      -0.034  -2.538  -1.677  0.00  0.00    +0.047 C 
ATOM      6  C   UNL     1      -0.129  -1.713  -0.391  0.00  0.00    +0.137 C 
ATOM      7  C   UNL     1      -1.473  -1.019  -0.301  0.00  0.00    +0.267 C 
ATOM      8  O   UNL     1      -2.566  -1.542  -0.254  0.00  0.00    -0.271 OA
ATOM      9  N   UNL     1      -1.201   0.301  -0.285  0.00  0.00    -0.137 N 
ATOM     10  C   UNL     1       0.114   0.534  -0.351  0.00  0.00    +0.327 C 
ATOM     11  O   UNL     1       0.604   1.647  -0.352  0.00  0.00    -0.251 OA
ATOM     12  N   UNL     1       0.835  -0.600  -0.417  0.00  0.00    -0.280 N 
ATOM     13  H   UNL     1       1.801  -0.670  -0.472  0.00  0.00    +0.152 HD
BRANCH   6  14
ATOM     14  C   UNL     1       0.100  -2.584   0.817  0.00  0.00    -0.015 A 
ATOM     15  C   UNL     1      -0.975  -3.158   1.469  0.00  0.00    +0.006 A 
ATOM     16  C   UNL     1      -0.765  -3.960   2.575  0.00  0.00    +0.000 A 
ATOM     17  C   UNL     1       0.520  -4.182   3.034  0.00  0.00    +0.000 A 
ATOM     18  C   UNL     1       1.595  -3.604   2.385  0.00  0.00    +0.000 A 
ATOM     19  C   UNL     1       1.385  -2.805   1.276  0.00  0.00    +0.006 A 
ENDBRANCH   6  14
ENDBRANCH   1   9
BRANCH   2  20
ATOM     20  C   UNL     1      -3.421   3.051   1.018  0.00  0.00    +0.174 C 
BRANCH  20  21
ATOM     21  S   UNL     1      -3.442   3.754   2.686  0.00  0.00    -0.077 S 
BRANCH  21  22
ATOM     22  C   UNL     1      -4.720   4.953   2.497  0.00  0.00    +0.192 A 
ATOM     23  N   UNL     1      -5.404   5.197   1.402  0.00  0.00    -0.122 NA
ATOM     24  N   UNL     1      -6.259   6.132   1.615  0.00  0.00    -0.128 NA
ATOM     25  C   UNL     1      -6.168   6.548   2.857  0.00  0.00    +0.165 A 
ATOM     26  N   UNL     1      -5.179   5.806   3.460  0.00  0.00    -0.305 N 
ATOM     27  C   UNL     1      -4.716   5.908   4.846  0.00  0.00    +0.153 C 
BRANCH  25  28
ATOM     28  C   UNL     1      -6.976   7.613   3.488  0.00  0.00    +0.019 A 
ATOM     29  C   UNL     1      -8.199   7.989   2.929  0.00  0.00    +0.013 A 
ATOM     30  C   UNL     1      -8.950   8.981   3.525  0.00  0.00    +0.021 A 
ATOM     31  C   UNL     1      -8.490   9.609   4.670  0.00  0.00    +0.041 A 
ATOM     32  C   UNL     1      -7.275   9.243   5.226  0.00  0.00    +0.021 A 
ATOM     33  C   UNL     1      -6.517   8.250   4.642  0.00  0.00    +0.013 A 
ATOM     34 CL   UNL     1      -9.438  10.860   5.411  0.00  0.00    -0.084 Cl
ENDBRANCH  25  28
ENDBRANCH  21  22
ENDBRANCH  20  21
ENDBRANCH   2  20
TORSDOF 6
