REMARK  Name = ZINC19853996
REMARK  12 active torsions:
REMARK  status: ('A' for Active; 'I' for Inactive)
REMARK    1  A    between atoms: C_1  and  C_2
REMARK    2  A    between atoms: C_2  and  O_3
REMARK    3  A    between atoms: O_3  and  C_4
REMARK    4  A    between atoms: C_6  and  C_22
REMARK    5  A    between atoms: C_9  and  O_10
REMARK    6  A    between atoms: O_10  and  C_11
REMARK    7  A    between atoms: C_11  and  C_12
REMARK    8  A    between atoms: C_12  and  O_13
REMARK    9  A    between atoms: O_13  and  C_14
REMARK   10  A    between atoms: C_15  and  C_21
REMARK   11  A    between atoms: C_19  and  C_20
REMARK   12  A    between atoms: C_32  and  C_34
REMARK                            x       y       z     vdW  Elec       q    Type
REMARK                         _______ _______ _______ _____ _____    ______ ____
ROOT
ATOM      1  C   UNL     1       1.328  -2.069  -1.384  0.00  0.00    +0.162 A 
ATOM      2  C   UNL     1       0.552  -2.790  -0.499  0.00  0.00    +0.057 A 
ATOM      3  C   UNL     1       0.614  -4.191  -0.499  0.00  0.00    -0.021 A 
ATOM      4  C   UNL     1       1.464  -4.850  -1.398  0.00  0.00    +0.012 A 
ATOM      5  C   UNL     1       2.234  -4.122  -2.277  0.00  0.00    +0.050 A 
ATOM      6  C   UNL     1       2.167  -2.734  -2.279  0.00  0.00    +0.162 A 
ENDROOT
BRANCH   3   7
ATOM      7  C   UNL     1      -0.206  -4.962   0.438  0.00  0.00    +0.024 C 
ATOM      8  C   UNL     1      -0.757  -6.161   0.044  0.00  0.00    +0.079 C 
ATOM      9  C   UNL     1      -1.442  -7.065   1.010  0.00  0.00    +0.132 C 
ATOM     10  N   UNL     1      -2.118  -6.633   2.042  0.00  0.00    -0.385 N 
ATOM     11  N   UNL     1      -1.290  -8.434   0.701  0.00  0.00    -0.154 N 
ATOM     12  C   UNL     1      -1.009  -8.763  -0.607  0.00  0.00    +0.181 C 
ATOM     13  N   UNL     1      -0.768  -7.947  -1.602  0.00  0.00    -0.152 NA
ATOM     14  C   UNL     1      -0.707  -6.619  -1.367  0.00  0.00    +0.273 C 
ATOM     15  O   UNL     1      -0.609  -5.819  -2.284  0.00  0.00    -0.268 OA
ATOM     16  S   UNL     1      -1.041 -10.535  -0.559  0.00  0.00    -0.038 S 
ATOM     17  C   UNL     1      -1.323 -10.717   1.197  0.00  0.00    +0.097 C 
ATOM     18  N   UNL     1      -1.409  -9.479   1.592  0.00  0.00    -0.170 NA
ATOM     19  C   UNL     1      -1.431 -11.980   2.012  0.00  0.00    +0.075 C 
ATOM     20  H   UNL     1      -2.193  -5.680   2.208  0.00  0.00    +0.157 HD
ATOM     21  H   UNL     1      -2.546  -7.265   2.640  0.00  0.00    +0.157 HD
ENDBRANCH   3   7
BRANCH   1  22
ATOM     22  O   UNL     1       1.270  -0.710  -1.388  0.00  0.00    -0.489 OA
BRANCH  22  24
ATOM     23  C   UNL     1       0.460   1.425  -0.598  0.00  0.00    +0.048 C 
ATOM     24  C   UNL     1       0.390  -0.096  -0.445  0.00  0.00    +0.226 C 
ENDBRANCH  22  24
ENDBRANCH   1  22
BRANCH   6  25
ATOM     25  O   UNL     1       2.925  -2.022  -3.152  0.00  0.00    -0.485 OA
BRANCH  25  26
ATOM     26  C   UNL     1       3.761  -2.764  -4.041  0.00  0.00    +0.270 C 
BRANCH  26  27
ATOM     27  C   UNL     1       4.533  -1.798  -4.942  0.00  0.00    +0.270 C 
BRANCH  27  28
ATOM     28  O   UNL     1       5.426  -1.016  -4.147  0.00  0.00    -0.488 OA
BRANCH  28  29
ATOM     29  C   UNL     1       6.192  -0.101  -4.799  0.00  0.00    +0.126 A 
ATOM     30  C   UNL     1       7.439  -0.462  -5.288  0.00  0.00    -0.009 A 
ATOM     31  C   UNL     1       8.215   0.469  -5.950  0.00  0.00    +0.007 A 
ATOM     32  C   UNL     1       7.750   1.760  -6.126  0.00  0.00    +0.001 A 
ATOM     33  C   UNL     1       6.508   2.122  -5.639  0.00  0.00    +0.007 A 
ATOM     34  C   UNL     1       5.725   1.192  -4.981  0.00  0.00    -0.009 A 
ATOM     35  C   UNL     1       4.368   1.585  -4.456  0.00  0.00    +0.047 C 
ATOM     36  C   UNL     1       7.947  -1.868  -5.097  0.00  0.00    +0.047 C 
ENDBRANCH  28  29
ENDBRANCH  27  28
ENDBRANCH  26  27
ENDBRANCH  25  26
ENDBRANCH   6  25
TORSDOF 8
