REMARK  Name = ZINC40034073
REMARK  12 active torsions:
REMARK  status: ('A' for Active; 'I' for Inactive)
REMARK    1  A    between atoms: C_1  and  C_2
REMARK    2  A    between atoms: C_2  and  O_3
REMARK    3  A    between atoms: O_3  and  C_4
REMARK    4  A    between atoms: C_4  and  C_6
REMARK    5  A    between atoms: C_7  and  C_29
REMARK    6  A    between atoms: C_8  and  C_13
REMARK    7  A    between atoms: C_10  and  C_12
REMARK    8  A    between atoms: C_13  and  C_15
REMARK    9  A    between atoms: C_15  and  S_16
REMARK   10  A    between atoms: S_16  and  C_17
REMARK   11  A    between atoms: C_20  and  C_23
REMARK   12  A    between atoms: N_21  and  C_22
REMARK                            x       y       z     vdW  Elec       q    Type
REMARK                         _______ _______ _______ _____ _____    ______ ____
ROOT
ATOM      1  C   UNL     1      -5.356  -5.156   0.033  0.00  0.00    +0.191 C 
ATOM      2  O   UNL     1      -4.739  -6.194   0.028  0.00  0.00    -0.290 OA
ENDROOT
BRANCH   1   5
ATOM      3  C   UNL     1      -2.847  -2.418   0.016  0.00  0.00    +0.065 C 
ATOM      4  C   UNL     1      -3.168  -3.727   0.018  0.00  0.00    -0.010 C 
ATOM      5  C   UNL     1      -4.632  -3.863   0.029  0.00  0.00    +0.106 C 
ATOM      6  N   UNL     1      -5.205  -2.699   0.034  0.00  0.00    -0.272 NA
ATOM      7  C   UNL     1      -4.161  -1.668   0.033  0.00  0.00    +0.140 C 
ATOM      8  C   UNL     1      -4.262  -0.807   1.294  0.00  0.00    +0.038 C 
ATOM      9  C   UNL     1      -2.185  -4.869   0.010  0.00  0.00    +0.046 C 
BRANCH   3  10
ATOM     10  C   UNL     1      -1.497  -1.838   0.006  0.00  0.00    +0.338 C 
ATOM     11  O   UNL     1      -0.523  -2.565  -0.007  0.00  0.00    -0.245 OA
BRANCH  10  12
ATOM     12  O   UNL     1      -1.339  -0.499   0.012  0.00  0.00    -0.462 OA
BRANCH  12  14
ATOM     13  C   UNL     1      -0.019   1.526   0.010  0.00  0.00    +0.048 C 
ATOM     14  C   UNL     1       0.002  -0.004   0.002  0.00  0.00    +0.229 C 
ENDBRANCH  12  14
ENDBRANCH  10  12
ENDBRANCH   3  10
ENDBRANCH   1   5
BRANCH   1  15
ATOM     15  C   UNL     1      -6.863  -5.176   0.044  0.00  0.00    +0.158 C 
BRANCH  15  16
ATOM     16  S   UNL     1      -7.445  -6.895   0.047  0.00  0.00    -0.078 S 
BRANCH  16  17
ATOM     17  C   UNL     1      -9.201  -6.750   0.060  0.00  0.00    +0.192 A 
ATOM     18  N   UNL     1      -9.892  -5.630   0.061  0.00  0.00    -0.122 NA
ATOM     19  N   UNL     1     -11.151  -5.889   0.072  0.00  0.00    -0.127 NA
ATOM     20  C   UNL     1     -11.341  -7.188   0.079  0.00  0.00    +0.183 A 
ATOM     21  N   UNL     1     -10.098  -7.779   0.066  0.00  0.00    -0.304 N 
ATOM     22  C   UNL     1      -9.799  -9.213   0.061  0.00  0.00    +0.153 C 
BRANCH  20  23
ATOM     23  C   UNL     1     -12.644  -7.884   0.092  0.00  0.00    +0.108 A 
ATOM     24  C   UNL     1     -13.826  -7.142   0.092  0.00  0.00    +0.031 A 
ATOM     25  C   UNL     1     -15.038  -7.809   0.104  0.00  0.00    +0.004 A 
ATOM     26  C   UNL     1     -15.031  -9.197   0.116  0.00  0.00    +0.020 A 
ATOM     27  C   UNL     1     -13.823  -9.870   0.116  0.00  0.00    +0.111 A 
ATOM     28  N   UNL     1     -12.682  -9.212   0.099  0.00  0.00    -0.252 NA
ENDBRANCH  20  23
ENDBRANCH  16  17
ENDBRANCH  15  16
ENDBRANCH   1  15
TORSDOF 8
