REMARK  Name = ZINC11788038
REMARK  9 active torsions:
REMARK  status: ('A' for Active; 'I' for Inactive)
REMARK    1  A    between atoms: C_1  and  N_2
REMARK    2  A    between atoms: N_2  and  C_3
REMARK    3  A    between atoms: C_3  and  C_5
REMARK    4  A    between atoms: C_3  and  C_14
REMARK    5  A    between atoms: C_5  and  C_6
REMARK    6  A    between atoms: C_19  and  C_20
REMARK    7  A    between atoms: C_19  and  N_61
REMARK    8  A    between atoms: C_25  and  O_26
REMARK    9  A    between atoms: C_28  and  C_30
REMARK                            x       y       z     vdW  Elec       q    Type
REMARK                         _______ _______ _______ _____ _____    ______ ____
ROOT
ATOM      1  C   UNL     1       1.082   3.682  -0.384  0.00  0.00    +0.083 C 
ENDROOT
BRANCH   1   2
ATOM      2  C   UNL     1       1.965   4.403   0.636  0.00  0.00    +0.006 C 
ATOM      3  C   UNL     1       3.274   3.628   0.818  0.00  0.00    -0.013 C 
ATOM      4  C   UNL     1       4.127   4.321   1.883  0.00  0.00    -0.078 C 
ATOM      5  C   UNL     1       2.148   5.147   3.013  0.00  0.00    -0.078 C 
ATOM      6  C   UNL     1       1.236   4.479   1.981  0.00  0.00    -0.013 C 
ATOM      7  N   UNL     1       3.379   4.340   3.158  0.00  0.00    +0.382 N 
ATOM      8  H   UNL     1       3.119   3.378   3.407  0.00  0.00    -0.081 HD
BRANCH   7   9
ATOM      9  C   UNL     1       4.226   4.901   4.231  0.00  0.00    -0.039 C 
BRANCH   9  10
ATOM     10  C   UNL     1       5.581   4.244   4.185  0.00  0.00    -0.021 A 
ATOM     11  C   UNL     1       5.877   3.209   5.051  0.00  0.00    +0.025 A 
ATOM     12  C   UNL     1       7.119   2.602   5.006  0.00  0.00    +0.041 A 
ATOM     13  C   UNL     1       8.071   3.036   4.100  0.00  0.00    +0.023 A 
ATOM     14  C   UNL     1       7.781   4.074   3.236  0.00  0.00    +0.047 A 
ATOM     15  C   UNL     1       6.534   4.681   3.277  0.00  0.00    +0.118 A 
ATOM     16 CL   UNL     1       7.487   1.297   6.090  0.00  0.00    -0.084 Cl
BRANCH  15  17
ATOM     17  O   UNL     1       6.246   5.703   2.428  0.00  0.00    -0.507 OA
ATOM     18  H   UNL     1       6.465   6.578   2.777  0.00  0.00    +0.292 HD
ENDBRANCH  15  17
ENDBRANCH   9  10
ENDBRANCH   7   9
ENDBRANCH   1   2
BRANCH   1  20
ATOM     19  C   UNL     1       1.377   1.506   0.888  0.00  0.00    +0.132 C 
ATOM     20  N   UNL     1       0.505   2.483   0.230  0.00  0.00    -0.294 N 
ATOM     21  C   UNL     1      -0.826   2.279   0.190  0.00  0.00    +0.282 C 
ATOM     22  O   UNL     1      -1.300   1.261   0.659  0.00  0.00    -0.267 OA
BRANCH  21  23
ATOM     23  C   UNL     1      -1.703   3.280  -0.426  0.00  0.00    +0.189 A 
ATOM     24  C   UNL     1      -3.068   3.268  -0.413  0.00  0.00    +0.054 A 
ATOM     25  C   UNL     1      -3.489   4.408  -1.115  0.00  0.00    +0.042 A 
ATOM     26  C   UNL     1      -2.376   5.059  -1.520  0.00  0.00    +0.196 A 
ATOM     27  O   UNL     1      -1.302   4.379  -1.099  0.00  0.00    -0.458 OA
ENDBRANCH  21  23
ENDBRANCH   1  20
BRANCH   1  28
ATOM     28  C   UNL     1       1.926   3.279  -1.595  0.00  0.00    +0.060 C 
BRANCH  28  29
ATOM     29  C   UNL     1       1.036   2.666  -2.646  0.00  0.00    -0.010 A 
ATOM     30  C   UNL     1       0.485   3.461  -3.633  0.00  0.00    +0.009 A 
ATOM     31  C   UNL     1      -0.330   2.900  -4.598  0.00  0.00    +0.039 A 
ATOM     32  C   UNL     1      -0.596   1.541  -4.576  0.00  0.00    +0.126 A 
ATOM     33  C   UNL     1      -0.045   0.745  -3.588  0.00  0.00    +0.077 A 
ATOM     34  C   UNL     1       0.776   1.306  -2.625  0.00  0.00    +0.129 A 
ATOM     35  F   UNL     1       1.319   0.529  -1.663  0.00  0.00    -0.205 F 
ATOM     36  F   UNL     1      -1.394   0.994  -5.519  0.00  0.00    -0.205 F 
ENDBRANCH  28  29
ENDBRANCH   1  28
TORSDOF 8
