REMARK  Name = ZINC35025884
REMARK  15 active torsions:
REMARK  status: ('A' for Active; 'I' for Inactive)
REMARK    1  A    between atoms: C_1  and  C_2
REMARK    2  A    between atoms: C_2  and  C_3
REMARK    3  A    between atoms: C_2  and  C_4
REMARK    4  A    between atoms: C_2  and  C_5
REMARK    5  A    between atoms: C_7  and  C_16
REMARK    6  A    between atoms: C_9  and  C_12
REMARK    7  A    between atoms: C_10  and  O_11
REMARK    8  A    between atoms: C_12  and  C_13
REMARK    9  A    between atoms: C_12  and  C_14
REMARK   10  A    between atoms: C_12  and  C_15
REMARK   11  A    between atoms: C_16  and  C_18
REMARK   12  A    between atoms: C_16  and  N_27
REMARK   13  A    between atoms: C_21  and  N_24
REMARK   14  A    between atoms: N_24  and  C_25
REMARK   15  A    between atoms: N_24  and  C_26
REMARK                            x       y       z     vdW  Elec       q    Type
REMARK                         _______ _______ _______ _____ _____    ______ ____
ROOT
ATOM      1  C   UNL     1       2.871   0.434  -4.114  0.00  0.00    +0.152 C 
ENDROOT
BRANCH   1   2
ATOM      2  N   UNL     1       2.650  -0.300  -5.362  0.00  0.00    -0.291 N 
ATOM      3  C   UNL     1       2.860  -1.664  -5.564  0.00  0.00    +0.089 A 
ATOM      4  C   UNL     1       3.302  -2.690  -4.744  0.00  0.00    +0.029 A 
ATOM      5  C   UNL     1       3.408  -3.973  -5.245  0.00  0.00    +0.002 A 
ATOM      6  C   UNL     1       3.075  -4.235  -6.563  0.00  0.00    +0.004 A 
ATOM      7  C   UNL     1       2.633  -3.217  -7.386  0.00  0.00    +0.048 A 
ATOM      8  C   UNL     1       2.523  -1.927  -6.891  0.00  0.00    +0.154 A 
ATOM      9  O   UNL     1       2.130  -0.754  -7.447  0.00  0.00    -0.431 OA
ATOM     10  C   UNL     1       2.202   0.218  -6.523  0.00  0.00    +0.250 A 
ATOM     11  S   UNL     1       1.794   1.860  -6.781  0.00  0.00    +0.009 S 
ENDBRANCH   1   2
BRANCH   1  14
ATOM     12  C   UNL     1       2.251  -0.840  -0.615  0.00  0.00    +0.000 A 
ATOM     13  C   UNL     1       2.763  -0.116  -1.675  0.00  0.00    +0.013 A 
ATOM     14  C   UNL     1       2.311  -0.356  -2.959  0.00  0.00    -0.019 A 
ATOM     15  C   UNL     1       1.347  -1.321  -3.187  0.00  0.00    +0.013 A 
ATOM     16  C   UNL     1       0.832  -2.047  -2.131  0.00  0.00    +0.000 A 
ATOM     17  C   UNL     1       1.287  -1.812  -0.841  0.00  0.00    +0.124 A 
BRANCH  12  19
ATOM     18  C   UNL     1       3.794   0.534   0.756  0.00  0.00    +0.015 C 
ATOM     19  C   UNL     1       2.743  -0.577   0.785  0.00  0.00    -0.009 C 
ATOM     20  C   UNL     1       3.366  -1.854   1.354  0.00  0.00    +0.015 C 
ATOM     21  C   UNL     1       1.569  -0.146   1.666  0.00  0.00    +0.015 C 
ENDBRANCH  12  19
BRANCH  16  22
ATOM     22  C   UNL     1      -0.219  -3.098  -2.379  0.00  0.00    -0.009 C 
ATOM     23  C   UNL     1      -0.454  -3.238  -3.885  0.00  0.00    +0.015 C 
ATOM     24  C   UNL     1       0.254  -4.437  -1.810  0.00  0.00    +0.015 C 
ATOM     25  C   UNL     1      -1.524  -2.686  -1.696  0.00  0.00    +0.015 C 
ENDBRANCH  16  22
BRANCH  17  26
ATOM     26  O   UNL     1       0.786  -2.529   0.199  0.00  0.00    -0.506 OA
ATOM     27  H   UNL     1       0.006  -2.133   0.610  0.00  0.00    +0.292 HD
ENDBRANCH  17  26
ENDBRANCH   1  14
BRANCH   1  28
ATOM     28  C   UNL     1       4.349   0.644  -3.909  0.00  0.00    -0.020 A 
ATOM     29  C   UNL     1       5.246  -0.333  -4.301  0.00  0.00    +0.008 A 
ATOM     30  C   UNL     1       6.601  -0.144  -4.115  0.00  0.00    +0.023 A 
ATOM     31  C   UNL     1       7.063   1.030  -3.533  0.00  0.00    +0.029 A 
ATOM     32  C   UNL     1       6.160   2.009  -3.140  0.00  0.00    +0.023 A 
ATOM     33  C   UNL     1       4.807   1.816  -3.334  0.00  0.00    +0.008 A 
BRANCH  31  34
ATOM     34  N   UNL     1       8.433   1.224  -3.342  0.00  0.00    -0.336 N 
ATOM     35  C   UNL     1       9.384   0.189  -3.757  0.00  0.00    +0.129 C 
ATOM     36  C   UNL     1       8.919   2.462  -2.728  0.00  0.00    +0.129 C 
ENDBRANCH  31  34
ENDBRANCH   1  28
TORSDOF 7
