REMARK  Name = ZINC36024581
REMARK  11 active torsions:
REMARK  status: ('A' for Active; 'I' for Inactive)
REMARK    1  A    between atoms: C_1  and  C_2
REMARK    2  A    between atoms: C_2  and  C_3
REMARK    3  A    between atoms: C_3  and  C_5
REMARK    4  A    between atoms: C_3  and  C_6
REMARK    5  A    between atoms: C_6  and  N_7
REMARK    6  A    between atoms: C_10  and  C_29
REMARK    7  A    between atoms: N_16  and  S_19
REMARK    8  A    between atoms: S_19  and  C_22
REMARK    9  A    between atoms: C_25  and  C_28
REMARK   10  A    between atoms: C_29  and  C_30
REMARK   11  A    between atoms: C_29  and  C_31
REMARK                            x       y       z     vdW  Elec       q    Type
REMARK                         _______ _______ _______ _____ _____    ______ ____
ROOT
ATOM      1  N   UNL     1       1.842  -2.168   2.040  0.00  0.00    -0.313 N 
ATOM      2  C   UNL     1       3.180  -2.089   1.885  0.00  0.00    +0.201 C 
ATOM      3  O   UNL     1       3.758  -1.784   0.863  0.00  0.00    -0.277 OA
ATOM      4  C   UNL     1       3.838  -2.445   3.200  0.00  0.00    +0.022 C 
ATOM      5  N   UNL     1       2.776  -3.122   3.983  0.00  0.00    +0.401 N 
ATOM      6  C   UNL     1       1.532  -2.553   3.420  0.00  0.00    +0.006 C 
ATOM      7  C   UNL     1       0.428  -3.609   3.438  0.00  0.00    +0.023 C 
ATOM      8  C   UNL     1      -0.844  -3.026   2.815  0.00  0.00    +0.109 C 
ATOM      9  N   UNL     1      -1.181  -1.776   3.510  0.00  0.00    -0.177 NA
ATOM     10  C   UNL     1      -0.159  -0.726   3.611  0.00  0.00    +0.109 C 
ATOM     11  C   UNL     1       1.107  -1.328   4.228  0.00  0.00    +0.023 C 
ATOM     12  H   UNL     1       2.812  -4.121   3.842  0.00  0.00    -0.082 HD
ATOM     13  H   UNL     1       2.857  -2.896   4.963  0.00  0.00    -0.082 HD
ENDROOT
BRANCH   9  14
ATOM     14  S   UNL     1      -2.685  -1.556   4.168  0.00  0.00    +0.061 S 
ATOM     15  O   UNL     1      -2.892  -0.153   4.246  0.00  0.00    -0.153 OA
ATOM     16  O   UNL     1      -3.567  -2.419   3.462  0.00  0.00    -0.153 OA
BRANCH  14  17
ATOM     17  C   UNL     1      -2.620  -2.149   5.826  0.00  0.00    +0.105 A 
ATOM     18  C   UNL     1      -2.913  -3.472   6.099  0.00  0.00    +0.029 A 
ATOM     19  C   UNL     1      -2.862  -3.937   7.400  0.00  0.00    +0.005 A 
ATOM     20  C   UNL     1      -2.517  -3.079   8.427  0.00  0.00    -0.050 A 
ATOM     21  C   UNL     1      -2.223  -1.756   8.154  0.00  0.00    +0.005 A 
ATOM     22  C   UNL     1      -2.270  -1.292   6.853  0.00  0.00    +0.029 A 
ATOM     23  C   UNL     1      -2.462  -3.586   9.845  0.00  0.00    +0.044 C 
ENDBRANCH  14  17
ENDBRANCH   9  14
BRANCH   4  24
ATOM     24  C   UNL     1       5.017  -3.391   2.968  0.00  0.00    -0.023 C 
ATOM     25  C   UNL     1       6.063  -2.696   2.093  0.00  0.00    +0.006 C 
ATOM     26  C   UNL     1       5.644  -3.765   4.312  0.00  0.00    +0.006 C 
ENDBRANCH   4  24
BRANCH   1  27
ATOM     27  C   UNL     1       0.852  -1.903   0.993  0.00  0.00    +0.109 C 
BRANCH  27  28
ATOM     28  C   UNL     1       0.557  -3.196   0.231  0.00  0.00    +0.003 C 
ATOM     29  C   UNL     1       1.813  -3.642  -0.520  0.00  0.00    +0.009 C 
BRANCH  28  31
ATOM     30  C   UNL     1      -0.954  -4.272  -1.442  0.00  0.00    +0.004 C 
ATOM     31  C   UNL     1      -0.575  -2.952  -0.769  0.00  0.00    +0.001 C 
ENDBRANCH  28  31
ENDBRANCH  27  28
ENDBRANCH   1  27
TORSDOF 6
