REMARK  Name = ZINC45841284
REMARK  8 active torsions:
REMARK  status: ('A' for Active; 'I' for Inactive)
REMARK    1  A    between atoms: C_1  and  C_2
REMARK    2  A    between atoms: C_2  and  C_3
REMARK    3  A    between atoms: C_2  and  C_4
REMARK    4  A    between atoms: C_4  and  C_6
REMARK    5  A    between atoms: C_4  and  N_13
REMARK    6  A    between atoms: C_14  and  C_16
REMARK    7  A    between atoms: C_16  and  N_17
REMARK    8  A    between atoms: C_20  and  N_23
REMARK                            x       y       z     vdW  Elec       q    Type
REMARK                         _______ _______ _______ _____ _____    ______ ____
ROOT
ATOM      1  N   UNL     1      -3.959   2.980   2.226  0.00  0.00    +0.386 N 
ATOM      2  C   UNL     1      -4.992   2.903   1.186  0.00  0.00    -0.076 C 
ATOM      3  C   UNL     1      -5.510   4.308   0.872  0.00  0.00    +0.006 C 
ATOM      4  C   UNL     1      -6.106   4.922   2.141  0.00  0.00    +0.089 C 
ATOM      5  C   UNL     1      -5.041   4.929   3.242  0.00  0.00    +0.006 C 
ATOM      6  C   UNL     1      -4.540   3.501   3.468  0.00  0.00    -0.076 C 
ATOM      7  H   UNL     1      -3.220   3.594   1.918  0.00  0.00    -0.081 HD
ENDROOT
BRANCH   4   8
ATOM      8  N   UNL     1      -6.536   6.295   1.866  0.00  0.00    -0.289 N 
ATOM      9  C   UNL     1      -7.833   6.785   1.996  0.00  0.00    +0.070 A 
ATOM     10  C   UNL     1      -9.033   6.210   2.386  0.00  0.00    +0.028 A 
ATOM     11  C   UNL     1     -10.184   6.973   2.415  0.00  0.00    +0.002 A 
ATOM     12  C   UNL     1     -10.145   8.309   2.056  0.00  0.00    +0.002 A 
ATOM     13  C   UNL     1      -8.954   8.891   1.666  0.00  0.00    +0.028 A 
ATOM     14  C   UNL     1      -7.793   8.133   1.634  0.00  0.00    +0.067 A 
ATOM     15  N   UNL     1      -6.473   8.421   1.296  0.00  0.00    -0.306 N 
ATOM     16  H   UNL     1      -6.137   9.282   1.003  0.00  0.00    +0.170 HD
ATOM     17  C   UNL     1      -5.742   7.300   1.450  0.00  0.00    +0.328 A 
ATOM     18  O   UNL     1      -4.547   7.209   1.242  0.00  0.00    -0.247 OA
ENDBRANCH   4   8
BRANCH   1  19
ATOM     19  C   UNL     1      -3.409   1.639   2.468  0.00  0.00    +0.019 C 
BRANCH  19  21
ATOM     20  N   UNL     1      -2.119  -0.061   1.218  0.00  0.00    -0.310 N 
ATOM     21  C   UNL     1      -2.704   1.153   1.228  0.00  0.00    +0.197 C 
ATOM     22  O   UNL     1      -2.663   1.854   0.240  0.00  0.00    -0.278 OA
ATOM     23  H   UNL     1      -2.152  -0.622   2.009  0.00  0.00    +0.149 HD
BRANCH  20  24
ATOM     24  C   UNL     1      -1.433  -0.534   0.013  0.00  0.00    +0.106 C 
BRANCH  24  25
ATOM     25  C   UNL     1      -1.413  -2.041   0.005  0.00  0.00    -0.027 A 
ATOM     26  C   UNL     1      -1.190  -2.735   1.179  0.00  0.00    +0.007 A 
ATOM     27  C   UNL     1      -1.171  -4.117   1.172  0.00  0.00    +0.020 A 
ATOM     28  C   UNL     1      -1.375  -4.805  -0.011  0.00  0.00    +0.041 A 
ATOM     29  C   UNL     1      -1.598  -4.110  -1.186  0.00  0.00    +0.020 A 
ATOM     30  C   UNL     1      -1.623  -2.728  -1.176  0.00  0.00    +0.007 A 
ATOM     31 CL   UNL     1      -1.351  -6.541  -0.020  0.00  0.00    -0.084 Cl
ENDBRANCH  24  25
BRANCH  24  33
ATOM     32  C   UNL     1      -0.019   1.526   0.010  0.00  0.00    +0.009 C 
ATOM     33  C   UNL     1       0.002  -0.004   0.002  0.00  0.00    +0.008 C 
ATOM     34  C   UNL     1       0.742  -0.511   1.242  0.00  0.00    +0.009 C 
ENDBRANCH  24  33
ENDBRANCH  20  24
ENDBRANCH  19  21
ENDBRANCH   1  19
TORSDOF 6
