REMARK  Name = ZINC39728324
REMARK  9 active torsions:
REMARK  status: ('A' for Active; 'I' for Inactive)
REMARK    1  A    between atoms: C_1  and  C_2
REMARK    2  A    between atoms: C_2  and  C_3
REMARK    3  A    between atoms: N_10  and  O_11
REMARK    4  A    between atoms: O_11  and  C_12
REMARK    5  A    between atoms: C_12  and  C_13
REMARK    6  A    between atoms: N_15  and  C_16
REMARK    7  A    between atoms: C_16  and  C_17
REMARK    8  A    between atoms: N_26  and  C_31
REMARK    9  A    between atoms: N_29  and  C_30
REMARK                            x       y       z     vdW  Elec       q    Type
REMARK                         _______ _______ _______ _____ _____    ______ ____
ROOT
ATOM      1  C   UNL     1      -1.504  -0.301   0.034  0.00  0.00    -0.004 C 
ATOM      2  C   UNL     1      -2.127  -0.534  -1.138  0.00  0.00    +0.118 C 
ATOM      3  N   UNL     1      -3.250  -1.250  -1.274  0.00  0.00    -0.243 NA
ATOM      4  C   UNL     1      -3.883  -1.771  -0.269  0.00  0.00    +0.123 C 
ATOM      5  C   UNL     1      -3.413  -1.457   1.140  0.00  0.00    +0.191 C 
ATOM      6  C   UNL     1      -2.065  -0.778   1.254  0.00  0.00    +0.104 C 
ATOM      7  N   UNL     1      -1.459  -0.634   2.395  0.00  0.00    -0.088 NA
ATOM      8  C   UNL     1      -3.354  -2.779   1.855  0.00  0.00    +0.239 C 
ATOM      9  O   UNL     1      -2.535  -2.967   2.729  0.00  0.00    -0.274 OA
ATOM     10  N   UNL     1      -4.222  -3.753   1.514  0.00  0.00    -0.228 N 
ATOM     11  C   UNL     1      -5.073  -3.626   0.483  0.00  0.00    +0.316 C 
ATOM     12  O   UNL     1      -5.973  -4.432   0.351  0.00  0.00    -0.252 OA
ATOM     13  N   UNL     1      -4.949  -2.619  -0.411  0.00  0.00    -0.245 N 
ATOM     14  C   UNL     1      -5.920  -2.442  -1.494  0.00  0.00    +0.141 C 
ATOM     15  C   UNL     1      -4.237  -4.993   2.295  0.00  0.00    +0.143 C 
ENDROOT
BRANCH   1  17
ATOM     16  C   UNL     1       0.966  -0.525   0.051  0.00  0.00    +0.009 C 
ATOM     17  C   UNL     1      -0.204   0.461   0.053  0.00  0.00    +0.035 C 
ENDBRANCH   1  17
BRANCH   7  18
ATOM     18  O   UNL     1      -0.142  -0.115   2.437  0.00  0.00    -0.384 OA
BRANCH  18  19
ATOM     19  C   UNL     1       0.401  -0.012   3.755  0.00  0.00    +0.358 C 
BRANCH  19  20
ATOM     20  C   UNL     1       1.797   0.549   3.680  0.00  0.00    +0.254 C 
ATOM     21  O   UNL     1       2.280   0.833   2.605  0.00  0.00    -0.272 OA
ATOM     22  N   UNL     1       2.510   0.736   4.809  0.00  0.00    -0.308 N 
ATOM     23  H   UNL     1       2.123   0.509   5.669  0.00  0.00    +0.149 HD
BRANCH  22  24
ATOM     24  C   UNL     1       3.867   1.282   4.737  0.00  0.00    +0.139 C 
BRANCH  24  25
ATOM     25  C   UNL     1       4.440   1.390   6.127  0.00  0.00    -0.030 A 
ATOM     26  C   UNL     1       4.256   2.547   6.861  0.00  0.00    +0.008 A 
ATOM     27  C   UNL     1       4.780   2.648   8.135  0.00  0.00    +0.038 A 
ATOM     28  C   UNL     1       5.489   1.589   8.677  0.00  0.00    +0.123 A 
ATOM     29  C   UNL     1       5.672   0.431   7.941  0.00  0.00    +0.038 A 
ATOM     30  C   UNL     1       5.143   0.331   6.669  0.00  0.00    +0.008 A 
ATOM     31  F   UNL     1       6.002   1.687   9.923  0.00  0.00    -0.205 F 
ENDBRANCH  24  25
ENDBRANCH  22  24
ENDBRANCH  19  20
ENDBRANCH  18  19
ENDBRANCH   7  18
TORSDOF 6
