REMARK  Name = ZINC03250303
REMARK  11 active torsions:
REMARK  status: ('A' for Active; 'I' for Inactive)
REMARK    1  A    between atoms: C_1  and  C_2
REMARK    2  A    between atoms: C_2  and  O_3
REMARK    3  A    between atoms: O_3  and  C_4
REMARK    4  A    between atoms: C_4  and  C_6
REMARK    5  A    between atoms: C_10  and  N_11
REMARK    6  A    between atoms: C_12  and  C_14
REMARK    7  A    between atoms: C_14  and  C_16
REMARK    8  A    between atoms: C_14  and  N_17
REMARK    9  A    between atoms: N_17  and  C_18
REMARK   10  A    between atoms: C_23  and  N_24
REMARK   11  A    between atoms: C_31  and  C_35
REMARK                            x       y       z     vdW  Elec       q    Type
REMARK                         _______ _______ _______ _____ _____    ______ ____
ROOT
ATOM      1  N   UNL     1      -0.645   2.293  -4.920  0.00  0.00    -0.278 N 
ATOM      2  C   UNL     1      -1.557   2.787  -5.780  0.00  0.00    +0.238 C 
ATOM      3  O   UNL     1      -2.660   3.096  -5.382  0.00  0.00    -0.273 OA
ATOM      4  H   UNL     1       0.238   2.045  -5.238  0.00  0.00    +0.155 HD
ENDROOT
BRANCH   1   9
ATOM      5  C   UNL     1      -0.171   1.653  -2.551  0.00  0.00    +0.091 A 
ATOM      6  C   UNL     1      -0.755   1.593  -1.222  0.00  0.00    -0.021 A 
ATOM      7  C   UNL     1      -2.032   2.025  -1.135  0.00  0.00    -0.004 A 
ATOM      8  S   UNL     1      -2.461   2.506  -2.784  0.00  0.00    -0.077 S 
ATOM      9  C   UNL     1      -0.967   2.139  -3.580  0.00  0.00    +0.086 A 
ATOM     10  C   UNL     1      -2.885   2.079   0.095  0.00  0.00    +0.046 C 
ATOM     11  C   UNL     1      -2.223   1.219   1.181  0.00  0.00    -0.009 C 
ATOM     12  C   UNL     1      -0.734   1.582   1.262  0.00  0.00    +0.008 C 
ATOM     13  C   UNL     1      -0.013   1.086   0.008  0.00  0.00    +0.037 C 
ATOM     14  C   UNL     1      -2.890   1.493   2.530  0.00  0.00    +0.008 C 
BRANCH   5  15
ATOM     15  C   UNL     1       1.205   1.218  -2.797  0.00  0.00    +0.342 C 
ATOM     16  O   UNL     1       1.433   0.060  -3.093  0.00  0.00    -0.245 OA
BRANCH  15  17
ATOM     17  O   UNL     1       2.220   2.100  -2.693  0.00  0.00    -0.461 OA
BRANCH  17  19
ATOM     18  C   UNL     1       4.570   2.735  -2.786  0.00  0.00    +0.048 C 
ATOM     19  C   UNL     1       3.559   1.598  -2.950  0.00  0.00    +0.229 C 
ENDBRANCH  17  19
ENDBRANCH  15  17
ENDBRANCH   5  15
ENDBRANCH   1   9
BRANCH   2  20
ATOM     20  C   UNL     1      -1.207   2.954  -7.236  0.00  0.00    +0.154 C 
ATOM     21  C   UNL     1      -0.836   1.593  -7.831  0.00  0.00    +0.038 C 
BRANCH  20  22
ATOM     22  N   UNL     1      -2.358   3.503  -7.956  0.00  0.00    -0.332 N 
ATOM     23  H   UNL     1      -3.255   3.368  -7.611  0.00  0.00    +0.147 HD
BRANCH  22  24
ATOM     24  C   UNL     1      -2.165   4.224  -9.140  0.00  0.00    +0.049 A 
ATOM     25  C   UNL     1      -0.883   4.424  -9.631  0.00  0.00    +0.025 A 
ATOM     26  C   UNL     1      -0.695   5.133 -10.803  0.00  0.00    +0.002 A 
ATOM     27  C   UNL     1      -1.780   5.652 -11.484  0.00  0.00    +0.002 A 
ATOM     28  C   UNL     1      -3.061   5.462 -10.999  0.00  0.00    +0.025 A 
ATOM     29  C   UNL     1      -3.260   4.749  -9.827  0.00  0.00    +0.051 A 
BRANCH  29  30
ATOM     30  N   UNL     1      -4.556   4.555  -9.334  0.00  0.00    -0.324 N 
ATOM     31  C   UNL     1      -5.361   3.755 -10.268  0.00  0.00    +0.133 C 
ATOM     32  C   UNL     1      -6.748   3.518  -9.664  0.00  0.00    +0.178 C 
ATOM     33  O   UNL     1      -7.355   4.779  -9.368  0.00  0.00    -0.377 OA
ATOM     34  C   UNL     1      -6.598   5.584  -8.460  0.00  0.00    +0.178 C 
ATOM     35  C   UNL     1      -5.210   5.842  -9.052  0.00  0.00    +0.133 C 
ENDBRANCH  29  30
ENDBRANCH  22  24
ENDBRANCH  20  22
ENDBRANCH   2  20
TORSDOF 8
