REMARK  Name = ZINC39980680
REMARK  5 active torsions:
REMARK  status: ('A' for Active; 'I' for Inactive)
REMARK    1  A    between atoms: C_1  and  C_2
REMARK    2  A    between atoms: C_8  and  C_14
REMARK    3  A    between atoms: C_16  and  N_26
REMARK    4  A    between atoms: N_26  and  C_27
REMARK    5  A    between atoms: C_27  and  C_28
REMARK                            x       y       z     vdW  Elec       q    Type
REMARK                         _______ _______ _______ _____ _____    ______ ____
ROOT
ATOM      1  C   UNL     1       1.295  -2.566   4.414  0.00  0.00    +0.158 C 
ATOM      2  C   UNL     1       1.392  -1.768   5.727  0.00  0.00    +0.173 C 
ATOM      3  N   UNL     1       1.328  -2.808   6.769  0.00  0.00    -0.272 N 
ATOM      4  C   UNL     1       1.368  -2.698   8.129  0.00  0.00    +0.098 C 
ATOM      5  C   UNL     1       1.294  -3.792   8.915  0.00  0.00    +0.055 C 
ATOM      6  C   UNL     1       1.172  -5.067   8.336  0.00  0.00    +0.024 C 
ATOM      7  C   UNL     1       1.131  -5.193   6.987  0.00  0.00    +0.045 C 
ATOM      8  C   UNL     1       1.211  -4.033   6.166  0.00  0.00    +0.122 C 
ATOM      9  N   UNL     1       1.188  -3.962   4.848  0.00  0.00    -0.261 NA
ATOM     10 CL   UNL     1       1.347  -3.624  10.643  0.00  0.00    -0.082 Cl
ENDROOT
BRANCH   1  18
ATOM     11  C   UNL     1      -2.797  -5.370   0.800  0.00  0.00    +0.045 C 
ATOM     12  C   UNL     1      -2.936  -4.742   2.163  0.00  0.00    -0.029 A 
ATOM     13  C   UNL     1      -4.029  -5.014   2.923  0.00  0.00    +0.005 A 
ATOM     14  C   UNL     1      -4.218  -4.467   4.192  0.00  0.00    +0.001 A 
ATOM     15  C   UNL     1      -3.307  -3.623   4.742  0.00  0.00    +0.009 A 
ATOM     16  C   UNL     1      -2.105  -3.287   3.977  0.00  0.00    -0.007 A 
ATOM     17  C   UNL     1      -1.163  -2.445   4.489  0.00  0.00    -0.003 C 
ATOM     18  C   UNL     1       0.050  -2.153   3.627  0.00  0.00    +0.126 C 
ATOM     19  C   UNL     1       0.116  -2.819   2.272  0.00  0.00    +0.226 C 
ATOM     20  O   UNL     1       1.067  -2.621   1.539  0.00  0.00    -0.275 OA
ATOM     21  N   UNL     1      -0.863  -3.620   1.885  0.00  0.00    -0.284 N 
ATOM     22  C   UNL     1      -1.929  -3.884   2.642  0.00  0.00    +0.043 A 
ATOM     23  H   UNL     1      -0.801  -4.038   1.012  0.00  0.00    +0.155 HD
ENDBRANCH   1  18
BRANCH   2  24
ATOM     24  N   UNL     1       2.666  -1.040   5.797  0.00  0.00    -0.289 NA
ATOM     25  H   UNL     1       3.326  -1.523   6.388  0.00  0.00    +0.124 HD
BRANCH  24  26
ATOM     26  C   UNL     1       2.460   0.340   6.255  0.00  0.00    +0.157 C 
BRANCH  26  27
ATOM     27  C   UNL     1       3.786   1.054   6.314  0.00  0.00    +0.119 A 
ATOM     28  C   UNL     1       4.347   1.754   5.312  0.00  0.00    +0.046 A 
ATOM     29  C   UNL     1       5.579   2.249   5.798  0.00  0.00    +0.041 A 
ATOM     30  C   UNL     1       5.697   1.821   7.068  0.00  0.00    +0.195 A 
ATOM     31  O   UNL     1       4.605   1.102   7.377  0.00  0.00    -0.467 OA
ENDBRANCH  26  27
ENDBRANCH  24  26
ENDBRANCH   2  24
TORSDOF 4
