REMARK  Name = ZINC38549503
REMARK  8 active torsions:
REMARK  status: ('A' for Active; 'I' for Inactive)
REMARK    1  A    between atoms: C_1  and  O_2
REMARK    2  A    between atoms: O_2  and  C_3
REMARK    3  A    between atoms: C_3  and  C_4
REMARK    4  A    between atoms: C_4  and  O_5
REMARK    5  A    between atoms: O_5  and  C_6
REMARK    6  A    between atoms: C_6  and  C_8
REMARK    7  A    between atoms: C_9  and  N_33
REMARK    8  A    between atoms: C_19  and  O_32
REMARK                            x       y       z     vdW  Elec       q    Type
REMARK                         _______ _______ _______ _____ _____    ______ ____
ROOT
ATOM      1  C   UNL     1       0.254  -4.372   2.543  0.00  0.00    +0.117 C 
ATOM      2  C   UNL     1       0.385  -5.713   2.720  0.00  0.00    +0.196 C 
ATOM      3  O   UNL     1       0.981  -6.219   3.812  0.00  0.00    -0.441 OA
ATOM      4  C   UNL     1       1.108  -5.466   4.931  0.00  0.00    +0.146 A 
ATOM      5  C   UNL     1       1.333  -6.108   6.170  0.00  0.00    +0.025 A 
ATOM      6  C   UNL     1       1.423  -7.507   6.253  0.00  0.00    +0.012 A 
ATOM      7  C   UNL     1       1.640  -8.098   7.460  0.00  0.00    +0.001 A 
ATOM      8  C   UNL     1       1.774  -7.335   8.619  0.00  0.00    +0.001 A 
ATOM      9  C   UNL     1       1.693  -5.977   8.576  0.00  0.00    +0.009 A 
ATOM     10  C   UNL     1       1.470  -5.333   7.347  0.00  0.00    -0.011 A 
ATOM     11  C   UNL     1       1.380  -3.933   7.264  0.00  0.00    +0.054 A 
ATOM     12  C   UNL     1       1.158  -3.339   6.044  0.00  0.00    +0.126 A 
ATOM     13  C   UNL     1       1.021  -4.106   4.880  0.00  0.00    +0.061 A 
ATOM     14  C   UNL     1       0.779  -3.408   3.567  0.00  0.00    +0.142 C 
ATOM     15  C   UNL     1       2.023  -2.734   3.080  0.00  0.00    -0.001 A 
ATOM     16  C   UNL     1       3.257  -3.239   2.729  0.00  0.00    +0.022 A 
ATOM     17  C   UNL     1       4.217  -2.324   2.308  0.00  0.00    +0.018 A 
ATOM     18  C   UNL     1       3.942  -0.972   2.248  0.00  0.00    +0.017 A 
ATOM     19  C   UNL     1       2.705  -0.457   2.600  0.00  0.00    +0.025 A 
ATOM     20  C   UNL     1       1.733  -1.366   3.023  0.00  0.00    +0.038 A 
ATOM     21  N   UNL     1       0.430  -1.134   3.428  0.00  0.00    -0.284 N 
ATOM     22  C   UNL     1      -0.206  -2.275   3.766  0.00  0.00    +0.237 C 
ATOM     23  O   UNL     1      -1.351  -2.374   4.155  0.00  0.00    -0.274 OA
ATOM     24 BR   UNL     1       5.932  -2.944   1.810  0.00  0.00    -0.050 Br
ATOM     25  H   UNL     1       0.022  -0.254   3.465  0.00  0.00    +0.155 HD
ENDROOT
BRANCH   2  26
ATOM     26  N   UNL     1      -0.100  -6.566   1.766  0.00  0.00    -0.329 N 
ATOM     27  H   UNL     1      -0.452  -6.213   0.934  0.00  0.00    +0.145 HD
ATOM     28  H   UNL     1      -0.093  -7.524   1.922  0.00  0.00    +0.145 HD
ENDBRANCH   2  26
BRANCH   1  29
ATOM     29  C   UNL     1      -0.373  -3.883   1.388  0.00  0.00    +0.342 C 
ATOM     30  O   UNL     1       0.298  -3.451   0.467  0.00  0.00    -0.245 OA
BRANCH  29  31
ATOM     31  O   UNL     1      -1.721  -3.890   1.296  0.00  0.00    -0.459 OA
BRANCH  31  32
ATOM     32  C   UNL     1      -2.292  -3.377   0.091  0.00  0.00    +0.260 C 
BRANCH  32  33
ATOM     33  C   UNL     1      -3.817  -3.466   0.171  0.00  0.00    +0.200 C 
BRANCH  33  35
ATOM     34  C   UNL     1      -5.711  -2.615   1.369  0.00  0.00    +0.194 C 
ATOM     35  O   UNL     1      -4.291  -2.607   1.210  0.00  0.00    -0.380 OA
ENDBRANCH  33  35
ENDBRANCH  32  33
ENDBRANCH  31  32
ENDBRANCH  29  31
ENDBRANCH   1  29
BRANCH  12  36
ATOM     36  O   UNL     1       1.071  -1.986   5.967  0.00  0.00    -0.506 OA
ATOM     37  H   UNL     1       1.917  -1.545   5.809  0.00  0.00    +0.292 HD
ENDBRANCH  12  36
TORSDOF 7
