REMARK  Name = ZINC40593908
REMARK  8 active torsions:
REMARK  status: ('A' for Active; 'I' for Inactive)
REMARK    1  A    between atoms: C_1  and  C_2
REMARK    2  A    between atoms: N_6  and  C_25
REMARK    3  A    between atoms: C_9  and  C_14
REMARK    4  A    between atoms: C_17  and  C_19
REMARK    5  A    between atoms: C_25  and  C_26
REMARK    6  A    between atoms: C_26  and  N_27
REMARK    7  A    between atoms: N_27  and  C_28
REMARK    8  A    between atoms: N_27  and  C_29
REMARK                            x       y       z     vdW  Elec       q    Type
REMARK                         _______ _______ _______ _____ _____    ______ ____
ROOT
ATOM      1  C   UNL     1      -0.019   1.526   0.010  0.00  0.00    +0.062 C 
ATOM      2  C   UNL     1       0.002  -0.004   0.002  0.00  0.00    +0.256 C 
ATOM      3  C   UNL     1       0.706  -0.490  -1.239  0.00  0.00    +0.260 C 
ATOM      4  O   UNL     1       0.074  -0.718  -2.249  0.00  0.00    -0.271 OA
ATOM      5  N   UNL     1       2.045  -0.669  -1.223  0.00  0.00    -0.267 N 
ATOM      6  C   UNL     1       2.748  -0.430  -0.033  0.00  0.00    +0.079 A 
ATOM      7  C   UNL     1       4.124  -0.287  -0.044  0.00  0.00    +0.037 A 
ATOM      8  C   UNL     1       4.804  -0.052   1.149  0.00  0.00    +0.003 A 
ATOM      9  C   UNL     1       4.096   0.038   2.347  0.00  0.00    +0.014 A 
ATOM     10  C   UNL     1       2.723  -0.105   2.353  0.00  0.00    +0.048 A 
ATOM     11  C   UNL     1       2.045  -0.338   1.168  0.00  0.00    +0.143 A 
ATOM     12  O   UNL     1       0.692  -0.477   1.161  0.00  0.00    -0.478 OA
ENDROOT
BRANCH   8  13
ATOM     13  C   UNL     1       6.280   0.103   1.145  0.00  0.00    +0.079 A 
ATOM     14  C   UNL     1       6.955   0.329   2.317  0.00  0.00    +0.075 A 
ATOM     15  S   UNL     1       8.636   0.426   1.717  0.00  0.00    -0.075 S 
ATOM     16  C   UNL     1       8.271   0.158  -0.013  0.00  0.00    +0.109 A 
ATOM     17  N   UNL     1       6.955   0.018   0.015  0.00  0.00    -0.239 NA
BRANCH  16  18
ATOM     18  C   UNL     1       9.194   0.102  -1.166  0.00  0.00    +0.007 A 
ATOM     19  C   UNL     1       8.696  -0.115  -2.452  0.00  0.00    +0.010 A 
ATOM     20  C   UNL     1       9.563  -0.166  -3.524  0.00  0.00    +0.001 A 
ATOM     21  C   UNL     1      10.923  -0.003  -3.327  0.00  0.00    +0.000 A 
ATOM     22  C   UNL     1      11.422   0.212  -2.055  0.00  0.00    +0.001 A 
ATOM     23  C   UNL     1      10.566   0.272  -0.975  0.00  0.00    +0.010 A 
ENDBRANCH  16  18
ENDBRANCH   8  13
BRANCH   5  24
ATOM     24  C   UNL     1       2.752  -1.105  -2.430  0.00  0.00    +0.095 C 
BRANCH  24  25
ATOM     25  C   UNL     1       3.187   0.120  -3.237  0.00  0.00    -0.060 C 
BRANCH  25  26
ATOM     26  N   UNL     1       3.895  -0.317  -4.447  0.00  0.00    +0.377 N 
ATOM     27  C   UNL     1       2.968  -1.048  -5.320  0.00  0.00    -0.097 C 
ATOM     28  C   UNL     1       4.417   0.857  -5.160  0.00  0.00    -0.097 C 
ATOM     29  H   UNL     1       4.661  -0.921  -4.189  0.00  0.00    -0.083 HD
ENDBRANCH  25  26
ENDBRANCH  24  25
ENDBRANCH   5  24
TORSDOF 5
