REMARK  Name = ZINC36206673
REMARK  17 active torsions:
REMARK  status: ('A' for Active; 'I' for Inactive)
REMARK    1  A    between atoms: C_1  and  C_2
REMARK    2  A    between atoms: C_2  and  C_3
REMARK    3  A    between atoms: C_3  and  C_4
REMARK    4  A    between atoms: C_4  and  O_6
REMARK    5  A    between atoms: O_6  and  C_7
REMARK    6  A    between atoms: C_7  and  C_8
REMARK    7  A    between atoms: C_8  and  C_10
REMARK    8  A    between atoms: C_8  and  O_36
REMARK    9  A    between atoms: C_10  and  N_11
REMARK   10  A    between atoms: N_11  and  C_12
REMARK   11  A    between atoms: N_11  and  C_30
REMARK   12  A    between atoms: C_12  and  C_13
REMARK   13  A    between atoms: C_19  and  C_29
REMARK   14  A    between atoms: C_20  and  C_24
REMARK   15  A    between atoms: C_24  and  O_26
REMARK   16  A    between atoms: O_26  and  C_27
REMARK   17  A    between atoms: C_27  and  C_28
REMARK                            x       y       z     vdW  Elec       q    Type
REMARK                         _______ _______ _______ _____ _____    ______ ____
ROOT
ATOM      1  N   UNL     1       3.036  -6.777  -4.403  0.00  0.00    +0.388 N 
ATOM      2  H   UNL     1       3.046  -6.357  -5.320  0.00  0.00    -0.081 HD
ENDROOT
BRANCH   1   3
ATOM      3  C   UNL     1       4.346  -6.591  -3.765  0.00  0.00    -0.068 C 
ATOM      4  C   UNL     1       4.306  -7.155  -2.344  0.00  0.00    -0.015 C 
ATOM      5  C   UNL     1       5.670  -6.962  -1.679  0.00  0.00    -0.002 C 
ATOM      6  C   UNL     1       6.740  -7.697  -2.489  0.00  0.00    -0.000 C 
ATOM      7  C   UNL     1       6.781  -7.133  -3.911  0.00  0.00    -0.002 C 
ATOM      8  C   UNL     1       5.416  -7.327  -4.575  0.00  0.00    -0.015 C 
ENDBRANCH   1   3
BRANCH   1   9
ATOM      9  C   UNL     1       1.997  -6.139  -3.583  0.00  0.00    -0.043 C 
BRANCH   9  10
ATOM     10  C   UNL     1       2.223  -4.626  -3.560  0.00  0.00    +0.136 C 
BRANCH  10  11
ATOM     11  O   UNL     1       2.153  -4.114  -4.893  0.00  0.00    -0.390 OA
ATOM     12  H   UNL     1       1.304  -4.269  -5.329  0.00  0.00    +0.210 HD
ENDBRANCH  10  11
BRANCH  10  13
ATOM     13  C   UNL     1       1.145  -3.963  -2.701  0.00  0.00    +0.261 C 
BRANCH  13  14
ATOM     14  O   UNL     1       1.422  -2.566  -2.584  0.00  0.00    -0.462 OA
BRANCH  14  15
ATOM     15  C   UNL     1       0.565  -1.833  -1.857  0.00  0.00    +0.307 C 
ATOM     16  O   UNL     1      -0.390  -2.361  -1.336  0.00  0.00    -0.251 OA
BRANCH  15  17
ATOM     17  C   UNL     1       0.792  -0.353  -1.688  0.00  0.00    +0.120 C 
BRANCH  17  19
ATOM     18  C   UNL     1      -0.090   1.742  -0.651  0.00  0.00    +0.004 C 
ATOM     19  C   UNL     1      -0.321   0.239  -0.822  0.00  0.00    +0.008 C 
ENDBRANCH  17  19
ENDBRANCH  15  17
ENDBRANCH  14  15
ENDBRANCH  13  14
ENDBRANCH  10  13
ENDBRANCH   9  10
ENDBRANCH   1   9
BRANCH   1  20
ATOM     20  C   UNL     1       2.750  -8.213  -4.526  0.00  0.00    -0.003 C 
BRANCH  20  21
ATOM     21  C   UNL     1       3.374  -8.743  -5.791  0.00  0.00    +0.094 A 
ATOM     22  N   UNL     1       3.351 -10.078  -6.027  0.00  0.00    -0.312 N 
ATOM     23  H   UNL     1       2.934 -10.667  -5.379  0.00  0.00    +0.170 HD
ATOM     24  C   UNL     1       3.894 -10.602  -7.143  0.00  0.00    +0.260 A 
ATOM     25  O   UNL     1       3.867 -11.803  -7.346  0.00  0.00    -0.267 OA
ATOM     26  C   UNL     1       4.524  -9.681  -8.116  0.00  0.00    +0.076 A 
ATOM     27  C   UNL     1       5.146  -9.972  -9.332  0.00  0.00    -0.015 A 
ATOM     28  C   UNL     1       5.668  -8.962 -10.087  0.00  0.00    +0.102 A 
ATOM     29  S   UNL     1       5.306  -7.512  -9.111  0.00  0.00    -0.062 S 
ATOM     30  C   UNL     1       4.485  -8.314  -7.757  0.00  0.00    +0.116 A 
ATOM     31  N   UNL     1       3.917  -7.903  -6.630  0.00  0.00    -0.229 NA
ATOM     32  C   UNL     1       5.243 -11.399  -9.808  0.00  0.00    +0.046 C 
BRANCH  28  33
ATOM     33  C   UNL     1       6.355  -9.047 -11.377  0.00  0.00    +0.346 C 
ATOM     34  O   UNL     1       6.519 -10.128 -11.909  0.00  0.00    -0.244 OA
BRANCH  33  35
ATOM     35  O   UNL     1       6.805  -7.925 -11.977  0.00  0.00    -0.461 OA
BRANCH  35  36
ATOM     36  C   UNL     1       7.466  -8.082 -13.234  0.00  0.00    +0.229 C 
ATOM     37  C   UNL     1       7.902  -6.711 -13.755  0.00  0.00    +0.048 C 
ENDBRANCH  35  36
ENDBRANCH  33  35
ENDBRANCH  28  33
ENDBRANCH  20  21
ENDBRANCH   1  20
TORSDOF 14
