REMARK  Name = ZINC66946779
REMARK  6 active torsions:
REMARK  status: ('A' for Active; 'I' for Inactive)
REMARK    1  A    between atoms: C_1  and  N_2
REMARK    2  A    between atoms: N_2  and  C_3
REMARK    3  A    between atoms: N_2  and  C_4
REMARK    4  A    between atoms: C_4  and  C_5
REMARK    5  A    between atoms: C_12  and  C_14
REMARK    6  A    between atoms: N_17  and  C_19
REMARK                            x       y       z     vdW  Elec       q    Type
REMARK                         _______ _______ _______ _____ _____    ______ ____
ROOT
ATOM      1  C   UNL     1      -0.630   1.380  -3.806  0.00  0.00    +0.151 A 
ATOM      2  C   UNL     1       0.298   2.407  -4.097  0.00  0.00    +0.006 A 
ATOM      3  C   UNL     1       0.451   2.395  -5.438  0.00  0.00    +0.049 A 
ATOM      4  N   UNL     1      -0.351   1.408  -5.921  0.00  0.00    -0.236 N 
ATOM      5  N   UNL     1      -0.966   0.827  -4.955  0.00  0.00    -0.161 NA
ATOM      6  C   UNL     1       1.433   3.465  -5.861  0.00  0.00    +0.056 C 
ATOM      7  C   UNL     1       1.538   4.414  -4.647  0.00  0.00    +0.011 C 
ATOM      8  C   UNL     1       1.157   3.481  -3.476  0.00  0.00    +0.040 C 
ENDROOT
BRANCH   1  15
ATOM      9  C   UNL     1      -2.550  -0.374  -1.025  0.00  0.00    +0.060 C 
ATOM     10  C   UNL     1      -4.068  -0.197  -0.923  0.00  0.00    +0.021 C 
ATOM     11  C   UNL     1      -4.741  -0.919  -2.093  0.00  0.00    +0.003 C 
ATOM     12  C   UNL     1      -4.270  -0.304  -3.413  0.00  0.00    +0.019 C 
ATOM     13  C   UNL     1      -2.754  -0.482  -3.543  0.00  0.00    +0.108 C 
ATOM     14  N   UNL     1      -2.106   0.080  -2.350  0.00  0.00    -0.295 N 
ATOM     15  C   UNL     1      -1.125   0.997  -2.468  0.00  0.00    +0.267 C 
ATOM     16  O   UNL     1      -0.647   1.508  -1.474  0.00  0.00    -0.268 OA
BRANCH   9  17
ATOM     17  C   UNL     1      -1.863   0.458   0.059  0.00  0.00    -0.057 C 
BRANCH  17  19
ATOM     18  C   UNL     1      -1.377   0.576   2.406  0.00  0.00    -0.097 C 
ATOM     19  N   UNL     1      -2.189  -0.094   1.381  0.00  0.00    +0.377 N 
ATOM     20  C   UNL     1      -3.614   0.123   1.665  0.00  0.00    -0.097 C 
ATOM     21  H   UNL     1      -1.991  -1.084   1.390  0.00  0.00    -0.083 HD
ENDBRANCH  17  19
ENDBRANCH   9  17
ENDBRANCH   1  15
BRANCH   4  22
ATOM     22  C   UNL     1      -0.482   1.069  -7.275  0.00  0.00    +0.069 A 
ATOM     23  C   UNL     1      -0.415   2.058  -8.248  0.00  0.00    +0.031 A 
ATOM     24  C   UNL     1      -0.545   1.724  -9.582  0.00  0.00    +0.043 A 
ATOM     25  C   UNL     1      -0.741   0.405  -9.951  0.00  0.00    +0.159 A 
ATOM     26  C   UNL     1      -0.807  -0.585  -8.982  0.00  0.00    +0.160 A 
ATOM     27  C   UNL     1      -0.672  -0.255  -7.646  0.00  0.00    +0.069 A 
ATOM     28  F   UNL     1      -1.000  -1.873  -9.343  0.00  0.00    -0.202 F 
ATOM     29  F   UNL     1      -0.868   0.080 -11.256  0.00  0.00    -0.202 F 
ENDBRANCH   4  22
TORSDOF 4
