REMARK  Name = ZINC48948535
REMARK  4 active torsions:
REMARK  status: ('A' for Active; 'I' for Inactive)
REMARK    1  A    between atoms: C_1  and  C_2
REMARK    2  A    between atoms: C_2  and  C_4
REMARK    3  A    between atoms: C_2  and  N_18
REMARK    4  A    between atoms: N_6  and  C_7
REMARK                            x       y       z     vdW  Elec       q    Type
REMARK                         _______ _______ _______ _____ _____    ______ ____
ROOT
ATOM      1  C   UNL     1       0.707  -0.490  -1.238  0.00  0.00    +0.234 C 
ATOM      2  O   UNL     1       1.704  -1.174  -1.140  0.00  0.00    -0.274 OA
ATOM      3  N   UNL     1       0.231  -0.164  -2.456  0.00  0.00    -0.307 N 
ATOM      4  H   UNL     1      -0.566   0.383  -2.534  0.00  0.00    +0.149 HD
ENDROOT
BRANCH   3   5
ATOM      5  C   UNL     1       0.917  -0.637  -3.661  0.00  0.00    +0.104 C 
ATOM      6  C   UNL     1      -0.061  -0.670  -4.855  0.00  0.00    +0.032 C 
ATOM      7  C   UNL     1       0.850  -0.285  -6.040  0.00  0.00    +0.037 C 
ATOM      8  C   UNL     1       1.963   0.541  -5.432  0.00  0.00    -0.041 A 
ATOM      9  C   UNL     1       2.003   0.338  -4.063  0.00  0.00    -0.024 A 
ATOM     10  C   UNL     1       2.949   0.994  -3.294  0.00  0.00    +0.007 A 
ATOM     11  C   UNL     1       3.855   1.851  -3.888  0.00  0.00    +0.020 A 
ATOM     12  C   UNL     1       3.818   2.055  -5.255  0.00  0.00    +0.041 A 
ATOM     13  C   UNL     1       2.869   1.401  -6.028  0.00  0.00    +0.024 A 
ATOM     14 CL   UNL     1       4.955   3.132  -6.005  0.00  0.00    -0.084 Cl
ENDBRANCH   3   5
BRANCH   1  16
ATOM     15  C   UNL     1      -0.019   1.526   0.010  0.00  0.00    +0.038 C 
ATOM     16  C   UNL     1       0.002  -0.004   0.002  0.00  0.00    +0.157 C 
BRANCH  16  17
ATOM     17  N   UNL     1       0.711  -0.489   1.189  0.00  0.00    -0.289 N 
ATOM     18  C   UNL     1       0.051  -0.633   2.355  0.00  0.00    +0.298 C 
ATOM     19  O   UNL     1      -1.132  -0.361   2.423  0.00  0.00    -0.253 OA
ATOM     20  N   UNL     1       0.703  -1.080   3.447  0.00  0.00    -0.313 N 
ATOM     21  H   UNL     1       1.654  -0.707   1.135  0.00  0.00    +0.151 HD
ATOM     22  H   UNL     1       1.647  -1.298   3.394  0.00  0.00    +0.146 HD
ATOM     23  H   UNL     1       0.229  -1.184   4.287  0.00  0.00    +0.146 HD
ENDBRANCH  16  17
ENDBRANCH   1  16
TORSDOF 3
