REMARK  Name = ZINC02362424
REMARK  9 active torsions:
REMARK  status: ('A' for Active; 'I' for Inactive)
REMARK    1  A    between atoms: C_1  and  C_2
REMARK    2  A    between atoms: C_2  and  C_3
REMARK    3  A    between atoms: C_2  and  C_4
REMARK    4  A    between atoms: C_2  and  C_5
REMARK    5  A    between atoms: C_8  and  C_11
REMARK    6  A    between atoms: C_11  and  O_13
REMARK    7  A    between atoms: O_13  and  C_14
REMARK    8  A    between atoms: C_17  and  C_20
REMARK    9  A    between atoms: C_31  and  N_63
REMARK                            x       y       z     vdW  Elec       q    Type
REMARK                         _______ _______ _______ _____ _____    ______ ____
ROOT
ATOM      1  C   UNL     1       2.826  -3.020  -6.660  0.00  0.00    +0.132 A 
ATOM      2  C   UNL     1       4.157  -2.633  -6.707  0.00  0.00    +0.047 A 
ATOM      3  C   UNL     1       4.952  -3.025  -7.766  0.00  0.00    +0.010 A 
ATOM      4  C   UNL     1       4.419  -3.793  -8.785  0.00  0.00    -0.009 A 
ATOM      5  C   UNL     1       3.091  -4.175  -8.743  0.00  0.00    +0.010 A 
ATOM      6  C   UNL     1       2.293  -3.790  -7.683  0.00  0.00    +0.047 A 
ENDROOT
BRANCH   4   7
ATOM      7  C   UNL     1       5.287  -4.214  -9.943  0.00  0.00    +0.190 C 
ATOM      8  N   UNL     1       6.351  -3.212 -10.139  0.00  0.00    -0.316 N 
ATOM      9  C   UNL     1       6.019  -2.098 -10.866  0.00  0.00    +0.080 A 
ATOM     10  C   UNL     1       4.966  -2.077 -11.793  0.00  0.00    +0.068 A 
ATOM     11  C   UNL     1       4.761  -0.818 -12.488  0.00  0.00    -0.027 A 
ATOM     12  C   UNL     1       5.606   0.184 -12.148  0.00  0.00    -0.021 A 
ATOM     13  S   UNL     1       6.675  -0.517 -10.921  0.00  0.00    -0.080 S 
ATOM     14  C   UNL     1       5.611   1.571 -12.708  0.00  0.00    -0.036 C 
ATOM     15  C   UNL     1       3.495   0.931 -13.698  0.00  0.00    -0.074 C 
ATOM     16  C   UNL     1       3.682  -0.580 -13.537  0.00  0.00    +0.018 C 
ATOM     17  C   UNL     1       4.615   2.945 -14.443  0.00  0.00    -0.096 C 
ATOM     18  C   UNL     1       4.189  -3.325 -11.974  0.00  0.00    +0.248 C 
ATOM     19  O   UNL     1       3.342  -3.424 -12.843  0.00  0.00    -0.270 OA
ATOM     20  N   UNL     1       4.459  -4.348 -11.137  0.00  0.00    -0.289 N 
ATOM     21  H   UNL     1       7.240  -3.335  -9.772  0.00  0.00    +0.149 HD
ATOM     22  H   UNL     1       4.082  -5.219 -11.339  0.00  0.00    +0.151 HD
ATOM     23  N   UNL     1       4.806   1.562 -13.954  0.00  0.00    +0.381 N 
ATOM     24  H   UNL     1       5.304   1.020 -14.670  0.00  0.00    -0.082 HD
ENDBRANCH   4   7
BRANCH   1  25
ATOM     25  O   UNL     1       2.043  -2.639  -5.616  0.00  0.00    -0.422 OA
BRANCH  25  26
ATOM     26  C   UNL     1       1.780  -3.570  -4.678  0.00  0.00    +0.344 C 
ATOM     27  O   UNL     1       2.161  -4.713  -4.832  0.00  0.00    -0.245 OA
BRANCH  26  31
ATOM     28  C   UNL     1      -0.383  -2.507  -1.181  0.00  0.00    -0.042 A 
ATOM     29  C   UNL     1      -0.118  -1.550  -2.145  0.00  0.00    +0.005 A 
ATOM     30  C   UNL     1       0.588  -1.887  -3.280  0.00  0.00    +0.015 A 
ATOM     31  C   UNL     1       1.027  -3.200  -3.462  0.00  0.00    +0.059 A 
ATOM     32  C   UNL     1       0.753  -4.162  -2.487  0.00  0.00    +0.015 A 
ATOM     33  C   UNL     1       0.050  -3.810  -1.354  0.00  0.00    +0.005 A 
BRANCH  28  35
ATOM     34  C   UNL     1      -0.289  -2.403   1.295  0.00  0.00    +0.015 C 
ATOM     35  C   UNL     1      -1.150  -2.130   0.060  0.00  0.00    -0.013 C 
ATOM     36  C   UNL     1      -2.432  -2.961   0.139  0.00  0.00    +0.015 C 
ATOM     37  C   UNL     1      -1.508  -0.644   0.006  0.00  0.00    +0.015 C 
ENDBRANCH  28  35
ENDBRANCH  26  31
ENDBRANCH  25  26
ENDBRANCH   1  25
TORSDOF 5
