REMARK  Name = ZINC66948806
REMARK  7 active torsions:
REMARK  status: ('A' for Active; 'I' for Inactive)
REMARK    1  A    between atoms: C_1  and  N_2
REMARK    2  A    between atoms: N_2  and  C_3
REMARK    3  A    between atoms: N_2  and  C_4
REMARK    4  A    between atoms: C_4  and  C_5
REMARK    5  A    between atoms: C_12  and  C_14
REMARK    6  A    between atoms: C_14  and  C_15
REMARK    7  A    between atoms: C_15  and  N_16
REMARK                            x       y       z     vdW  Elec       q    Type
REMARK                         _______ _______ _______ _____ _____    ______ ____
ROOT
ATOM      1  C   UNL     1       2.069  -0.161  -1.033  0.00  0.00    +0.059 C 
ATOM      2  C   UNL     1       2.887  -0.574  -2.261  0.00  0.00    +0.021 C 
ATOM      3  C   UNL     1       4.366  -0.274  -2.007  0.00  0.00    +0.003 C 
ATOM      4  C   UNL     1       4.855  -1.086  -0.806  0.00  0.00    +0.019 C 
ATOM      5  C   UNL     1       4.059  -0.678   0.438  0.00  0.00    +0.108 C 
ATOM      6  N   UNL     1       2.624  -0.824   0.154  0.00  0.00    -0.300 N 
ATOM      7  C   UNL     1       1.834  -1.555   0.965  0.00  0.00    +0.217 C 
ATOM      8  O   UNL     1       0.637  -1.588   0.776  0.00  0.00    -0.276 OA
ENDROOT
BRANCH   1   9
ATOM      9  C   UNL     1       0.611  -0.584  -1.222  0.00  0.00    -0.057 C 
BRANCH   9  11
ATOM     10  C   UNL     1       0.347  -0.847  -3.592  0.00  0.00    -0.097 C 
ATOM     11  N   UNL     1       0.077   0.030  -2.445  0.00  0.00    +0.377 N 
ATOM     12  C   UNL     1      -1.373   0.220  -2.305  0.00  0.00    -0.097 C 
ATOM     13  H   UNL     1       0.520   0.924  -2.593  0.00  0.00    -0.083 HD
ENDBRANCH   9  11
ENDBRANCH   1   9
BRANCH   7  14
ATOM     14  C   UNL     1       2.439  -2.332   2.107  0.00  0.00    +0.114 C 
BRANCH  14  15
ATOM     15  C   UNL     1       1.333  -3.069   2.864  0.00  0.00    +0.115 C 
BRANCH  15  16
ATOM     16  N   UNL     1       1.920  -3.824   3.974  0.00  0.00    -0.299 N 
ATOM     17  C   UNL     1       1.130  -4.555   4.785  0.00  0.00    +0.297 C 
ATOM     18  O   UNL     1      -0.070  -4.588   4.595  0.00  0.00    -0.253 OA
ATOM     19  N   UNL     1       1.671  -5.250   5.805  0.00  0.00    -0.313 N 
ATOM     20  H   UNL     1       2.878  -3.798   4.125  0.00  0.00    +0.150 HD
ATOM     21  H   UNL     1       2.629  -5.223   5.956  0.00  0.00    +0.146 HD
ATOM     22  H   UNL     1       1.102  -5.776   6.389  0.00  0.00    +0.146 HD
ENDBRANCH  15  16
ENDBRANCH  14  15
ENDBRANCH   7  14
TORSDOF 5
