REMARK  Name = ZINC59272163
REMARK  10 active torsions:
REMARK  status: ('A' for Active; 'I' for Inactive)
REMARK    1  A    between atoms: C_1  and  C_2
REMARK    2  A    between atoms: C_4  and  O_11
REMARK    3  A    between atoms: C_7  and  C_8
REMARK    4  A    between atoms: C_8  and  C_9
REMARK    5  A    between atoms: C_8  and  C_10
REMARK    6  A    between atoms: O_11  and  C_12
REMARK    7  A    between atoms: C_12  and  C_14
REMARK    8  A    between atoms: C_12  and  C_15
REMARK    9  A    between atoms: N_17  and  N_18
REMARK   10  A    between atoms: C_19  and  C_21
REMARK                            x       y       z     vdW  Elec       q    Type
REMARK                         _______ _______ _______ _____ _____    ______ ____
ROOT
ATOM      1  C   UNL     1       1.131  -4.583  -3.626  0.00  0.00    +0.270 C 
ATOM      2  O   UNL     1       1.407  -3.760  -4.473  0.00  0.00    -0.270 OA
ATOM      3  N   UNL     1       1.435  -5.881  -3.822  0.00  0.00    -0.231 N 
ATOM      4  H   UNL     1       1.213  -6.539  -3.145  0.00  0.00    +0.173 HD
ENDROOT
BRANCH   3   5
ATOM      5  N   UNL     1       2.070  -6.280  -5.005  0.00  0.00    -0.231 N 
ATOM      6  C   UNL     1       2.374  -7.579  -5.202  0.00  0.00    +0.273 C 
ATOM      7  O   UNL     1       2.098  -8.401  -4.355  0.00  0.00    -0.270 OA
ATOM      8  H   UNL     1       2.292  -5.623  -5.683  0.00  0.00    +0.173 HD
BRANCH   6   9
ATOM      9  C   UNL     1       3.058  -8.008  -6.474  0.00  0.00    +0.297 C 
ATOM     10  C   UNL     1       4.466  -7.401  -6.536  0.00  0.00    +0.283 C 
ATOM     11  O   UNL     1       5.091  -7.839  -7.747  0.00  0.00    -0.484 OA
ATOM     12  C   UNL     1       4.987  -9.164  -8.044  0.00  0.00    +0.162 A 
ATOM     13  C   UNL     1       5.849  -9.721  -8.977  0.00  0.00    +0.049 A 
ATOM     14  C   UNL     1       5.754 -11.064  -9.291  0.00  0.00    +0.004 A 
ATOM     15  C   UNL     1       4.801 -11.854  -8.676  0.00  0.00    +0.004 A 
ATOM     16  C   UNL     1       3.941 -11.306  -7.744  0.00  0.00    +0.049 A 
ATOM     17  C   UNL     1       4.032  -9.959  -7.423  0.00  0.00    +0.163 A 
ATOM     18  O   UNL     1       3.182  -9.434  -6.498  0.00  0.00    -0.472 OA
ENDBRANCH   6   9
ENDBRANCH   3   5
BRANCH   1  19
ATOM     19  C   UNL     1       0.447  -4.153  -2.353  0.00  0.00    +0.257 C 
ATOM     20  C   UNL     1      -0.899  -4.871  -2.230  0.00  0.00    +0.062 C 
BRANCH  19  21
ATOM     21  O   UNL     1       0.233  -2.741  -2.381  0.00  0.00    -0.480 OA
BRANCH  21  25
ATOM     22  C   UNL     1      -0.018  -3.003   2.486  0.00  0.00    +0.044 C 
ATOM     23  C   UNL     1       0.001  -2.202   1.209  0.00  0.00    -0.044 A 
ATOM     24  C   UNL     1       0.109  -2.847  -0.008  0.00  0.00    +0.049 A 
ATOM     25  C   UNL     1       0.126  -2.109  -1.183  0.00  0.00    +0.122 A 
ATOM     26  C   UNL     1       0.035  -0.726  -1.132  0.00  0.00    +0.046 A 
ATOM     27  C   UNL     1      -0.073  -0.086   0.088  0.00  0.00    +0.008 A 
ATOM     28  C   UNL     1      -0.096  -0.824   1.257  0.00  0.00    -0.042 A 
BRANCH  28  29
ATOM     29  C   UNL     1      -0.220  -0.124   2.586  0.00  0.00    +0.013 C 
ATOM     30  C   UNL     1       1.008   0.759   2.814  0.00  0.00    +0.012 C 
ATOM     31  C   UNL     1      -1.480   0.744   2.589  0.00  0.00    +0.012 C 
ENDBRANCH  28  29
ENDBRANCH  21  25
ENDBRANCH  19  21
ENDBRANCH   1  19
TORSDOF 6
