REMARK  Name = ZINC14144625
REMARK  3 active torsions:
REMARK  status: ('A' for Active; 'I' for Inactive)
REMARK    1  A    between atoms: C_3  and  C_9
REMARK    2  A    between atoms: C_9  and  N_10
REMARK    3  A    between atoms: C_13  and  C_15
REMARK                            x       y       z     vdW  Elec       q    Type
REMARK                         _______ _______ _______ _____ _____    ______ ____
ROOT
ATOM      1  C   UNL     1       1.315   4.664  -3.407  0.00  0.00    +0.039 A 
ATOM      2  C   UNL     1       1.881   3.982  -2.346  0.00  0.00    +0.009 A 
ATOM      3  C   UNL     1       1.193   3.866  -1.153  0.00  0.00    -0.012 A 
ATOM      4  C   UNL     1      -0.057   4.443  -1.015  0.00  0.00    +0.026 A 
ATOM      5  C   UNL     1      -0.621   5.131  -2.074  0.00  0.00    +0.054 A 
ATOM      6  C   UNL     1       0.065   5.242  -3.271  0.00  0.00    +0.124 A 
ATOM      7  F   UNL     1      -0.485   5.914  -4.306  0.00  0.00    -0.205 F 
ATOM      8 BR   UNL     1      -0.993   4.291   0.621  0.00  0.00    -0.050 Br
ENDROOT
BRANCH   3   9
ATOM      9  C   UNL     1       1.808   3.117   0.001  0.00  0.00    +0.181 C 
BRANCH   9  10
ATOM     10  N   UNL     1       1.324   1.734  -0.001  0.00  0.00    -0.246 N 
ATOM     11  C   UNL     1       2.077   0.617  -0.015  0.00  0.00    +0.220 A 
ATOM     12  N   UNL     1       1.279  -0.416  -0.012  0.00  0.00    -0.206 NA
ATOM     13  C   UNL     1       0.002  -0.004   0.002  0.00  0.00    +0.252 A 
ATOM     14  N   UNL     1      -0.016   1.313   0.009  0.00  0.00    -0.139 NA
BRANCH  13  15
ATOM     15  C   UNL     1      -1.150  -0.855   0.009  0.00  0.00    +0.142 C 
ATOM     16  N   UNL     1      -2.063  -1.530   0.014  0.00  0.00    -0.188 NA
ENDBRANCH  13  15
ENDBRANCH   9  10
ENDBRANCH   3   9
TORSDOF 3
