REMARK  Name = ZINC63083832
REMARK  6 active torsions:
REMARK  status: ('A' for Active; 'I' for Inactive)
REMARK    1  A    between atoms: C_1  and  O_2
REMARK    2  A    between atoms: O_2  and  C_3
REMARK    3  A    between atoms: C_6  and  C_9
REMARK    4  A    between atoms: C_11  and  S_16
REMARK    5  A    between atoms: S_16  and  C_17
REMARK    6  A    between atoms: C_19  and  C_30
REMARK                            x       y       z     vdW  Elec       q    Type
REMARK                         _______ _______ _______ _____ _____    ______ ____
ROOT
ATOM      1  C   UNL     1       5.209  -2.347   8.594  0.00  0.00    +0.171 C 
ATOM      2  C   UNL     1       5.587  -1.710   9.918  0.00  0.00    -0.009 C 
ATOM      3  C   UNL     1       6.888  -1.931  10.379  0.00  0.00    +0.003 A 
ATOM      4  C   UNL     1       7.323  -1.376  11.601  0.00  0.00    +0.030 A 
ATOM      5  C   UNL     1       8.595  -1.606  12.028  0.00  0.00    +0.042 A 
ATOM      6  C   UNL     1       9.480  -2.381  11.280  0.00  0.00    +0.022 A 
ATOM      7  C   UNL     1       9.117  -2.942  10.093  0.00  0.00    +0.025 A 
ATOM      8  C   UNL     1       7.818  -2.747   9.592  0.00  0.00    +0.041 A 
ATOM      9  N   UNL     1       7.464  -3.299   8.426  0.00  0.00    -0.284 N 
ATOM     10  C   UNL     1       6.269  -3.163   7.889  0.00  0.00    +0.235 C 
ATOM     11  O   UNL     1       6.017  -3.695   6.824  0.00  0.00    -0.274 OA
ATOM     12 CL   UNL     1       9.125  -0.921  13.532  0.00  0.00    -0.084 Cl
ATOM     13  H   UNL     1       8.123  -3.829   7.951  0.00  0.00    +0.155 HD
ENDROOT
BRANCH   2  14
ATOM     14  C   UNL     1       4.663  -0.926  10.654  0.00  0.00    -0.020 A 
ATOM     15  C   UNL     1       4.903   0.442  10.861  0.00  0.00    +0.008 A 
ATOM     16  C   UNL     1       3.999   1.194  11.577  0.00  0.00    +0.001 A 
ATOM     17  C   UNL     1       2.856   0.606  12.093  0.00  0.00    +0.000 A 
ATOM     18  C   UNL     1       2.610  -0.743  11.895  0.00  0.00    +0.001 A 
ATOM     19  C   UNL     1       3.498  -1.512  11.176  0.00  0.00    +0.008 A 
ENDBRANCH   2  14
BRANCH   1  20
ATOM     20  S   UNL     1       4.685  -1.024   7.470  0.00  0.00    -0.071 S 
BRANCH  20  23
ATOM     21  C   UNL     1       3.049  -1.687   3.984  0.00  0.00    +0.060 C 
ATOM     22  N   UNL     1       3.558  -1.147   5.068  0.00  0.00    -0.228 NA
ATOM     23  C   UNL     1       4.030  -1.882   6.077  0.00  0.00    +0.182 C 
ATOM     24  N   UNL     1       4.044  -3.203   6.115  0.00  0.00    -0.155 NA
ATOM     25  C   UNL     1       3.572  -3.942   5.111  0.00  0.00    +0.244 C 
ATOM     26  O   UNL     1       3.590  -5.157   5.155  0.00  0.00    -0.273 OA
ATOM     27  C   UNL     1       3.005  -3.203   3.913  0.00  0.00    +0.154 C 
BRANCH  21  31
ATOM     28  C   UNL     1       1.573   0.703   0.824  0.00  0.00    +0.120 A 
ATOM     29  C   UNL     1       2.111   1.306   1.956  0.00  0.00    +0.046 A 
ATOM     30  C   UNL     1       2.589   0.539   2.980  0.00  0.00    +0.013 A 
ATOM     31  C   UNL     1       2.537  -0.859   2.889  0.00  0.00    -0.003 A 
ATOM     32  C   UNL     1       1.993  -1.461   1.745  0.00  0.00    +0.013 A 
ATOM     33  C   UNL     1       1.512  -0.684   0.730  0.00  0.00    +0.046 A 
BRANCH  28  35
ATOM     34  C   UNL     1       1.191   2.887  -0.029  0.00  0.00    +0.277 C 
ATOM     35  O   UNL     1       1.099   1.470  -0.190  0.00  0.00    -0.495 OA
ENDBRANCH  28  35
ENDBRANCH  21  31
ENDBRANCH  20  23
ENDBRANCH   1  20
TORSDOF 5
