REMARK  Name = ZINC34748090
REMARK  8 active torsions:
REMARK  status: ('A' for Active; 'I' for Inactive)
REMARK    1  A    between atoms: C_1  and  C_2
REMARK    2  A    between atoms: C_2  and  N_3
REMARK    3  A    between atoms: N_3  and  C_4
REMARK    4  A    between atoms: C_4  and  C_5
REMARK    5  A    between atoms: C_6  and  C_8
REMARK    6  A    between atoms: C_8  and  N_9
REMARK    7  A    between atoms: N_22  and  C_25
REMARK    8  A    between atoms: C_25  and  C_26
REMARK                            x       y       z     vdW  Elec       q    Type
REMARK                         _______ _______ _______ _____ _____    ______ ____
ROOT
ATOM      1  N   UNL     1      -0.207  -1.381  -4.722  0.00  0.00    -0.271 N 
ATOM      2  C   UNL     1      -0.749  -2.595  -4.937  0.00  0.00    +0.264 A 
ATOM      3  O   UNL     1      -0.370  -3.564  -4.302  0.00  0.00    -0.267 OA
ATOM      4  C   UNL     1      -1.777  -2.729  -5.923  0.00  0.00    +0.076 A 
ATOM      5  C   UNL     1      -2.501  -3.949  -6.317  0.00  0.00    -0.023 A 
ATOM      6  C   UNL     1      -3.432  -3.819  -7.276  0.00  0.00    -0.004 A 
ATOM      7  S   UNL     1      -3.409  -2.095  -7.710  0.00  0.00    -0.073 S 
ATOM      8  C   UNL     1      -2.140  -1.554  -6.596  0.00  0.00    +0.117 A 
ATOM      9  N   UNL     1      -1.564  -0.384  -6.337  0.00  0.00    -0.208 NA
ATOM     10  C   UNL     1      -0.623  -0.286  -5.420  0.00  0.00    +0.202 A 
ATOM     11  N   UNL     1      -0.049   0.935  -5.168  0.00  0.00    -0.304 N 
ATOM     12  C   UNL     1       1.141   1.378  -5.909  0.00  0.00    +0.089 C 
ATOM     13  C   UNL     1       0.879   2.787  -6.452  0.00  0.00    -0.059 C 
ATOM     14  N   UNL     1       0.488   3.671  -5.347  0.00  0.00    +0.387 N 
ATOM     15  C   UNL     1      -0.788   3.224  -4.776  0.00  0.00    -0.059 C 
ATOM     16  C   UNL     1      -0.611   1.840  -4.154  0.00  0.00    +0.089 C 
ATOM     17  C   UNL     1      -4.101  -5.128  -7.600  0.00  0.00    +0.043 C 
ATOM     18  C   UNL     1      -3.161  -6.201  -7.007  0.00  0.00    +0.010 C 
ATOM     19  C   UNL     1      -2.461  -5.416  -5.880  0.00  0.00    +0.037 C 
ATOM     20  H   UNL     1       1.201   3.650  -4.633  0.00  0.00    -0.081 HD
ENDROOT
BRANCH   1  21
ATOM     21  C   UNL     1       0.846  -1.233  -3.714  0.00  0.00    +0.224 C 
BRANCH  21  23
ATOM     22  N   UNL     1       1.000  -0.881  -1.271  0.00  0.00    -0.301 N 
ATOM     23  C   UNL     1       0.219  -1.040  -2.357  0.00  0.00    +0.236 C 
ATOM     24  O   UNL     1      -0.989  -1.026  -2.244  0.00  0.00    -0.274 OA
BRANCH  22  26
ATOM     25  C   UNL     1       0.174   0.801   0.302  0.00  0.00    +0.024 C 
ATOM     26  C   UNL     1       0.391  -0.692   0.048  0.00  0.00    +0.104 C 
ENDBRANCH  22  26
BRANCH  22  27
ATOM     27  C   UNL     1       2.458  -0.896  -1.408  0.00  0.00    +0.104 C 
ATOM     28  C   UNL     1       2.970  -2.330  -1.250  0.00  0.00    +0.024 C 
ENDBRANCH  22  27
ENDBRANCH  21  23
ENDBRANCH   1  21
BRANCH  14  29
ATOM     29  C   UNL     1       0.344   5.045  -5.849  0.00  0.00    +0.019 C 
BRANCH  29  30
ATOM     30  C   UNL     1       0.064   5.974  -4.696  0.00  0.00    +0.199 C 
ATOM     31  O   UNL     1      -0.008   5.535  -3.568  0.00  0.00    -0.278 OA
ATOM     32  N   UNL     1      -0.107   7.292  -4.919  0.00  0.00    -0.303 N 
ATOM     33  C   UNL     1      -0.029   7.837  -6.282  0.00  0.00    +0.107 C 
ATOM     34  C   UNL     1      -1.303   8.638  -6.566  0.00  0.00    +0.019 C 
ATOM     35  C   UNL     1      -1.490   9.695  -5.476  0.00  0.00    +0.003 C 
ATOM     36  C   UNL     1      -1.645   9.008  -4.117  0.00  0.00    +0.019 C 
ATOM     37  C   UNL     1      -0.380   8.210  -3.806  0.00  0.00    +0.107 C 
ENDBRANCH  29  30
ENDBRANCH  14  29
TORSDOF 6
