REMARK  Name = ZINC44947884
REMARK  5 active torsions:
REMARK  status: ('A' for Active; 'I' for Inactive)
REMARK    1  A    between atoms: C_1  and  S_2
REMARK    2  A    between atoms: S_2  and  N_5
REMARK    3  A    between atoms: N_5  and  C_6
REMARK    4  A    between atoms: C_10  and  C_12
REMARK    5  A    between atoms: N_14  and  C_15
REMARK                            x       y       z     vdW  Elec       q    Type
REMARK                         _______ _______ _______ _____ _____    ______ ____
ROOT
ATOM      1  C   UNL     1       2.239   0.023  -1.413  0.00  0.00    +0.048 A 
ATOM      2  C   UNL     1       2.675   1.241  -0.903  0.00  0.00    +0.026 A 
ATOM      3  C   UNL     1       4.002   1.607  -1.014  0.00  0.00    +0.022 A 
ATOM      4  C   UNL     1       4.907   0.764  -1.631  0.00  0.00    +0.053 A 
ATOM      5  C   UNL     1       4.479  -0.462  -2.145  0.00  0.00    +0.057 A 
ATOM      6  C   UNL     1       3.139  -0.833  -2.028  0.00  0.00    +0.039 A 
ATOM      7 CL   UNL     1       6.574   1.229  -1.767  0.00  0.00    -0.083 Cl
ENDROOT
BRANCH   5   8
ATOM      8  C   UNL     1       5.444  -1.366  -2.805  0.00  0.00    +0.246 C 
ATOM      9  O   UNL     1       6.612  -1.044  -2.902  0.00  0.00    -0.270 OA
ATOM     10  N   UNL     1       5.029  -2.549  -3.301  0.00  0.00    -0.308 N 
ATOM     11  H   UNL     1       4.096  -2.807  -3.224  0.00  0.00    +0.149 HD
BRANCH  10  12
ATOM     12  C   UNL     1       5.985  -3.445  -3.955  0.00  0.00    +0.077 C 
ATOM     13  C   UNL     1       5.453  -4.897  -3.951  0.00  0.00    +0.026 C 
ATOM     14  C   UNL     1       5.322  -5.273  -5.459  0.00  0.00    -0.009 C 
ATOM     15  C   UNL     1       4.112  -4.432  -5.967  0.00  0.00    +0.004 C 
ATOM     16  C   UNL     1       4.624  -2.973  -5.971  0.00  0.00    +0.005 C 
ATOM     17  C   UNL     1       6.128  -3.079  -5.464  0.00  0.00    +0.010 C 
ATOM     18  C   UNL     1       6.531  -4.475  -6.063  0.00  0.00    +0.009 C 
ENDBRANCH  10  12
ENDBRANCH   5   8
BRANCH   1  19
ATOM     19  N   UNL     1       0.895  -0.341  -1.298  0.00  0.00    -0.221 N 
ATOM     20  H   UNL     1       0.314  -0.303  -2.075  0.00  0.00    +0.173 HD
BRANCH  19  22
ATOM     21  C   UNL     1       1.188  -2.371   0.538  0.00  0.00    +0.218 C 
ATOM     22  S   UNL     1       0.293  -0.839   0.162  0.00  0.00    +0.040 S 
ATOM     23  O   UNL     1      -1.077  -1.121  -0.088  0.00  0.00    -0.155 OA
ATOM     24  O   UNL     1       0.667   0.183   1.075  0.00  0.00    -0.155 OA
ENDBRANCH  19  22
ENDBRANCH   1  19
TORSDOF 4
