REMARK  Name = ZINC13039869
REMARK  11 active torsions:
REMARK  status: ('A' for Active; 'I' for Inactive)
REMARK    1  A    between atoms: C_1  and  C_2
REMARK    2  A    between atoms: C_2  and  C_3
REMARK    3  A    between atoms: C_6  and  C_9
REMARK    4  A    between atoms: C_9  and  C_11
REMARK    5  A    between atoms: C_9  and  N_65
REMARK    6  A    between atoms: C_12  and  C_13
REMARK    7  A    between atoms: C_12  and  N_65
REMARK    8  A    between atoms: C_17  and  S_24
REMARK    9  A    between atoms: N_21  and  C_22
REMARK   10  A    between atoms: C_22  and  C_23
REMARK   11  A    between atoms: S_24  and  N_27
REMARK                            x       y       z     vdW  Elec       q    Type
REMARK                         _______ _______ _______ _____ _____    ______ ____
ROOT
ATOM      1  C   UNL     1      -3.194   1.689   0.748  0.00  0.00    +0.094 A 
ATOM      2  N   UNL     1      -4.255   0.958   0.932  0.00  0.00    -0.234 NA
ATOM      3  C   UNL     1      -3.917  -0.175   1.601  0.00  0.00    +0.091 A 
ATOM      4  C   UNL     1      -4.644  -1.279   2.054  0.00  0.00    +0.058 A 
ATOM      5  C   UNL     1      -4.005  -2.290   2.714  0.00  0.00    +0.108 A 
ATOM      6  C   UNL     1      -2.637  -2.234   2.942  0.00  0.00    +0.030 A 
ATOM      7  C   UNL     1      -1.900  -1.154   2.504  0.00  0.00    +0.030 A 
ATOM      8  C   UNL     1      -2.532  -0.117   1.831  0.00  0.00    +0.069 A 
ATOM      9  N   UNL     1      -2.103   1.072   1.277  0.00  0.00    -0.329 N 
ENDROOT
BRANCH   5  10
ATOM     10  S   UNL     1      -4.927  -3.680   3.282  0.00  0.00    +0.061 S 
ATOM     11  O   UNL     1      -6.091  -3.755   2.470  0.00  0.00    -0.153 OA
ATOM     12  O   UNL     1      -4.008  -4.758   3.398  0.00  0.00    -0.153 OA
BRANCH  10  13
ATOM     13  N   UNL     1      -5.443  -3.331   4.817  0.00  0.00    -0.177 NA
ATOM     14  C   UNL     1      -4.622  -3.687   5.982  0.00  0.00    +0.109 C 
ATOM     15  C   UNL     1      -4.413  -2.428   6.836  0.00  0.00    +0.017 C 
ATOM     16  C   UNL     1      -5.775  -1.826   7.188  0.00  0.00    +0.003 C 
ATOM     17  C   UNL     1      -6.504  -1.421   5.904  0.00  0.00    +0.017 C 
ATOM     18  C   UNL     1      -6.733  -2.664   5.039  0.00  0.00    +0.109 C 
ENDBRANCH  10  13
ENDBRANCH   5  10
BRANCH   9  19
ATOM     19  C   UNL     1      -0.729   1.579   1.267  0.00  0.00    +0.120 C 
ATOM     20  C   UNL     1      -0.013   1.086   0.008  0.00  0.00    +0.027 C 
ENDBRANCH   9  19
BRANCH   1  21
ATOM     21  C   UNL     1      -3.177   3.023   0.048  0.00  0.00    -0.006 C 
BRANCH  21  22
ATOM     22  N   UNL     1      -2.944   2.810  -1.393  0.00  0.00    +0.388 N 
ATOM     23  H   UNL     1      -2.043   2.336  -1.524  0.00  0.00    -0.084 HD
ATOM     24  H   UNL     1      -3.697   2.226  -1.775  0.00  0.00    -0.084 HD
BRANCH  22  25
ATOM     25  C   UNL     1      -2.922   4.102  -2.104  0.00  0.00    -0.043 C 
ATOM     26  C   UNL     1      -4.352   4.514  -2.460  0.00  0.00    -0.009 C 
BRANCH  25  30
ATOM     27  C   UNL     1      -0.626   3.692  -5.683  0.00  0.00    -0.048 A 
ATOM     28  C   UNL     1      -0.521   4.841  -4.923  0.00  0.00    +0.004 A 
ATOM     29  C   UNL     1      -1.264   4.974  -3.765  0.00  0.00    +0.002 A 
ATOM     30  C   UNL     1      -2.112   3.957  -3.367  0.00  0.00    -0.062 A 
ATOM     31  C   UNL     1      -2.213   2.805  -4.125  0.00  0.00    +0.002 A 
ATOM     32  C   UNL     1      -1.473   2.675  -5.285  0.00  0.00    +0.004 A 
BRANCH  27  34
ATOM     33  C   UNL     1       1.531   2.899  -6.615  0.00  0.00    +0.009 C 
ATOM     34  C   UNL     1       0.185   3.547  -6.945  0.00  0.00    +0.032 C 
ENDBRANCH  27  34
ENDBRANCH  25  30
ENDBRANCH  22  25
ENDBRANCH  21  22
ENDBRANCH   1  21
TORSDOF 8
