REMARK  Name = ZINC09882632
REMARK  8 active torsions:
REMARK  status: ('A' for Active; 'I' for Inactive)
REMARK    1  A    between atoms: C_1  and  C_2
REMARK    2  A    between atoms: C_4  and  N_13
REMARK    3  A    between atoms: N_5  and  C_7
REMARK    4  A    between atoms: C_14  and  C_16
REMARK    5  A    between atoms: C_16  and  S_17
REMARK    6  A    between atoms: S_17  and  C_18
REMARK    7  A    between atoms: N_23  and  C_24
REMARK    8  A    between atoms: C_24  and  C_25
REMARK                            x       y       z     vdW  Elec       q    Type
REMARK                         _______ _______ _______ _____ _____    ______ ____
ROOT
ATOM      1  N   UNL     1       5.299  -4.368  -0.074  0.00  0.00    -0.270 N 
ATOM      2  C   UNL     1       5.183  -3.025  -0.065  0.00  0.00    +0.229 C 
ATOM      3  O   UNL     1       6.177  -2.330  -0.071  0.00  0.00    -0.275 OA
ATOM      4  H   UNL     1       4.504  -4.923  -0.069  0.00  0.00    +0.156 HD
ENDROOT
BRANCH   1   8
ATOM      5  C   UNL     1      10.252  -4.984  -0.126  0.00  0.00    +0.067 C 
ATOM      6  C   UNL     1       8.771  -5.266  -0.113  0.00  0.00    +0.062 A 
ATOM      7  C   UNL     1       7.756  -4.305  -0.098  0.00  0.00    +0.068 A 
ATOM      8  C   UNL     1       6.562  -4.958  -0.090  0.00  0.00    +0.129 A 
ATOM      9  N   UNL     1       6.827  -6.293  -0.094  0.00  0.00    -0.218 N 
ATOM     10  N   UNL     1       8.219  -6.452  -0.115  0.00  0.00    -0.170 NA
BRANCH   9  11
ATOM     11  C   UNL     1       5.878  -7.324  -0.083  0.00  0.00    +0.067 A 
ATOM     12  C   UNL     1       4.694  -7.171   0.626  0.00  0.00    +0.028 A 
ATOM     13  C   UNL     1       3.758  -8.187   0.631  0.00  0.00    +0.002 A 
ATOM     14  C   UNL     1       4.004  -9.359  -0.061  0.00  0.00    +0.000 A 
ATOM     15  C   UNL     1       5.184  -9.516  -0.764  0.00  0.00    +0.002 A 
ATOM     16  C   UNL     1       6.122  -8.502  -0.777  0.00  0.00    +0.028 A 
ENDBRANCH   9  11
ENDBRANCH   1   8
BRANCH   2  17
ATOM     17  C   UNL     1       3.818  -2.387  -0.048  0.00  0.00    +0.172 C 
BRANCH  17  18
ATOM     18  S   UNL     1       3.994  -0.582  -0.040  0.00  0.00    -0.088 S 
BRANCH  18  19
ATOM     19  C   UNL     1       2.334   0.009  -0.020  0.00  0.00    +0.160 A 
ATOM     20  N   UNL     1       1.204  -0.673  -0.013  0.00  0.00    -0.133 NA
ATOM     21  N   UNL     1       0.002  -0.004   0.002  0.00  0.00    -0.125 NA
ATOM     22  C   UNL     1      -0.016   1.314   0.009  0.00  0.00    +0.183 A 
ATOM     23  S   UNL     1       1.730   1.690  -0.005  0.00  0.00    -0.025 S 
ATOM     24  N   UNL     1      -1.103   2.180   0.019  0.00  0.00    -0.315 N 
ATOM     25  H   UNL     1      -0.959   3.140   0.024  0.00  0.00    +0.148 HD
BRANCH  24  26
ATOM     26  C   UNL     1      -2.466   1.645   0.024  0.00  0.00    +0.178 C 
BRANCH  26  27
ATOM     27  C   UNL     1      -3.454   2.783   0.035  0.00  0.00    +0.122 A 
ATOM     28  C   UNL     1      -3.975   3.383  -1.050  0.00  0.00    +0.046 A 
ATOM     29  C   UNL     1      -4.848   4.391  -0.582  0.00  0.00    +0.041 A 
ATOM     30  C   UNL     1      -4.809   4.347   0.762  0.00  0.00    +0.195 A 
ATOM     31  O   UNL     1      -3.967   3.367   1.130  0.00  0.00    -0.466 OA
ENDBRANCH  26  27
ENDBRANCH  24  26
ENDBRANCH  18  19
ENDBRANCH  17  18
ENDBRANCH   2  17
TORSDOF 7
