REMARK  Name = ZINC39586872
REMARK  5 active torsions:
REMARK  status: ('A' for Active; 'I' for Inactive)
REMARK    1  A    between atoms: C_4  and  C_7
REMARK    2  A    between atoms: C_7  and  O_8
REMARK    3  A    between atoms: O_8  and  C_9
REMARK    4  A    between atoms: C_14  and  C_20
REMARK    5  A    between atoms: C_26  and  C_30
REMARK                            x       y       z     vdW  Elec       q    Type
REMARK                         _______ _______ _______ _____ _____    ______ ____
ROOT
ATOM      1  C   UNL     1       5.317  -1.604   1.466  0.00  0.00    +0.125 A 
ATOM      2  C   UNL     1       6.045  -2.006   0.347  0.00  0.00    +0.046 A 
ATOM      3  C   UNL     1       7.229  -2.668   0.494  0.00  0.00    +0.015 A 
ATOM      4  C   UNL     1       7.716  -2.946   1.776  0.00  0.00    +0.018 A 
ATOM      5  C   UNL     1       8.984  -3.655   1.964  0.00  0.00    +0.026 A 
ATOM      6  C   UNL     1       9.403  -3.894   3.233  0.00  0.00    +0.080 A 
ATOM      7  C   UNL     1       8.621  -3.462   4.324  0.00  0.00    +0.344 A 
ATOM      8  O   UNL     1       9.009  -3.683   5.457  0.00  0.00    -0.245 OA
ATOM      9  O   UNL     1       7.460  -2.812   4.145  0.00  0.00    -0.422 OA
ATOM     10  C   UNL     1       6.986  -2.543   2.910  0.00  0.00    +0.143 A 
ATOM     11  C   UNL     1       5.787  -1.866   2.743  0.00  0.00    +0.092 A 
ENDROOT
BRANCH   6  12
ATOM     12  C   UNL     1      10.701  -4.621   3.476  0.00  0.00    +0.213 C 
ATOM     13  N   UNL     1      11.600  -3.790   4.286  0.00  0.00    -0.359 N 
ATOM     14  C   UNL     1      11.848  -4.442   5.388  0.00  0.00    +0.060 A 
ATOM     15  C   UNL     1      12.669  -4.119   6.562  0.00  0.00    +0.028 A 
ATOM     16  C   UNL     1      12.754  -4.989   7.584  0.00  0.00    +0.017 A 
ATOM     17  C   UNL     1      12.047  -6.267   7.570  0.00  0.00    +0.065 A 
ATOM     18  C   UNL     1      11.265  -6.641   6.519  0.00  0.00    +0.042 A 
ATOM     19  C   UNL     1      11.124  -5.740   5.364  0.00  0.00    +0.061 A 
ATOM     20  N   UNL     1      10.457  -5.844   4.249  0.00  0.00    -0.359 N 
ATOM     21  H   UNL     1       9.901  -6.592   3.980  0.00  0.00    +0.162 HD
ATOM     22  H   UNL     1      11.946  -2.916   4.046  0.00  0.00    +0.162 HD
BRANCH  17  23
ATOM     23  C   UNL     1      12.183  -7.177   8.725  0.00  0.00    +0.387 C 
ATOM     24  O   UNL     1      12.880  -6.857   9.677  0.00  0.00    -0.241 OA
ATOM     25  O   UNL     1      11.598  -8.251   8.729  0.00  0.00    -0.241 OA
ENDBRANCH  17  23
ENDBRANCH   6  12
BRANCH   1  26
ATOM     26  O   UNL     1       4.141  -0.946   1.304  0.00  0.00    -0.487 OA
BRANCH  26  27
ATOM     27  C   UNL     1       3.711  -0.707  -0.038  0.00  0.00    +0.264 C 
BRANCH  27  31
ATOM     28  C   UNL     1      -0.017   1.378   0.010  0.00  0.00    +0.000 A 
ATOM     29  C   UNL     1       1.171   2.086   0.002  0.00  0.00    +0.000 A 
ATOM     30  C   UNL     1       2.377   1.411  -0.013  0.00  0.00    +0.007 A 
ATOM     31  C   UNL     1       2.396   0.029  -0.020  0.00  0.00    -0.010 A 
ATOM     32  C   UNL     1       1.208  -0.679  -0.012  0.00  0.00    +0.007 A 
ATOM     33  C   UNL     1       0.002  -0.004   0.002  0.00  0.00    +0.000 A 
ENDBRANCH  27  31
ENDBRANCH  26  27
ENDBRANCH   1  26
TORSDOF 5
