REMARK  Name = ZINC22302279
REMARK  9 active torsions:
REMARK  status: ('A' for Active; 'I' for Inactive)
REMARK    1  A    between atoms: C_1  and  C_2
REMARK    2  A    between atoms: C_7  and  C_9
REMARK    3  A    between atoms: C_7  and  C_10
REMARK    4  A    between atoms: N_13  and  C_17
REMARK    5  A    between atoms: C_17  and  C_18
REMARK    6  A    between atoms: C_18  and  O_20
REMARK    7  A    between atoms: O_20  and  C_21
REMARK    8  A    between atoms: C_21  and  C_23
REMARK    9  A    between atoms: C_21  and  C_24
REMARK                            x       y       z     vdW  Elec       q    Type
REMARK                         _______ _______ _______ _____ _____    ______ ____
ROOT
ATOM      1  C   UNL     1      -0.061   1.649   0.498  0.00  0.00    +0.007 C 
ATOM      2  C   UNL     1      -0.046   0.132   0.299  0.00  0.00    -0.011 C 
ATOM      3  C   UNL     1       0.612  -0.200  -1.042  0.00  0.00    +0.038 C 
ATOM      4  C   UNL     1       0.646  -1.713  -1.232  0.00  0.00    +0.113 C 
ATOM      5  C   UNL     1       1.417  -2.381  -0.099  0.00  0.00    +0.041 C 
ATOM      6  C   UNL     1       0.756  -2.041   1.240  0.00  0.00    -0.032 C 
ATOM      7  C   UNL     1       0.748  -0.523   1.431  0.00  0.00    +0.009 C 
ATOM      8  C   UNL     1      -0.682  -2.564   1.246  0.00  0.00    +0.011 C 
ATOM      9  C   UNL     1       1.542  -2.695   2.378  0.00  0.00    +0.011 C 
ATOM     10  C   UNL     1       1.261  -2.063  -2.567  0.00  0.00    +0.247 C 
ATOM     11  O   UNL     1       2.385  -1.813  -2.946  0.00  0.00    -0.273 OA
ATOM     12  N   UNL     1       0.296  -2.715  -3.249  0.00  0.00    -0.213 N 
ATOM     13  C   UNL     1      -0.829  -2.819  -2.531  0.00  0.00    +0.310 C 
ATOM     14  O   UNL     1      -1.838  -3.366  -2.931  0.00  0.00    -0.252 OA
ATOM     15  N   UNL     1      -0.717  -2.252  -1.315  0.00  0.00    -0.285 N 
ATOM     16  H   UNL     1      -1.402  -2.208  -0.629  0.00  0.00    +0.151 HD
ENDROOT
BRANCH  12  17
ATOM     17  C   UNL     1       0.458  -3.241  -4.606  0.00  0.00    +0.238 C 
BRANCH  17  18
ATOM     18  C   UNL     1       0.970  -4.657  -4.537  0.00  0.00    +0.326 C 
ATOM     19  O   UNL     1       1.178  -5.173  -3.465  0.00  0.00    -0.249 OA
BRANCH  18  20
ATOM     20  O   UNL     1       1.196  -5.345  -5.668  0.00  0.00    -0.451 OA
BRANCH  20  21
ATOM     21  C   UNL     1       1.681  -6.682  -5.528  0.00  0.00    +0.258 C 
ATOM     22  C   UNL     1       0.497  -7.648  -5.451  0.00  0.00    +0.062 C 
BRANCH  21  23
ATOM     23  C   UNL     1       2.538  -7.032  -6.717  0.00  0.00    +0.251 C 
ATOM     24  O   UNL     1       2.716  -6.216  -7.597  0.00  0.00    -0.272 OA
ATOM     25  N   UNL     1       3.107  -8.251  -6.802  0.00  0.00    -0.326 N 
ATOM     26  H   UNL     1       2.965  -8.902  -6.098  0.00  0.00    +0.145 HD
ATOM     27  H   UNL     1       3.659  -8.476  -7.567  0.00  0.00    +0.145 HD
ENDBRANCH  21  23
ENDBRANCH  20  21
ENDBRANCH  18  20
ENDBRANCH  17  18
ENDBRANCH  12  17
TORSDOF 5
