REMARK  Name = ZINC14915093
REMARK  7 active torsions:
REMARK  status: ('A' for Active; 'I' for Inactive)
REMARK    1  A    between atoms: C_1  and  C_2
REMARK    2  A    between atoms: C_5  and  C_26
REMARK    3  A    between atoms: C_9  and  C_11
REMARK    4  A    between atoms: C_9  and  C_12
REMARK    5  A    between atoms: C_9  and  N_51
REMARK    6  A    between atoms: N_14  and  C_15
REMARK    7  A    between atoms: C_16  and  C_23
REMARK                            x       y       z     vdW  Elec       q    Type
REMARK                         _______ _______ _______ _____ _____    ______ ____
ROOT
ATOM      1  C   UNL     1       2.807   3.970   0.255  0.00  0.00    +0.204 C 
ATOM      2  O   UNL     1       3.719   3.181   0.123  0.00  0.00    -0.277 OA
ATOM      3  N   UNL     1       3.070   5.269   0.499  0.00  0.00    -0.281 N 
ATOM      4  H   UNL     1       2.341   5.900   0.605  0.00  0.00    +0.155 HD
ENDROOT
BRANCH   3   5
ATOM      5  C   UNL     1       4.383   5.704   0.599  0.00  0.00    +0.084 A 
ATOM      6  C   UNL     1       4.848   6.986   0.836  0.00  0.00    +0.068 A 
ATOM      7  C   UNL     1       6.297   7.179   0.898  0.00  0.00    -0.023 A 
ATOM      8  C   UNL     1       7.030   6.069   0.704  0.00  0.00    -0.004 A 
ATOM      9  S   UNL     1       5.837   4.778   0.449  0.00  0.00    -0.077 S 
ATOM     10  C   UNL     1       8.507   6.347   0.780  0.00  0.00    +0.043 C 
ATOM     11  C   UNL     1       8.608   7.721   1.480  0.00  0.00    +0.010 C 
ATOM     12  C   UNL     1       7.248   8.355   1.126  0.00  0.00    +0.037 C 
BRANCH   6  13
ATOM     13  C   UNL     1       3.924   8.108   1.023  0.00  0.00    +0.244 C 
ATOM     14  O   UNL     1       3.523   8.388   2.138  0.00  0.00    -0.270 OA
ATOM     15  N   UNL     1       3.516   8.830  -0.040  0.00  0.00    -0.325 N 
ATOM     16  H   UNL     1       3.835   8.607  -0.929  0.00  0.00    +0.145 HD
ATOM     17  H   UNL     1       2.904   9.572   0.083  0.00  0.00    +0.145 HD
ENDBRANCH   6  13
ENDBRANCH   3   5
BRANCH   1  18
ATOM     18  C   UNL     1       1.380   3.497   0.147  0.00  0.00    +0.016 C 
ATOM     19  C   UNL     1       0.745   3.470   1.539  0.00  0.00    -0.004 C 
BRANCH  18  27
ATOM     20  C   UNL     1       2.423  -1.255   0.871  0.00  0.00    +0.005 C 
ATOM     21  C   UNL     1       1.937  -0.216  -0.141  0.00  0.00    -0.031 C 
ATOM     22  C   UNL     1       0.556  -0.619  -0.666  0.00  0.00    +0.003 C 
ATOM     23  C   UNL     1       0.052   0.456  -1.633  0.00  0.00    -0.031 C 
ATOM     24  C   UNL     1       0.010   1.805  -0.911  0.00  0.00    -0.075 C 
ATOM     25  C   UNL     1       1.840   1.153   0.537  0.00  0.00    -0.075 C 
ATOM     26  C   UNL     1      -1.353   0.091  -2.115  0.00  0.00    +0.005 C 
ATOM     27  N   UNL     1       1.373   2.147  -0.452  0.00  0.00    +0.387 N 
ATOM     28  H   UNL     1       2.008   2.137  -1.259  0.00  0.00    -0.081 HD
ENDBRANCH  18  27
ENDBRANCH   1  18
TORSDOF 4
