REMARK  Name = ZINC36490447
REMARK  12 active torsions:
REMARK  status: ('A' for Active; 'I' for Inactive)
REMARK    1  A    between atoms: C_1  and  C_2
REMARK    2  A    between atoms: C_2  and  C_3
REMARK    3  A    between atoms: C_2  and  C_4
REMARK    4  A    between atoms: C_2  and  N_5
REMARK    5  A    between atoms: C_6  and  C_8
REMARK    6  A    between atoms: C_8  and  C_10
REMARK    7  A    between atoms: C_8  and  N_17
REMARK    8  A    between atoms: C_15  and  O_16
REMARK    9  A    between atoms: N_17  and  C_18
REMARK   10  A    between atoms: C_24  and  C_26
REMARK   11  A    between atoms: C_26  and  N_27
REMARK   12  A    between atoms: C_28  and  C_30
REMARK                            x       y       z     vdW  Elec       q    Type
REMARK                         _______ _______ _______ _____ _____    ______ ____
ROOT
ATOM      1  N   UNL     1       4.173  -0.299  -2.606  0.00  0.00    -0.281 N 
ATOM      2  C   UNL     1       5.103  -1.274  -2.581  0.00  0.00    +0.234 C 
ATOM      3  O   UNL     1       4.761  -2.436  -2.513  0.00  0.00    -0.274 OA
ENDROOT
BRANCH   1   4
ATOM      4  C   UNL     1       4.579   1.096  -2.790  0.00  0.00    +0.077 C 
ATOM      5  C   UNL     1       5.308   1.585  -1.537  0.00  0.00    +0.022 C 
ATOM      6  C   UNL     1       5.732   3.042  -1.730  0.00  0.00    +0.002 C 
ATOM      7  C   UNL     1       4.493   3.907  -1.970  0.00  0.00    +0.000 C 
ATOM      8  C   UNL     1       3.764   3.418  -3.223  0.00  0.00    +0.002 C 
ATOM      9  C   UNL     1       3.340   1.961  -3.030  0.00  0.00    +0.022 C 
ENDBRANCH   1   4
BRANCH   1  10
ATOM     10  C   UNL     1       2.755  -0.635  -2.448  0.00  0.00    +0.196 C 
BRANCH  10  11
ATOM     11  C   UNL     1       1.984  -0.134  -3.642  0.00  0.00    +0.023 A 
ATOM     12  C   UNL     1       0.839   0.617  -3.460  0.00  0.00    +0.009 A 
ATOM     13  C   UNL     1       0.131   1.077  -4.555  0.00  0.00    +0.001 A 
ATOM     14  C   UNL     1       0.568   0.787  -5.835  0.00  0.00    +0.004 A 
ATOM     15  C   UNL     1       1.712   0.037  -6.022  0.00  0.00    +0.046 A 
ATOM     16  C   UNL     1       2.428  -0.421  -4.924  0.00  0.00    +0.122 A 
BRANCH  16  17
ATOM     17  O   UNL     1       3.558  -1.154  -5.106  0.00  0.00    -0.506 OA
ATOM     18  H   UNL     1       3.397  -2.099  -5.235  0.00  0.00    +0.292 HD
ENDBRANCH  16  17
ENDBRANCH  10  11
BRANCH  10  20
ATOM     19  N   UNL     1       0.963  -0.242  -0.788  0.00  0.00    -0.309 N 
ATOM     20  C   UNL     1       2.222   0.015  -1.197  0.00  0.00    +0.239 C 
ATOM     21  O   UNL     1       2.925   0.768  -0.557  0.00  0.00    -0.273 OA
ATOM     22  H   UNL     1       0.377  -0.788  -1.336  0.00  0.00    +0.149 HD
BRANCH  19  24
ATOM     23  C   UNL     1       0.551   1.831   0.443  0.00  0.00    +0.031 C 
ATOM     24  C   UNL     1       0.480   0.303   0.483  0.00  0.00    +0.026 C 
ATOM     25  C   UNL     1       1.353  -0.218   1.626  0.00  0.00    +0.031 C 
ATOM     26  C   UNL     1      -0.969  -0.135   0.708  0.00  0.00    +0.031 C 
ENDBRANCH  19  24
ENDBRANCH  10  20
ENDBRANCH   1  10
BRANCH   2  27
ATOM     27  C   UNL     1       6.566  -0.921  -2.636  0.00  0.00    +0.200 C 
BRANCH  27  28
ATOM     28  N   UNL     1       7.359  -2.145  -2.780  0.00  0.00    -0.303 N 
ATOM     29  C   UNL     1       8.703  -2.073  -2.852  0.00  0.00    +0.244 C 
ATOM     30  O   UNL     1       9.258  -0.992  -2.797  0.00  0.00    -0.270 OA
ATOM     31  H   UNL     1       6.917  -3.007  -2.824  0.00  0.00    +0.150 HD
BRANCH  29  32
ATOM     32  C   UNL     1       9.503  -3.308  -2.997  0.00  0.00    +0.037 A 
ATOM     33  C   UNL     1       8.869  -4.549  -3.066  0.00  0.00    +0.013 A 
ATOM     34  C   UNL     1       9.621  -5.698  -3.201  0.00  0.00    +0.001 A 
ATOM     35  C   UNL     1      11.001  -5.621  -3.269  0.00  0.00    +0.000 A 
ATOM     36  C   UNL     1      11.636  -4.393  -3.200  0.00  0.00    +0.001 A 
ATOM     37  C   UNL     1      10.895  -3.236  -3.071  0.00  0.00    +0.013 A 
ENDBRANCH  29  32
ENDBRANCH  27  28
ENDBRANCH   2  27
TORSDOF 9
