REMARK  Name = ZINC14459430
REMARK  9 active torsions:
REMARK  status: ('A' for Active; 'I' for Inactive)
REMARK    1  A    between atoms: C_1  and  C_2
REMARK    2  A    between atoms: C_2  and  C_3
REMARK    3  A    between atoms: C_3  and  C_5
REMARK    4  A    between atoms: C_3  and  N_6
REMARK    5  A    between atoms: C_7  and  C_9
REMARK    6  A    between atoms: C_22  and  C_25
REMARK    7  A    between atoms: C_28  and  O_33
REMARK    8  A    between atoms: C_29  and  O_31
REMARK    9  A    between atoms: O_31  and  C_32
REMARK                            x       y       z     vdW  Elec       q    Type
REMARK                         _______ _______ _______ _____ _____    ______ ____
ROOT
ATOM      1  C   UNL     1      -1.085   2.442  -3.090  0.00  0.00    +0.037 A 
ATOM      2  C   UNL     1      -2.465   2.441  -2.863  0.00  0.00    +0.015 A 
ATOM      3  C   UNL     1      -2.949   1.972  -1.693  0.00  0.00    +0.024 A 
ATOM      4  C   UNL     1      -2.095   1.564  -0.672  0.00  0.00    +0.031 A 
ATOM      5  C   UNL     1      -0.716   1.585  -0.877  0.00  0.00    -0.019 A 
ATOM      6  C   UNL     1      -0.217   2.010  -2.084  0.00  0.00    +0.019 A 
ATOM      7  C   UNL     1       0.157   1.101   0.214  0.00  0.00    +0.049 C 
ATOM      8  C   UNL     1       1.561   1.561   0.364  0.00  0.00    -0.023 C 
ATOM      9  C   UNL     1       1.867   1.572   1.656  0.00  0.00    -0.030 C 
ATOM     10  C   UNL     1       0.655   1.143   2.485  0.00  0.00    +0.033 C 
ATOM     11  C   UNL     1      -0.506   1.530   1.558  0.00  0.00    +0.029 C 
ATOM     12  C   UNL     1      -1.777   0.707   1.661  0.00  0.00    +0.105 C 
ATOM     13  N   UNL     1      -2.639   1.162   0.548  0.00  0.00    -0.336 N 
ATOM     14  H   UNL     1      -3.601   1.181   0.668  0.00  0.00    +0.147 HD
ENDROOT
BRANCH  12  15
ATOM     15  C   UNL     1      -1.462  -0.759   1.510  0.00  0.00    -0.023 A 
ATOM     16  C   UNL     1      -1.139  -1.513   2.622  0.00  0.00    +0.009 A 
ATOM     17  C   UNL     1      -0.850  -2.858   2.489  0.00  0.00    +0.049 A 
ATOM     18  C   UNL     1      -0.884  -3.454   1.239  0.00  0.00    +0.158 A 
ATOM     19  C   UNL     1      -1.209  -2.695   0.119  0.00  0.00    +0.162 A 
ATOM     20  C   UNL     1      -1.503  -1.348   0.260  0.00  0.00    +0.054 A 
BRANCH  19  21
ATOM     21  O   UNL     1      -1.244  -3.274  -1.111  0.00  0.00    -0.491 OA
ATOM     22  C   UNL     1      -1.586  -2.434  -2.215  0.00  0.00    +0.277 C 
ENDBRANCH  19  21
BRANCH  18  23
ATOM     23  O   UNL     1      -0.600  -4.777   1.106  0.00  0.00    -0.503 OA
ATOM     24  H   UNL     1      -1.371  -5.355   1.184  0.00  0.00    +0.292 HD
ENDBRANCH  18  23
ENDBRANCH  12  15
BRANCH   1  26
ATOM     25  N   UNL     1      -1.388   3.316  -5.354  0.00  0.00    -0.309 N 
ATOM     26  C   UNL     1      -0.548   2.899  -4.386  0.00  0.00    +0.244 C 
ATOM     27  O   UNL     1       0.652   2.900  -4.581  0.00  0.00    -0.270 OA
ATOM     28  H   UNL     1      -2.346   3.315  -5.199  0.00  0.00    +0.149 HD
BRANCH  25  29
ATOM     29  C   UNL     1      -0.855   3.769  -6.641  0.00  0.00    +0.070 C 
ATOM     30  C   UNL     1      -0.471   5.247  -6.542  0.00  0.00    +0.028 C 
BRANCH  29  32
ATOM     31  C   UNL     1      -2.213   2.101  -7.912  0.00  0.00    +0.005 C 
ATOM     32  C   UNL     1      -1.920   3.591  -7.726  0.00  0.00    +0.018 C 
ENDBRANCH  29  32
ENDBRANCH  25  29
ENDBRANCH   1  26
TORSDOF 6
