REMARK  Name = ZINC67494272
REMARK  11 active torsions:
REMARK  status: ('A' for Active; 'I' for Inactive)
REMARK    1  A    between atoms: C_1  and  C_2
REMARK    2  A    between atoms: C_2  and  C_3
REMARK    3  A    between atoms: C_3  and  N_4
REMARK    4  A    between atoms: C_10  and  N_13
REMARK    5  A    between atoms: C_14  and  C_16
REMARK    6  A    between atoms: N_18  and  C_19
REMARK    7  A    between atoms: C_19  and  C_21
REMARK    8  A    between atoms: C_19  and  C_22
REMARK    9  A    between atoms: C_25  and  O_28
REMARK   10  A    between atoms: O_28  and  C_29
REMARK   11  A    between atoms: C_29  and  C_30
REMARK                            x       y       z     vdW  Elec       q    Type
REMARK                         _______ _______ _______ _____ _____    ______ ____
ROOT
ATOM      1  N   UNL     1      -5.658  -2.893   1.003  0.00  0.00    -0.278 N 
ATOM      2  C   UNL     1      -6.882  -3.149   1.507  0.00  0.00    +0.303 C 
ATOM      3  O   UNL     1      -7.030  -3.280   2.704  0.00  0.00    -0.265 OA
ATOM      4  H   UNL     1      -5.552  -2.708   0.057  0.00  0.00    +0.155 HD
ENDROOT
BRANCH   1  11
ATOM      5  N   UNL     1      -1.944  -0.458   0.711  0.00  0.00    +0.385 N 
ATOM      6  C   UNL     1      -1.244  -1.290   1.715  0.00  0.00    -0.042 C 
ATOM      7  C   UNL     1      -2.311  -2.163   2.337  0.00  0.00    -0.061 A 
ATOM      8  C   UNL     1      -2.333  -2.893   3.511  0.00  0.00    +0.002 A 
ATOM      9  C   UNL     1      -3.457  -3.623   3.854  0.00  0.00    +0.002 A 
ATOM     10  C   UNL     1      -4.561  -3.625   3.025  0.00  0.00    +0.023 A 
ATOM     11  C   UNL     1      -4.543  -2.893   1.845  0.00  0.00    +0.035 A 
ATOM     12  C   UNL     1      -3.413  -2.161   1.502  0.00  0.00    -0.041 A 
ATOM     13  C   UNL     1      -3.103  -1.287   0.309  0.00  0.00    -0.040 C 
ATOM     14  H   UNL     1      -1.346  -0.278  -0.081  0.00  0.00    -0.081 HD
BRANCH   5  15
ATOM     15  C   UNL     1      -2.397   0.804   1.312  0.00  0.00    -0.078 C 
BRANCH  15  17
ATOM     16  C   UNL     1      -1.658   3.007   2.230  0.00  0.00    +0.002 C 
ATOM     17  C   UNL     1      -1.187   1.693   1.604  0.00  0.00    -0.022 C 
ENDBRANCH  15  17
ENDBRANCH   5  15
ENDBRANCH   1  11
BRANCH   2  18
ATOM     18  C   UNL     1      -8.056  -3.271   0.592  0.00  0.00    +0.300 C 
ATOM     19  O   UNL     1      -7.908  -3.140  -0.606  0.00  0.00    -0.265 OA
ATOM     20  N   UNL     1      -9.279  -3.528   1.095  0.00  0.00    -0.301 N 
ATOM     21  H   UNL     1      -9.398  -3.633   2.052  0.00  0.00    +0.150 HD
BRANCH  20  22
ATOM     22  C   UNL     1     -10.431  -3.647   0.197  0.00  0.00    +0.101 C 
ATOM     23  C   UNL     1     -10.512  -5.078  -0.339  0.00  0.00    +0.033 C 
BRANCH  22  24
ATOM     24  C   UNL     1     -11.693  -3.321   0.952  0.00  0.00    -0.027 A 
ATOM     25  C   UNL     1     -11.851  -3.758   2.255  0.00  0.00    +0.009 A 
ATOM     26  C   UNL     1     -13.007  -3.460   2.949  0.00  0.00    +0.046 A 
ATOM     27  C   UNL     1     -14.011  -2.722   2.339  0.00  0.00    +0.121 A 
ATOM     28  C   UNL     1     -13.850  -2.284   1.032  0.00  0.00    +0.046 A 
ATOM     29  C   UNL     1     -12.689  -2.580   0.344  0.00  0.00    +0.009 A 
BRANCH  27  30
ATOM     30  O   UNL     1     -15.150  -2.428   3.020  0.00  0.00    -0.492 OA
BRANCH  30  31
ATOM     31  C   UNL     1     -16.140  -1.665   2.329  0.00  0.00    +0.225 C 
ATOM     32  C   UNL     1     -17.341  -1.435   3.249  0.00  0.00    +0.048 C 
ENDBRANCH  30  31
ENDBRANCH  27  30
ENDBRANCH  22  24
ENDBRANCH  20  22
ENDBRANCH   2  18
TORSDOF 8
