REMARK  Name = ZINC23220865
REMARK  11 active torsions:
REMARK  status: ('A' for Active; 'I' for Inactive)
REMARK    1  A    between atoms: C_1  and  C_2
REMARK    2  A    between atoms: C_15  and  C_17
REMARK    3  A    between atoms: C_17  and  O_18
REMARK    4  A    between atoms: O_18  and  C_19
REMARK    5  A    between atoms: C_19  and  C_21
REMARK    6  A    between atoms: C_23  and  O_32
REMARK    7  A    between atoms: C_24  and  O_28
REMARK    8  A    between atoms: O_28  and  C_29
REMARK    9  A    between atoms: C_29  and  C_30
REMARK   10  A    between atoms: C_29  and  C_31
REMARK   11  A    between atoms: O_32  and  C_33
REMARK                            x       y       z     vdW  Elec       q    Type
REMARK                         _______ _______ _______ _____ _____    ______ ____
ROOT
ATOM      1  C   UNL     1      -3.848  -2.700  -7.134  0.00  0.00    +0.328 C 
ENDROOT
BRANCH   1  15
ATOM      2  C   UNL     1      -7.150  -5.861  -7.891  0.00  0.00    +0.029 C 
ATOM      3  C   UNL     1      -5.681  -5.850  -8.318  0.00  0.00    +0.087 C 
ATOM      4  C   UNL     1      -5.570  -6.367  -9.748  0.00  0.00    +0.118 C 
ATOM      5  C   UNL     1      -4.225  -6.008 -10.322  0.00  0.00    +0.219 C 
ATOM      6  O   UNL     1      -3.368  -6.861 -10.428  0.00  0.00    -0.275 OA
ATOM      7  N   UNL     1      -3.965  -4.743 -10.719  0.00  0.00    -0.284 N 
ATOM      8  C   UNL     1      -4.907  -3.728 -10.516  0.00  0.00    +0.055 A 
ATOM      9  C   UNL     1      -5.244  -2.857 -11.539  0.00  0.00    +0.025 A 
ATOM     10  C   UNL     1      -6.136  -1.828 -11.300  0.00  0.00    +0.002 A 
ATOM     11  C   UNL     1      -6.692  -1.665 -10.044  0.00  0.00    +0.002 A 
ATOM     12  C   UNL     1      -6.369  -2.537  -9.020  0.00  0.00    +0.025 A 
ATOM     13  C   UNL     1      -5.483  -3.576  -9.254  0.00  0.00    +0.058 A 
ATOM     14  N   UNL     1      -5.161  -4.484  -8.236  0.00  0.00    -0.264 N 
ATOM     15  C   UNL     1      -4.381  -4.108  -7.202  0.00  0.00    +0.258 C 
ATOM     16  O   UNL     1      -4.110  -4.902  -6.327  0.00  0.00    -0.271 OA
ATOM     17  H   UNL     1      -3.008  -4.505 -11.206  0.00  0.00    +0.155 HD
ENDBRANCH   1  15
BRANCH   1  18
ATOM     18  O   UNL     1      -3.043  -2.545  -5.936  0.00  0.00    -0.452 OA
BRANCH  18  19
ATOM     19  C   UNL     1      -2.488  -1.335  -5.724  0.00  0.00    +0.340 C 
ATOM     20  O   UNL     1      -2.672  -0.435  -6.519  0.00  0.00    -0.245 OA
BRANCH  19  21
ATOM     21  C   UNL     1      -1.657  -1.105  -4.528  0.00  0.00    +0.064 A 
ATOM     22  C   UNL     1      -1.081   0.150  -4.307  0.00  0.00    +0.064 A 
ATOM     23  C   UNL     1      -0.303   0.361  -3.185  0.00  0.00    +0.164 A 
ATOM     24  C   UNL     1      -0.094  -0.675  -2.276  0.00  0.00    +0.180 A 
ATOM     25  C   UNL     1      -0.662  -1.923  -2.498  0.00  0.00    +0.087 A 
ATOM     26  C   UNL     1      -1.444  -2.139  -3.613  0.00  0.00    +0.039 A 
ATOM     27 CL   UNL     1      -0.391  -3.211  -1.367  0.00  0.00    -0.080 Cl
BRANCH  23  28
ATOM     28  O   UNL     1       0.258   1.581  -2.967  0.00  0.00    -0.491 OA
ATOM     29  C   UNL     1       0.002   2.596  -3.939  0.00  0.00    +0.277 C 
ENDBRANCH  23  28
BRANCH  24  30
ATOM     30  O   UNL     1       0.671  -0.465  -1.174  0.00  0.00    -0.484 OA
BRANCH  30  31
ATOM     31  C   UNL     1       0.002  -0.004   0.002  0.00  0.00    +0.168 C 
ATOM     32  C   UNL     1      -0.019   1.526   0.010  0.00  0.00    +0.051 C 
ATOM     33  C   UNL     1       0.742  -0.511   1.242  0.00  0.00    +0.051 C 
ENDBRANCH  30  31
ENDBRANCH  24  30
ENDBRANCH  19  21
ENDBRANCH  18  19
ENDBRANCH   1  18
TORSDOF 7
