REMARK  Name = ZINC40923822
REMARK  4 active torsions:
REMARK  status: ('A' for Active; 'I' for Inactive)
REMARK    1  A    between atoms: C_5  and  C_7
REMARK    2  A    between atoms: C_7  and  O_8
REMARK    3  A    between atoms: O_8  and  C_9
REMARK    4  A    between atoms: C_14  and  C_15
REMARK                            x       y       z     vdW  Elec       q    Type
REMARK                         _______ _______ _______ _____ _____    ______ ____
ROOT
ATOM      1  C   UNL     1      -0.272  -4.030  -0.017  0.00  0.00    +0.127 A 
ATOM      2  C   UNL     1       0.839  -4.861  -0.027  0.00  0.00    +0.047 A 
ATOM      3  C   UNL     1       0.674  -6.233  -0.033  0.00  0.00    +0.019 A 
ATOM      4  C   UNL     1      -0.598  -6.778  -0.029  0.00  0.00    +0.018 A 
ATOM      5  C   UNL     1      -1.706  -5.951  -0.020  0.00  0.00    +0.025 A 
ATOM      6  C   UNL     1      -1.546  -4.579  -0.007  0.00  0.00    +0.024 A 
ATOM      7 BR   UNL     1      -0.820  -8.655  -0.038  0.00  0.00    -0.050 Br
ENDROOT
BRANCH   6   8
ATOM      8  C   UNL     1      -2.754  -3.678   0.011  0.00  0.00    +0.181 C 
ATOM      9  C   UNL     1      -3.568  -3.954   1.256  0.00  0.00    +0.041 C 
ATOM     10  C   UNL     1      -4.745  -4.615   1.214  0.00  0.00    +0.020 C 
ATOM     11  C   UNL     1      -5.535  -4.875   2.475  0.00  0.00    +0.052 C 
ATOM     12  C   UNL     1      -4.580  -5.021   3.661  0.00  0.00    +0.014 C 
ATOM     13  C   UNL     1      -3.757  -3.734   3.778  0.00  0.00    +0.080 C 
ATOM     14  C   UNL     1      -3.045  -3.491   2.477  0.00  0.00    +0.163 C 
ATOM     15  O   UNL     1      -1.993  -2.881   2.479  0.00  0.00    -0.292 OA
ATOM     16  N   UNL     1      -5.278  -5.074   0.032  0.00  0.00    -0.286 N 
ATOM     17  C   UNL     1      -4.745  -4.591  -1.151  0.00  0.00    +0.240 A 
ATOM     18  N   UNL     1      -3.561  -3.929  -1.174  0.00  0.00    -0.201 N 
ATOM     19  N   UNL     1      -3.352  -3.592  -2.510  0.00  0.00    -0.042 NA
ATOM     20  N   UNL     1      -4.365  -4.055  -3.169  0.00  0.00    -0.021 NA
ATOM     21  N   UNL     1      -5.185  -4.642  -2.375  0.00  0.00    -0.092 NA
ATOM     22  H   UNL     1      -6.005  -5.715   0.028  0.00  0.00    +0.155 HD
ENDBRANCH   6   8
BRANCH   1  23
ATOM     23  O   UNL     1      -0.112  -2.680  -0.011  0.00  0.00    -0.487 OA
BRANCH  23  24
ATOM     24  C   UNL     1       1.229  -2.186  -0.022  0.00  0.00    +0.266 C 
BRANCH  24  29
ATOM     25  C   UNL     1      -0.017   1.378   0.010  0.00  0.00    +0.000 A 
ATOM     26  C   UNL     1       1.171   2.086   0.002  0.00  0.00    +0.001 A 
ATOM     27  C   UNL     1       2.377   1.412  -0.013  0.00  0.00    +0.020 A 
ATOM     28  C   UNL     1       2.397   0.029  -0.021  0.00  0.00    +0.047 A 
ATOM     29  C   UNL     1       1.208  -0.679  -0.013  0.00  0.00    +0.008 A 
ATOM     30  C   UNL     1       0.002  -0.004   0.002  0.00  0.00    +0.008 A 
ATOM     31 CL   UNL     1       3.912  -0.818  -0.041  0.00  0.00    -0.083 Cl
ENDBRANCH  24  29
ENDBRANCH  23  24
ENDBRANCH   1  23
TORSDOF 4
