REMARK  Name = ZINC30496789
REMARK  8 active torsions:
REMARK  status: ('A' for Active; 'I' for Inactive)
REMARK    1  A    between atoms: C_1  and  C_2
REMARK    2  A    between atoms: C_2  and  C_3
REMARK    3  A    between atoms: C_2  and  C_4
REMARK    4  A    between atoms: C_4  and  C_6
REMARK    5  A    between atoms: C_4  and  N_16
REMARK    6  A    between atoms: N_16  and  S_17
REMARK    7  A    between atoms: S_17  and  C_20
REMARK    8  A    between atoms: C_23  and  N_26
REMARK                            x       y       z     vdW  Elec       q    Type
REMARK                         _______ _______ _______ _____ _____    ______ ____
ROOT
ATOM      1  N   UNL     1      -4.727  -0.313  -0.930  0.00  0.00    -0.182 NA
ATOM      2  H   UNL     1      -5.525   0.351  -0.568  0.00  0.00    +0.149 HD
ENDROOT
BRANCH   1   3
ATOM      3  S   UNL     1      -4.648  -0.679  -2.543  0.00  0.00    +0.059 S 
ATOM      4  O   UNL     1      -5.598   0.152  -3.195  0.00  0.00    -0.153 OA
ATOM      5  O   UNL     1      -3.271  -0.682  -2.892  0.00  0.00    -0.153 OA
BRANCH   3   6
ATOM      6  C   UNL     1      -5.218  -2.336  -2.730  0.00  0.00    +0.105 A 
ATOM      7  C   UNL     1      -4.309  -3.377  -2.775  0.00  0.00    +0.030 A 
ATOM      8  C   UNL     1      -4.753  -4.678  -2.917  0.00  0.00    +0.025 A 
ATOM      9  C   UNL     1      -6.113  -4.938  -3.023  0.00  0.00    +0.036 A 
ATOM     10  C   UNL     1      -7.023  -3.889  -2.982  0.00  0.00    +0.025 A 
ATOM     11  C   UNL     1      -6.573  -2.592  -2.836  0.00  0.00    +0.030 A 
BRANCH   9  12
ATOM     12  N   UNL     1      -6.566  -6.254  -3.171  0.00  0.00    -0.271 N 
ATOM     13  C   UNL     1      -7.967  -6.627  -3.393  0.00  0.00    +0.114 C 
ATOM     14  C   UNL     1      -8.050  -8.133  -3.059  0.00  0.00    +0.029 C 
ATOM     15  C   UNL     1      -6.596  -8.593  -3.313  0.00  0.00    +0.098 C 
ATOM     16  C   UNL     1      -5.771  -7.338  -3.133  0.00  0.00    +0.220 C 
ATOM     17  O   UNL     1      -4.569  -7.313  -2.975  0.00  0.00    -0.275 OA
ENDBRANCH   9  12
ENDBRANCH   3   6
ENDBRANCH   1   3
BRANCH   1  18
ATOM     18  C   UNL     1      -3.885  -1.035   0.027  0.00  0.00    +0.109 C 
BRANCH  18  19
ATOM     19  C   UNL     1      -2.632  -0.240   0.293  0.00  0.00    -0.025 A 
ATOM     20  C   UNL     1      -2.701   1.135   0.419  0.00  0.00    +0.009 A 
ATOM     21  C   UNL     1      -1.554   1.867   0.659  0.00  0.00    +0.050 A 
ATOM     22  C   UNL     1      -0.332   1.224   0.781  0.00  0.00    +0.162 A 
ATOM     23  C   UNL     1      -0.263  -0.158   0.657  0.00  0.00    +0.162 A 
ATOM     24  C   UNL     1      -1.417  -0.887   0.412  0.00  0.00    +0.054 A 
ATOM     25  O   UNL     1       0.927  -0.810   0.774  0.00  0.00    -0.485 OA
ATOM     26  C   UNL     1       2.111  -0.015   0.645  0.00  0.00    +0.270 C 
ATOM     27  C   UNL     1       1.936   1.249   1.498  0.00  0.00    +0.270 C 
ATOM     28  O   UNL     1       0.790   1.959   1.016  0.00  0.00    -0.485 OA
ENDBRANCH  18  19
BRANCH  18  30
ATOM     29  C   UNL     1      -5.899  -2.078   1.074  0.00  0.00    +0.009 C 
ATOM     30  C   UNL     1      -4.653  -1.231   1.336  0.00  0.00    +0.006 C 
ATOM     31  C   UNL     1      -3.756  -1.942   2.351  0.00  0.00    +0.009 C 
ENDBRANCH  18  30
ENDBRANCH   1  18
TORSDOF 6
