REMARK  Name = ZINC04222392
REMARK  11 active torsions:
REMARK  status: ('A' for Active; 'I' for Inactive)
REMARK    1  A    between atoms: C_1  and  C_2
REMARK    2  A    between atoms: C_5  and  O_44
REMARK    3  A    between atoms: C_7  and  C_41
REMARK    4  A    between atoms: C_7  and  C_42
REMARK    5  A    between atoms: C_17  and  C_19
REMARK    6  A    between atoms: C_27  and  C_29
REMARK    7  A    between atoms: C_29  and  C_30
REMARK    8  A    between atoms: N_32  and  C_33
REMARK    9  A    between atoms: N_32  and  C_34
REMARK   10  A    between atoms: C_34  and  C_35
REMARK   11  A    between atoms: C_42  and  O_43
REMARK                            x       y       z     vdW  Elec       q    Type
REMARK                         _______ _______ _______ _____ _____    ______ ____
ROOT
ATOM      1  C   UNL     1       2.446   3.872   2.232  0.00  0.00    +0.012 C 
ATOM      2  C   UNL     1       3.269   3.531   0.988  0.00  0.00    -0.019 C 
ATOM      3  C   UNL     1       3.549   2.025   0.954  0.00  0.00    +0.010 C 
ATOM      4  C   UNL     1       2.242   1.244   0.837  0.00  0.00    +0.032 C 
ATOM      5  C   UNL     1       1.544   1.644  -0.466  0.00  0.00    +0.123 C 
ATOM      6  C   UNL     1       1.221   3.136  -0.413  0.00  0.00    +0.021 C 
ATOM      7  C   UNL     1       2.509   3.954  -0.271  0.00  0.00    +0.011 C 
ATOM      8  C   UNL     1       2.095   5.433  -0.133  0.00  0.00    +0.049 C 
ATOM      9  C   UNL     1       3.261   6.219   0.352  0.00  0.00    +0.015 A 
ATOM     10  C   UNL     1       4.414   5.747   0.892  0.00  0.00    +0.058 A 
ATOM     11  N   UNL     1       5.309   6.665   1.252  0.00  0.00    -0.229 NA
ATOM     12  C   UNL     1       5.093   7.954   1.094  0.00  0.00    +0.165 A 
ATOM     13  S   UNL     1       3.508   7.974   0.380  0.00  0.00    -0.057 S 
ATOM     14  N   UNL     1       5.920   9.023   1.415  0.00  0.00    -0.261 N 
ATOM     15  C   UNL     1       5.514  10.286   1.173  0.00  0.00    +0.255 C 
ATOM     16  O   UNL     1       4.424  10.488   0.673  0.00  0.00    -0.270 OA
ATOM     17  C   UNL     1       4.624   4.249   1.055  0.00  0.00    +0.054 C 
ATOM     18  C   UNL     1       0.500   3.545  -1.699  0.00  0.00    +0.016 C 
ATOM     19  H   UNL     1       6.789   8.862   1.814  0.00  0.00    +0.157 HD
ENDROOT
BRANCH  15  20
ATOM     20  C   UNL     1       6.391  11.421   1.514  0.00  0.00    +0.107 A 
ATOM     21  C   UNL     1       7.310  11.907   0.578  0.00  0.00    +0.138 A 
ATOM     22  C   UNL     1       8.124  12.975   0.903  0.00  0.00    +0.039 A 
ATOM     23  C   UNL     1       8.041  13.556   2.156  0.00  0.00    +0.006 A 
ATOM     24  C   UNL     1       7.140  13.078   3.091  0.00  0.00    +0.039 A 
ATOM     25  C   UNL     1       6.314  12.014   2.779  0.00  0.00    +0.138 A 
ATOM     26  F   UNL     1       5.435  11.549   3.693  0.00  0.00    -0.205 F 
ATOM     27  F   UNL     1       7.397  11.337  -0.644  0.00  0.00    -0.205 F 
ENDBRANCH  15  20
BRANCH   5  28
ATOM     28  O   UNL     1       0.334   0.897  -0.611  0.00  0.00    -0.391 OA
ATOM     29  H   UNL     1       0.464  -0.060  -0.640  0.00  0.00    +0.210 HD
ENDBRANCH   5  28
BRANCH  17  30
ATOM     30  C   UNL     1       5.282   3.970   2.407  0.00  0.00    +0.106 C 
BRANCH  30  31
ATOM     31  C   UNL     1       6.693   4.498   2.397  0.00  0.00    +0.216 C 
ATOM     32  O   UNL     1       7.130   5.044   1.406  0.00  0.00    -0.276 OA
ATOM     33  N   UNL     1       7.471   4.364   3.490  0.00  0.00    -0.300 N 
ATOM     34  C   UNL     1       6.944   3.705   4.688  0.00  0.00    +0.132 C 
BRANCH  33  35
ATOM     35  C   UNL     1       8.843   4.877   3.481  0.00  0.00    +0.142 C 
BRANCH  35  36
ATOM     36  C   UNL     1       8.848   6.305   3.962  0.00  0.00    -0.030 A 
ATOM     37  C   UNL     1       8.707   7.340   3.056  0.00  0.00    +0.005 A 
ATOM     38  C   UNL     1       8.707   8.650   3.498  0.00  0.00    +0.000 A 
ATOM     39  C   UNL     1       8.859   8.925   4.844  0.00  0.00    +0.000 A 
ATOM     40  C   UNL     1       9.006   7.891   5.749  0.00  0.00    +0.000 A 
ATOM     41  C   UNL     1       9.001   6.581   5.308  0.00  0.00    +0.005 A 
ENDBRANCH  35  36
ENDBRANCH  33  35
ENDBRANCH  30  31
ENDBRANCH  17  30
BRANCH   6  42
ATOM     42  C   UNL     1       0.310   3.414   0.785  0.00  0.00    +0.165 C 
BRANCH  42  43
ATOM     43  O   UNL     1      -0.961   2.798   0.570  0.00  0.00    -0.394 OA
ATOM     44  H   UNL     1      -1.591   2.933   1.291  0.00  0.00    +0.209 HD
ENDBRANCH  42  43
ENDBRANCH   6  42
TORSDOF 8
