REMARK  Name = ZINC38546311
REMARK  8 active torsions:
REMARK  status: ('A' for Active; 'I' for Inactive)
REMARK    1  A    between atoms: C_1  and  C_2
REMARK    2  A    between atoms: N_5  and  C_8
REMARK    3  A    between atoms: C_8  and  C_10
REMARK    4  A    between atoms: C_8  and  C_18
REMARK    5  A    between atoms: C_14  and  O_16
REMARK    6  A    between atoms: O_16  and  C_17
REMARK    7  A    between atoms: C_22  and  N_23
REMARK    8  A    between atoms: C_24  and  C_26
REMARK                            x       y       z     vdW  Elec       q    Type
REMARK                         _______ _______ _______ _____ _____    ______ ____
ROOT
ATOM      1  C   UNL     1      -2.014  -4.665   1.361  0.00  0.00    -0.025 A 
ATOM      2  C   UNL     1      -2.205  -5.717   0.465  0.00  0.00    -0.033 A 
ATOM      3  C   UNL     1      -3.403  -6.358   0.525  0.00  0.00    -0.005 A 
ATOM      4  S   UNL     1      -4.273  -5.515   1.819  0.00  0.00    -0.078 S 
ATOM      5  C   UNL     1      -2.999  -4.334   2.237  0.00  0.00    +0.074 A 
ATOM      6  C   UNL     1      -3.865  -7.506  -0.313  0.00  0.00    +0.043 C 
ATOM      7  C   UNL     1      -2.921  -7.635  -1.519  0.00  0.00    +0.005 C 
ATOM      8  C   UNL     1      -1.475  -7.572  -1.019  0.00  0.00    +0.005 C 
ATOM      9  C   UNL     1      -1.147  -6.155  -0.544  0.00  0.00    +0.036 C 
ENDROOT
BRANCH   5  10
ATOM     10  N   UNL     1      -3.013  -3.332   3.209  0.00  0.00    -0.273 N 
ATOM     11  C   UNL     1      -4.143  -3.078   3.899  0.00  0.00    +0.284 C 
ATOM     12  O   UNL     1      -5.151  -3.722   3.675  0.00  0.00    -0.266 OA
ATOM     13  H   UNL     1      -2.210  -2.818   3.387  0.00  0.00    +0.156 HD
BRANCH  11  14
ATOM     14  C   UNL     1      -4.157  -2.025   4.920  0.00  0.00    +0.189 A 
ATOM     15  C   UNL     1      -5.227  -1.670   5.691  0.00  0.00    +0.054 A 
ATOM     16  C   UNL     1      -4.794  -0.627   6.525  0.00  0.00    +0.042 A 
ATOM     17  C   UNL     1      -3.497  -0.394   6.229  0.00  0.00    +0.196 A 
ATOM     18  O   UNL     1      -3.115  -1.242   5.265  0.00  0.00    -0.458 OA
ENDBRANCH  11  14
ENDBRANCH   5  10
BRANCH   1  19
ATOM     19  C   UNL     1      -0.715  -3.901   1.362  0.00  0.00    -0.004 C 
BRANCH  19  24
ATOM     20  C   UNL     1      -1.312   1.715   0.568  0.00  0.00    +0.007 C 
ATOM     21  C   UNL     1      -0.968   0.237   0.374  0.00  0.00    -0.018 C 
ATOM     22  C   UNL     1      -2.249  -0.600   0.445  0.00  0.00    -0.015 C 
ATOM     23  C   UNL     1      -1.889  -2.083   0.330  0.00  0.00    -0.077 C 
ATOM     24  N   UNL     1      -0.995  -2.460   1.431  0.00  0.00    +0.387 N 
ATOM     25  C   UNL     1       0.265  -1.713   1.328  0.00  0.00    -0.077 C 
ATOM     26  C   UNL     1      -0.012  -0.216   1.481  0.00  0.00    -0.015 C 
ATOM     27  H   UNL     1      -1.439  -2.248   2.312  0.00  0.00    -0.080 HD
ENDBRANCH  19  24
BRANCH  19  28
ATOM     28  C   UNL     1       0.109  -4.311   2.555  0.00  0.00    -0.053 A 
ATOM     29  C   UNL     1      -0.012  -3.621   3.748  0.00  0.00    +0.002 A 
ATOM     30  C   UNL     1       0.742  -3.994   4.845  0.00  0.00    +0.004 A 
ATOM     31  C   UNL     1       1.619  -5.058   4.752  0.00  0.00    +0.045 A 
ATOM     32  C   UNL     1       1.742  -5.752   3.557  0.00  0.00    +0.120 A 
ATOM     33  C   UNL     1       0.979  -5.378   2.459  0.00  0.00    +0.048 A 
BRANCH  32  34
ATOM     34  O   UNL     1       2.603  -6.798   3.463  0.00  0.00    -0.495 OA
ATOM     35  C   UNL     1       3.352  -7.130   4.634  0.00  0.00    +0.277 C 
ENDBRANCH  32  34
ENDBRANCH  19  28
ENDBRANCH   1  19
TORSDOF 6
