REMARK  Name = ZINC38688101
REMARK  10 active torsions:
REMARK  status: ('A' for Active; 'I' for Inactive)
REMARK    1  A    between atoms: C_1  and  C_2
REMARK    2  A    between atoms: C_2  and  C_3
REMARK    3  A    between atoms: C_3  and  C_4
REMARK    4  A    between atoms: C_4  and  C_5
REMARK    5  A    between atoms: C_8  and  C_11
REMARK    6  A    between atoms: C_11  and  O_13
REMARK    7  A    between atoms: O_13  and  C_14
REMARK    8  A    between atoms: C_21  and  N_34
REMARK    9  A    between atoms: C_22  and  C_32
REMARK   10  A    between atoms: C_23  and  C_25
REMARK                            x       y       z     vdW  Elec       q    Type
REMARK                         _______ _______ _______ _____ _____    ______ ____
ROOT
ATOM      1  C   UNL     1      -1.038  -6.752   4.610  0.00  0.00    +0.135 A 
ATOM      2  C   UNL     1      -1.507  -6.772   5.916  0.00  0.00    +0.047 A 
ATOM      3  C   UNL     1      -0.710  -7.269   6.929  0.00  0.00    +0.012 A 
ATOM      4  C   UNL     1       0.557  -7.749   6.647  0.00  0.00    +0.008 A 
ATOM      5  C   UNL     1       1.030  -7.732   5.345  0.00  0.00    +0.138 A 
ATOM      6  C   UNL     1       0.228  -7.238   4.324  0.00  0.00    +0.093 A 
ATOM      7  O   UNL     1       2.269  -8.197   5.049  0.00  0.00    -0.441 OA
ATOM      8  C   UNL     1       2.899  -9.018   5.906  0.00  0.00    +0.199 C 
ATOM      9  C   UNL     1       2.539  -9.107   7.208  0.00  0.00    +0.098 C 
ATOM     10  C   UNL     1       1.410  -8.286   7.765  0.00  0.00    +0.098 C 
ENDROOT
BRANCH  10  11
ATOM     11  C   UNL     1       1.974  -7.136   8.560  0.00  0.00    -0.034 A 
ATOM     12  C   UNL     1       2.776  -6.195   7.940  0.00  0.00    +0.007 A 
ATOM     13  C   UNL     1       3.292  -5.140   8.668  0.00  0.00    +0.038 A 
ATOM     14  C   UNL     1       3.006  -5.025  10.018  0.00  0.00    +0.123 A 
ATOM     15  C   UNL     1       2.203  -5.968  10.637  0.00  0.00    +0.038 A 
ATOM     16  C   UNL     1       1.683  -7.019   9.906  0.00  0.00    +0.007 A 
ATOM     17  F   UNL     1       3.511  -3.994  10.730  0.00  0.00    -0.205 F 
ENDBRANCH  10  11
BRANCH   8  18
ATOM     18  N   UNL     1       3.938  -9.790   5.448  0.00  0.00    -0.328 N 
ATOM     19  H   UNL     1       4.207  -9.737   4.518  0.00  0.00    +0.145 HD
ATOM     20  H   UNL     1       4.402 -10.387   6.055  0.00  0.00    +0.145 HD
ENDBRANCH   8  18
BRANCH   9  21
ATOM     21  C   UNL     1       3.249 -10.001   8.073  0.00  0.00    +0.101 C 
ATOM     22  N   UNL     1       3.812 -10.711   8.758  0.00  0.00    -0.191 NA
ENDBRANCH   9  21
BRANCH   1  23
ATOM     23  O   UNL     1      -1.821  -6.263   3.613  0.00  0.00    -0.426 OA
BRANCH  23  24
ATOM     24  C   UNL     1      -1.935  -4.931   3.498  0.00  0.00    +0.315 C 
ATOM     25  O   UNL     1      -1.425  -4.207   4.320  0.00  0.00    -0.250 OA
BRANCH  24  29
ATOM     26  C   UNL     1      -2.806  -2.639  -0.042  0.00  0.00    -0.011 C 
ATOM     27  C   UNL     1      -3.455  -2.208   1.274  0.00  0.00    +0.004 C 
ATOM     28  C   UNL     1      -2.679  -2.811   2.447  0.00  0.00    +0.015 C 
ATOM     29  C   UNL     1      -2.700  -4.337   2.343  0.00  0.00    +0.098 C 
ATOM     30  C   UNL     1      -2.051  -4.768   1.026  0.00  0.00    +0.015 C 
ATOM     31  C   UNL     1      -2.827  -4.165  -0.147  0.00  0.00    +0.004 C 
BRANCH  26  32
ATOM     32  C   UNL     1      -1.358  -2.145  -0.082  0.00  0.00    +0.003 C 
BRANCH  32  33
ATOM     33  C   UNL     1      -1.341  -0.616  -0.104  0.00  0.00    +0.000 C 
BRANCH  33  35
ATOM     34  C   UNL     1       0.124   1.408  -0.165  0.00  0.00    +0.004 C 
ATOM     35  C   UNL     1       0.107  -0.122  -0.143  0.00  0.00    -0.003 C 
ENDBRANCH  33  35
ENDBRANCH  32  33
ENDBRANCH  26  32
ENDBRANCH  24  29
ENDBRANCH  23  24
ENDBRANCH   1  23
TORSDOF 9
