REMARK  Name = ZINC10318144
REMARK  6 active torsions:
REMARK  status: ('A' for Active; 'I' for Inactive)
REMARK    1  A    between atoms: C_1  and  C_2
REMARK    2  A    between atoms: C_3  and  N_9
REMARK    3  A    between atoms: C_10  and  C_27
REMARK    4  A    between atoms: C_13  and  S_14
REMARK    5  A    between atoms: S_14  and  C_15
REMARK    6  A    between atoms: C_15  and  C_16
REMARK                            x       y       z     vdW  Elec       q    Type
REMARK                         _______ _______ _______ _____ _____    ______ ____
ROOT
ATOM      1  N   UNL     1       3.624  -0.650  -0.037  0.00  0.00    -0.270 N 
ATOM      2  C   UNL     1       4.363  -1.062   1.052  0.00  0.00    +0.169 A 
ATOM      3  N   UNL     1       5.436  -1.660   0.586  0.00  0.00    -0.128 NA
ATOM      4  N   UNL     1       5.420  -1.651  -0.699  0.00  0.00    -0.122 NA
ATOM      5  C   UNL     1       4.333  -1.052  -1.135  0.00  0.00    +0.197 A 
ENDROOT
BRANCH   1   8
ATOM      6  C   UNL     1       1.228  -2.186  -0.022  0.00  0.00    +0.047 C 
ATOM      7  C   UNL     1       1.208  -0.680  -0.013  0.00  0.00    -0.008 A 
ATOM      8  C   UNL     1       2.400   0.032  -0.021  0.00  0.00    +0.055 A 
ATOM      9  C   UNL     1       2.377   1.420  -0.013  0.00  0.00    +0.026 A 
ATOM     10  C   UNL     1       1.169   2.090   0.002  0.00  0.00    +0.003 A 
ATOM     11  C   UNL     1      -0.017   1.380   0.010  0.00  0.00    +0.020 A 
ATOM     12  C   UNL     1       0.002  -0.004   0.002  0.00  0.00    +0.046 A 
ATOM     13 CL   UNL     1      -1.490  -0.892   0.012  0.00  0.00    -0.083 Cl
ENDBRANCH   1   8
BRANCH   2  14
ATOM     14  C   UNL     1       4.014  -0.868   2.474  0.00  0.00    +0.022 A 
ATOM     15  C   UNL     1       3.024   0.047   2.854  0.00  0.00    +0.031 A 
ATOM     16  C   UNL     1       2.727   0.192   4.193  0.00  0.00    +0.111 A 
ATOM     17  N   UNL     1       3.369  -0.507   5.109  0.00  0.00    -0.263 NA
ATOM     18  C   UNL     1       4.311  -1.376   4.795  0.00  0.00    +0.111 A 
ATOM     19  C   UNL     1       4.669  -1.589   3.481  0.00  0.00    +0.031 A 
ENDBRANCH   2  14
BRANCH   5  20
ATOM     20  S   UNL     1       3.877  -0.808  -2.819  0.00  0.00    -0.078 S 
BRANCH  20  21
ATOM     21  C   UNL     1       5.283  -1.596  -3.643  0.00  0.00    +0.151 C 
BRANCH  21  22
ATOM     22  C   UNL     1       5.105  -1.506  -5.136  0.00  0.00    +0.121 A 
ATOM     23  N   UNL     1       6.064  -2.045  -5.935  0.00  0.00    -0.309 N 
ATOM     24  H   UNL     1       6.841  -2.475  -5.545  0.00  0.00    +0.170 HD
ATOM     25  C   UNL     1       5.924  -1.976  -7.281  0.00  0.00    +0.266 A 
ATOM     26  O   UNL     1       6.766  -2.449  -8.024  0.00  0.00    -0.267 OA
ATOM     27  C   UNL     1       4.788  -1.347  -7.792  0.00  0.00    +0.102 A 
ATOM     28  C   UNL     1       3.811  -0.797  -6.944  0.00  0.00    +0.085 A 
ATOM     29  N   UNL     1       4.044  -0.924  -5.596  0.00  0.00    -0.232 NA
ATOM     30  C   UNL     1       2.722  -0.195  -7.588  0.00  0.00    +0.036 A 
ATOM     31  C   UNL     1       2.660  -0.169  -8.937  0.00  0.00    +0.048 A 
ATOM     32  S   UNL     1       4.162  -1.008  -9.416  0.00  0.00    -0.090 S 
ENDBRANCH  21  22
ENDBRANCH  20  21
ENDBRANCH   5  20
TORSDOF 5
