REMARK  Name = ZINC54689969
REMARK  7 active torsions:
REMARK  status: ('A' for Active; 'I' for Inactive)
REMARK    1  A    between atoms: C_1  and  C_2
REMARK    2  A    between atoms: C_7  and  S_10
REMARK    3  A    between atoms: S_10  and  C_11
REMARK    4  A    between atoms: C_11  and  C_13
REMARK    5  A    between atoms: C_11  and  C_14
REMARK    6  A    between atoms: N_16  and  C_17
REMARK    7  A    between atoms: C_20  and  N_24
REMARK                            x       y       z     vdW  Elec       q    Type
REMARK                         _______ _______ _______ _____ _____    ______ ____
ROOT
ATOM      1  C   UNL     1       0.954   0.078   6.591  0.00  0.00    +0.230 C 
ATOM      2  O   UNL     1       1.714  -0.864   6.669  0.00  0.00    -0.274 OA
ATOM      3  N   UNL     1       0.827   0.929   7.628  0.00  0.00    -0.283 N 
ATOM      4  H   UNL     1       0.273   1.720   7.541  0.00  0.00    +0.155 HD
ENDROOT
BRANCH   3   5
ATOM      5  C   UNL     1       1.495   0.670   8.833  0.00  0.00    +0.052 A 
ATOM      6  C   UNL     1       2.741   0.057   8.818  0.00  0.00    +0.026 A 
ATOM      7  C   UNL     1       3.399  -0.198  10.005  0.00  0.00    +0.024 A 
ATOM      8  C   UNL     1       2.816   0.159  11.214  0.00  0.00    +0.026 A 
ATOM      9  C   UNL     1       1.571   0.773  11.230  0.00  0.00    +0.044 A 
ATOM     10  C   UNL     1       0.914   1.033  10.042  0.00  0.00    +0.064 A 
ATOM     11 CL   UNL     1      -0.640   1.806  10.061  0.00  0.00    -0.082 Cl
BRANCH   8  12
ATOM     12  N   UNL     1       3.483  -0.101  12.416  0.00  0.00    -0.358 N 
ATOM     13  H   UNL     1       4.353  -0.530  12.405  0.00  0.00    +0.142 HD
ATOM     14  H   UNL     1       3.076   0.149  13.260  0.00  0.00    +0.142 HD
ENDBRANCH   8  12
ENDBRANCH   3   5
BRANCH   1  15
ATOM     15  C   UNL     1       0.152   0.297   5.334  0.00  0.00    +0.130 C 
ATOM     16  C   UNL     1      -1.271  -0.226   5.539  0.00  0.00    +0.029 C 
BRANCH  15  17
ATOM     17  S   UNL     1       0.931  -0.592   3.958  0.00  0.00    -0.145 S 
BRANCH  17  23
ATOM     18  C   UNL     1      -1.963   1.743   1.255  0.00  0.00    +0.007 C 
ATOM     19  C   UNL     1      -0.463   1.953   1.039  0.00  0.00    -0.013 C 
ATOM     20  C   UNL     1      -0.009   1.159  -0.187  0.00  0.00    +0.003 C 
ATOM     21  C   UNL     1      -0.288  -0.329   0.036  0.00  0.00    +0.001 C 
ATOM     22  C   UNL     1       0.477  -0.812   1.269  0.00  0.00    +0.014 C 
ATOM     23  C   UNL     1       0.023  -0.018   2.495  0.00  0.00    +0.047 C 
ATOM     24  C   UNL     1       0.303   1.469   2.272  0.00  0.00    +0.017 C 
ENDBRANCH  17  23
ENDBRANCH  15  17
ENDBRANCH   1  15
TORSDOF 5
