REMARK  Name = ZINC35851699
REMARK  3 active torsions:
REMARK  status: ('A' for Active; 'I' for Inactive)
REMARK    1  A    between atoms: C_1  and  C_2
REMARK    2  A    between atoms: C_2  and  C_3
REMARK    3  A    between atoms: N_22  and  C_25
REMARK                            x       y       z     vdW  Elec       q    Type
REMARK                         _______ _______ _______ _____ _____    ______ ____
ROOT
ATOM      1  C   UNL     1      -1.639  -1.333   0.148  0.00  0.00    -0.047 A 
ATOM      2  C   UNL     1      -2.345  -1.810   1.237  0.00  0.00    +0.005 A 
ATOM      3  C   UNL     1      -3.634  -2.275   1.082  0.00  0.00    +0.024 A 
ATOM      4  C   UNL     1      -4.235  -2.268  -0.175  0.00  0.00    +0.039 A 
ATOM      5  C   UNL     1      -3.515  -1.784  -1.263  0.00  0.00    +0.004 A 
ATOM      6  C   UNL     1      -2.230  -1.316  -1.103  0.00  0.00    +0.011 A 
ATOM      7  C   UNL     1      -4.430  -1.907  -2.450  0.00  0.00    +0.138 C 
ATOM      8  C   UNL     1      -4.693  -0.541  -3.096  0.00  0.00    +0.123 C 
ATOM      9  C   UNL     1      -4.773  -0.835  -4.619  0.00  0.00    +0.107 C 
ATOM     10  C   UNL     1      -4.540  -2.351  -4.750  0.00  0.00    +0.071 C 
ATOM     11  N   UNL     1      -3.841  -2.756  -3.499  0.00  0.00    -0.281 NA
ATOM     12  C   UNL     1      -2.431  -2.363  -3.731  0.00  0.00    +0.086 C 
ATOM     13  C   UNL     1      -2.168  -2.655  -5.222  0.00  0.00    +0.017 C 
ATOM     14  C   UNL     1      -3.561  -2.618  -5.908  0.00  0.00    +0.021 C 
ATOM     15  C   UNL     1      -6.207  -0.502  -4.963  0.00  0.00    +0.232 C 
ATOM     16  O   UNL     1      -6.702  -0.592  -6.066  0.00  0.00    -0.274 OA
ATOM     17  N   UNL     1      -6.846  -0.094  -3.860  0.00  0.00    -0.210 N 
ATOM     18  C   UNL     1      -6.085  -0.070  -2.742  0.00  0.00    +0.233 C 
ATOM     19  O   UNL     1      -6.450   0.270  -1.637  0.00  0.00    -0.274 OA
ATOM     20  C   UNL     1      -5.698  -2.505  -1.903  0.00  0.00    +0.243 C 
ATOM     21  O   UNL     1      -6.699  -2.777  -2.532  0.00  0.00    -0.273 OA
ATOM     22  N   UNL     1      -5.505  -2.682  -0.582  0.00  0.00    -0.283 N 
ATOM     23  H   UNL     1      -6.172  -3.052   0.017  0.00  0.00    +0.155 HD
ENDROOT
BRANCH  17  24
ATOM     24  C   UNL     1      -8.195   0.285  -3.862  0.00  0.00    +0.045 A 
ATOM     25  C   UNL     1      -9.183  -0.662  -4.098  0.00  0.00    +0.024 A 
ATOM     26  C   UNL     1     -10.512  -0.286  -4.098  0.00  0.00    +0.003 A 
ATOM     27  C   UNL     1     -10.860   1.032  -3.865  0.00  0.00    +0.015 A 
ATOM     28  C   UNL     1      -9.878   1.978  -3.630  0.00  0.00    +0.020 A 
ATOM     29  C   UNL     1      -8.547   1.606  -3.623  0.00  0.00    +0.039 A 
ATOM     30 BR   UNL     1     -10.358   3.779  -3.313  0.00  0.00    -0.050 Br
ENDBRANCH  17  24
BRANCH   1  32
ATOM     31  C   UNL     1      -0.260   0.668   0.641  0.00  0.00    +0.009 C 
ATOM     32  C   UNL     1      -0.230  -0.828   0.324  0.00  0.00    +0.032 C 
ENDBRANCH   1  32
TORSDOF 2
