REMARK  Name = ZINC13520676
REMARK  7 active torsions:
REMARK  status: ('A' for Active; 'I' for Inactive)
REMARK    1  A    between atoms: C_1  and  C_2
REMARK    2  A    between atoms: C_5  and  C_8
REMARK    3  A    between atoms: C_8  and  N_9
REMARK    4  A    between atoms: C_16  and  N_19
REMARK    5  A    between atoms: C_17  and  O_18
REMARK    6  A    between atoms: N_20  and  C_21
REMARK    7  A    between atoms: N_22  and  C_23
REMARK                            x       y       z     vdW  Elec       q    Type
REMARK                         _______ _______ _______ _____ _____    ______ ____
ROOT
ATOM      1  N   UNL     1       1.758  -4.153  -0.064  0.00  0.00    -0.306 N 
ATOM      2  C   UNL     1       2.353  -4.688  -1.194  0.00  0.00    +0.055 A 
ATOM      3  C   UNL     1       2.046  -4.609  -2.548  0.00  0.00    +0.026 A 
ATOM      4  C   UNL     1       2.836  -5.261  -3.472  0.00  0.00    +0.002 A 
ATOM      5  C   UNL     1       3.937  -5.998  -3.066  0.00  0.00    +0.001 A 
ATOM      6  C   UNL     1       4.256  -6.088  -1.727  0.00  0.00    +0.012 A 
ATOM      7  C   UNL     1       3.468  -5.434  -0.785  0.00  0.00    +0.031 A 
ATOM      8  C   UNL     1       3.519  -5.321   0.687  0.00  0.00    +0.155 A 
ATOM      9  C   UNL     1       2.440  -4.515   1.051  0.00  0.00    +0.222 A 
ENDROOT
BRANCH   9  10
ATOM     10  O   UNL     1       2.123  -4.155   2.313  0.00  0.00    -0.492 OA
ATOM     11  H   UNL     1       1.522  -4.769   2.758  0.00  0.00    +0.294 HD
ENDBRANCH   9  10
BRANCH   8  12
ATOM     12  N   UNL     1       4.422  -5.876   1.505  0.00  0.00    -0.141 NA
ATOM     13  N   UNL     1       4.339  -5.688   2.779  0.00  0.00    -0.123 NA
BRANCH  13  14
ATOM     14  C   UNL     1       5.247  -6.247   3.603  0.00  0.00    +0.199 C 
ATOM     15  N   UNL     1       5.159  -6.046   4.959  0.00  0.00    -0.330 N 
ATOM     16  S   UNL     1       6.473  -7.176   2.979  0.00  0.00    -0.009 SA
ATOM     17  H   UNL     1       4.392  -5.584   5.332  0.00  0.00    +0.168 HD
BRANCH  15  18
ATOM     18  C   UNL     1       6.175  -6.510   5.802  0.00  0.00    +0.077 A 
ATOM     19  C   UNL     1       7.506  -6.334   5.450  0.00  0.00    +0.028 A 
ATOM     20  C   UNL     1       8.507  -6.792   6.284  0.00  0.00    +0.002 A 
ATOM     21  C   UNL     1       8.185  -7.425   7.471  0.00  0.00    +0.003 A 
ATOM     22  C   UNL     1       6.861  -7.602   7.827  0.00  0.00    +0.040 A 
ATOM     23  C   UNL     1       5.854  -7.142   6.999  0.00  0.00    +0.147 A 
ATOM     24  F   UNL     1       4.560  -7.310   7.349  0.00  0.00    -0.203 F 
ENDBRANCH  15  18
ENDBRANCH  13  14
ENDBRANCH   8  12
BRANCH   1  25
ATOM     25  C   UNL     1       0.561  -3.308  -0.072  0.00  0.00    +0.160 C 
BRANCH  25  30
ATOM     26  C   UNL     1       2.118   2.236  -0.558  0.00  0.00    +0.044 C 
ATOM     27  C   UNL     1       1.712   0.790  -0.431  0.00  0.00    -0.050 A 
ATOM     28  C   UNL     1       1.472   0.038  -1.566  0.00  0.00    +0.004 A 
ATOM     29  C   UNL     1       1.100  -1.289  -1.450  0.00  0.00    +0.005 A 
ATOM     30  C   UNL     1       0.968  -1.862  -0.199  0.00  0.00    -0.028 A 
ATOM     31  C   UNL     1       1.209  -1.110   0.936  0.00  0.00    +0.005 A 
ATOM     32  C   UNL     1       1.586   0.215   0.819  0.00  0.00    +0.004 A 
ENDBRANCH  25  30
ENDBRANCH   1  25
TORSDOF 6
