REMARK  Name = ZINC43218825
REMARK  12 active torsions:
REMARK  status: ('A' for Active; 'I' for Inactive)
REMARK    1  A    between atoms: C_1  and  C_2
REMARK    2  A    between atoms: C_2  and  C_3
REMARK    3  A    between atoms: C_2  and  C_4
REMARK    4  A    between atoms: C_2  and  N_5
REMARK    5  A    between atoms: C_10  and  C_27
REMARK    6  A    between atoms: C_13  and  C_18
REMARK    7  A    between atoms: C_13  and  C_24
REMARK    8  A    between atoms: C_31  and  O_41
REMARK    9  A    between atoms: C_32  and  O_33
REMARK   10  A    between atoms: O_33  and  C_34
REMARK   11  A    between atoms: C_34  and  C_35
REMARK   12  A    between atoms: O_41  and  C_42
REMARK                            x       y       z     vdW  Elec       q    Type
REMARK                         _______ _______ _______ _____ _____    ______ ____
ROOT
ATOM      1  N   UNL     1       0.913  -0.651  -1.112  0.00  0.00    -0.236 N 
ATOM      2  C   UNL     1       0.234  -1.371  -2.063  0.00  0.00    +0.225 C 
ATOM      3  O   UNL     1      -0.957  -1.591  -2.113  0.00  0.00    -0.275 OA
ATOM      4  C   UNL     1       1.249  -1.807  -2.989  0.00  0.00    +0.077 C 
ATOM      5  C   UNL     1       1.395  -2.280  -4.376  0.00  0.00    -0.023 C 
ATOM      6  N   UNL     1       2.888  -2.262  -4.560  0.00  0.00    +0.398 N 
ATOM      7  C   UNL     1       3.458  -1.298  -3.572  0.00  0.00    +0.074 C 
ATOM      8  C   UNL     1       2.239  -0.575  -2.978  0.00  0.00    +0.090 C 
ATOM      9  C   UNL     1       2.189  -0.344  -1.493  0.00  0.00    +0.226 C 
ATOM     10  O   UNL     1       3.094   0.034  -0.782  0.00  0.00    -0.275 OA
ATOM     11  H   UNL     1       3.264  -3.184  -4.393  0.00  0.00    -0.083 HD
ATOM     12  H   UNL     1       3.113  -1.964  -5.497  0.00  0.00    -0.083 HD
ENDROOT
BRANCH   7  13
ATOM     13  C   UNL     1       4.228  -2.035  -2.507  0.00  0.00    -0.047 A 
ATOM     14  C   UNL     1       5.240  -1.394  -1.817  0.00  0.00    +0.003 A 
ATOM     15  C   UNL     1       5.946  -2.071  -0.841  0.00  0.00    +0.000 A 
ATOM     16  C   UNL     1       5.641  -3.388  -0.554  0.00  0.00    +0.000 A 
ATOM     17  C   UNL     1       4.628  -4.029  -1.243  0.00  0.00    +0.000 A 
ATOM     18  C   UNL     1       3.919  -3.351  -2.217  0.00  0.00    +0.003 A 
ENDBRANCH   7  13
BRANCH   5  19
ATOM     19  C   UNL     1       0.851  -3.678  -4.528  0.00  0.00    -0.015 A 
ATOM     20  C   UNL     1       1.697  -4.765  -4.414  0.00  0.00    +0.006 A 
ATOM     21  C   UNL     1       1.201  -6.048  -4.553  0.00  0.00    +0.004 A 
ATOM     22  C   UNL     1      -0.143  -6.249  -4.806  0.00  0.00    +0.049 A 
ATOM     23  C   UNL     1      -0.996  -5.164  -4.922  0.00  0.00    +0.162 A 
ATOM     24  C   UNL     1      -0.498  -3.872  -4.776  0.00  0.00    +0.164 A 
BRANCH  23  25
ATOM     25  O   UNL     1      -2.319  -5.360  -5.171  0.00  0.00    -0.491 OA
ATOM     26  C   UNL     1      -2.760  -6.712  -5.303  0.00  0.00    +0.277 C 
ENDBRANCH  23  25
BRANCH  24  27
ATOM     27  O   UNL     1      -1.332  -2.804  -4.883  0.00  0.00    -0.484 OA
BRANCH  27  28
ATOM     28  C   UNL     1      -1.507  -2.245  -6.186  0.00  0.00    +0.264 C 
BRANCH  28  29
ATOM     29  C   UNL     1      -2.459  -1.079  -6.109  0.00  0.00    -0.010 A 
ATOM     30  C   UNL     1      -3.817  -1.284  -6.262  0.00  0.00    +0.007 A 
ATOM     31  C   UNL     1      -4.690  -0.214  -6.191  0.00  0.00    +0.000 A 
ATOM     32  C   UNL     1      -4.204   1.061  -5.968  0.00  0.00    +0.000 A 
ATOM     33  C   UNL     1      -2.845   1.266  -5.815  0.00  0.00    +0.000 A 
ATOM     34  C   UNL     1      -1.973   0.195  -5.881  0.00  0.00    +0.007 A 
ENDBRANCH  28  29
ENDBRANCH  27  28
ENDBRANCH  24  27
ENDBRANCH   5  19
BRANCH   1  36
ATOM     35  C   UNL     1       0.337   1.277   0.279  0.00  0.00    +0.031 C 
ATOM     36  C   UNL     1       0.331  -0.249   0.171  0.00  0.00    +0.036 C 
ATOM     37  C   UNL     1       1.157  -0.844   1.314  0.00  0.00    +0.031 C 
ATOM     38  C   UNL     1      -1.108  -0.761   0.261  0.00  0.00    +0.031 C 
ENDBRANCH   1  36
BRANCH   7  39
ATOM     39  C   UNL     1       4.350  -0.303  -4.269  0.00  0.00    +0.350 C 
ATOM     40  O   UNL     1       4.534  -0.387  -5.472  0.00  0.00    -0.248 OA
ATOM     41  O   UNL     1       4.889   0.585  -3.631  0.00  0.00    -0.248 OA
ENDBRANCH   7  39
TORSDOF 8
