REMARK  Name = ZINC15954492
REMARK  6 active torsions:
REMARK  status: ('A' for Active; 'I' for Inactive)
REMARK    1  A    between atoms: C_1  and  O_2
REMARK    2  A    between atoms: O_2  and  C_3
REMARK    3  A    between atoms: C_7  and  C_9
REMARK    4  A    between atoms: N_28  and  C_31
REMARK    5  A    between atoms: C_31  and  C_32
REMARK    6  A    between atoms: C_32  and  C_33
REMARK                            x       y       z     vdW  Elec       q    Type
REMARK                         _______ _______ _______ _____ _____    ______ ____
ROOT
ATOM      1  C   UNL     1       1.145   3.595   0.010  0.00  0.00    +0.154 C 
ATOM      2  C   UNL     1       0.950   4.113  -1.397  0.00  0.00    +0.046 A 
ATOM      3  C   UNL     1      -0.200   4.673  -1.832  0.00  0.00    -0.015 A 
ATOM      4  C   UNL     1       0.004   5.035  -3.220  0.00  0.00    +0.003 A 
ATOM      5  C   UNL     1      -0.822   5.637  -4.174  0.00  0.00    +0.010 A 
ATOM      6  C   UNL     1      -0.286   5.835  -5.422  0.00  0.00    +0.001 A 
ATOM      7  C   UNL     1       1.010   5.460  -5.735  0.00  0.00    +0.002 A 
ATOM      8  C   UNL     1       1.850   4.862  -4.811  0.00  0.00    +0.026 A 
ATOM      9  C   UNL     1       1.333   4.649  -3.534  0.00  0.00    +0.047 A 
ATOM     10  N   UNL     1       1.872   4.096  -2.409  0.00  0.00    -0.356 N 
ATOM     11  H   UNL     1       2.773   3.744  -2.337  0.00  0.00    +0.166 HD
ATOM     12  C   UNL     1      -1.434   4.865  -0.988  0.00  0.00    +0.069 C 
ATOM     13  C   UNL     1      -1.335   3.961   0.249  0.00  0.00    +0.167 C 
ATOM     14  N   UNL     1       0.006   4.075   0.821  0.00  0.00    -0.276 N 
ATOM     15  C   UNL     1       0.243   4.591   2.029  0.00  0.00    +0.234 C 
ATOM     16  O   UNL     1       1.399   4.704   2.379  0.00  0.00    -0.274 OA
ATOM     17  C   UNL     1      -0.820   5.039   2.978  0.00  0.00    +0.203 C 
ATOM     18  N   UNL     1      -2.155   4.819   2.447  0.00  0.00    -0.291 N 
ATOM     19  C   UNL     1      -2.398   4.336   1.231  0.00  0.00    +0.237 C 
ATOM     20  O   UNL     1      -3.555   4.191   0.898  0.00  0.00    -0.274 OA
ENDROOT
BRANCH   1  25
ATOM     21  C   UNL     1       2.241   0.025   0.585  0.00  0.00    +0.120 A 
ATOM     22  C   UNL     1       1.208  -0.679  -0.017  0.00  0.00    +0.045 A 
ATOM     23  C   UNL     1       0.161   0.002  -0.606  0.00  0.00    +0.004 A 
ATOM     24  C   UNL     1       0.142   1.384  -0.597  0.00  0.00    +0.006 A 
ATOM     25  C   UNL     1       1.170   2.088   0.002  0.00  0.00    -0.018 A 
ATOM     26  C   UNL     1       2.219   1.412   0.593  0.00  0.00    +0.051 A 
BRANCH  21  28
ATOM     27  C   UNL     1       3.230  -2.071   1.118  0.00  0.00    +0.277 C 
ATOM     28  O   UNL     1       3.273  -0.643   1.165  0.00  0.00    -0.495 OA
ENDBRANCH  21  28
ENDBRANCH   1  25
BRANCH  18  29
ATOM     29  C   UNL     1      -3.299   5.148   3.301  0.00  0.00    +0.113 C 
BRANCH  29  30
ATOM     30  C   UNL     1      -3.708   6.604   3.067  0.00  0.00    +0.054 C 
BRANCH  30  31
ATOM     31  C   UNL     1      -4.885   6.942   3.945  0.00  0.00    -0.046 A 
ATOM     32  C   UNL     1      -6.173   6.754   3.477  0.00  0.00    +0.004 A 
ATOM     33  C   UNL     1      -7.253   7.060   4.284  0.00  0.00    +0.000 A 
ATOM     34  C   UNL     1      -7.046   7.563   5.555  0.00  0.00    +0.000 A 
ATOM     35  C   UNL     1      -5.758   7.757   6.020  0.00  0.00    +0.000 A 
ATOM     36  C   UNL     1      -4.678   7.446   5.215  0.00  0.00    +0.004 A 
ENDBRANCH  30  31
ENDBRANCH  29  30
ENDBRANCH  18  29
TORSDOF 5
