REMARK  Name = ZINC55132275
REMARK  7 active torsions:
REMARK  status: ('A' for Active; 'I' for Inactive)
REMARK    1  A    between atoms: C_1  and  C_2
REMARK    2  A    between atoms: C_2  and  C_3
REMARK    3  A    between atoms: C_3  and  C_5
REMARK    4  A    between atoms: C_3  and  N_11
REMARK    5  A    between atoms: C_12  and  C_14
REMARK    6  A    between atoms: C_18  and  N_24
REMARK    7  A    between atoms: C_20  and  C_23
REMARK                            x       y       z     vdW  Elec       q    Type
REMARK                         _______ _______ _______ _____ _____    ______ ____
ROOT
ATOM      1  N   UNL     1      -0.055  -0.114  -2.441  0.00  0.00    -0.312 N 
ATOM      2  C   UNL     1       0.107   1.109  -2.984  0.00  0.00    +0.216 C 
ATOM      3  O   UNL     1       0.893   1.891  -2.493  0.00  0.00    -0.276 OA
ATOM      4  H   UNL     1      -0.683  -0.740  -2.833  0.00  0.00    +0.149 HD
ENDROOT
BRANCH   2   5
ATOM      5  C   UNL     1      -0.688   1.503  -4.202  0.00  0.00    +0.075 C 
ATOM      6  C   UNL     1      -2.182   1.438  -3.878  0.00  0.00    +0.011 C 
ATOM      7  C   UNL     1      -2.990   1.838  -5.115  0.00  0.00    -0.015 C 
ATOM      8  C   UNL     1      -2.619   3.265  -5.526  0.00  0.00    -0.072 C 
ATOM      9  C   UNL     1      -1.125   3.330  -5.849  0.00  0.00    -0.028 C 
ATOM     10  C   UNL     1      -0.318   2.930  -4.613  0.00  0.00    +0.014 C 
ATOM     11  C   UNL     1      -0.809   2.370  -6.998  0.00  0.00    +0.006 C 
BRANCH   8  12
ATOM     12  N   UNL     1      -3.394   3.649  -6.713  0.00  0.00    +0.380 N 
ATOM     13  H   UNL     1      -4.380   3.606  -6.500  0.00  0.00    -0.090 HD
ATOM     14  H   UNL     1      -3.150   4.590  -6.984  0.00  0.00    -0.090 HD
ATOM     15  H   UNL     1      -3.186   3.016  -7.470  0.00  0.00    -0.090 HD
ENDBRANCH   8  12
ENDBRANCH   2   5
BRANCH   1  16
ATOM     16  C   UNL     1       0.718  -0.497  -1.257  0.00  0.00    +0.076 C 
BRANCH  16  17
ATOM     17  C   UNL     1       0.849  -2.021  -1.205  0.00  0.00    +0.009 C 
ATOM     18  C   UNL     1       1.657  -2.422   0.031  0.00  0.00    +0.005 C 
ATOM     19  C   UNL     1       1.788  -3.945   0.083  0.00  0.00    +0.000 C 
ATOM     20  C   UNL     1       2.504  -4.439  -1.176  0.00  0.00    +0.000 C 
ATOM     21  C   UNL     1       1.696  -4.038  -2.412  0.00  0.00    +0.000 C 
ATOM     22  C   UNL     1       1.565  -2.514  -2.464  0.00  0.00    +0.005 C 
ENDBRANCH  16  17
BRANCH  16  24
ATOM     23  C   UNL     1      -0.019   1.526   0.010  0.00  0.00    +0.006 C 
ATOM     24  C   UNL     1       0.002  -0.004   0.002  0.00  0.00    +0.019 C 
ENDBRANCH  16  24
ENDBRANCH   1  16
TORSDOF 5
