REMARK  Name = ZINC27792117
REMARK  5 active torsions:
REMARK  status: ('A' for Active; 'I' for Inactive)
REMARK    1  A    between atoms: C_1  and  C_2
REMARK    2  A    between atoms: C_2  and  N_3
REMARK    3  A    between atoms: C_6  and  C_19
REMARK    4  A    between atoms: N_10  and  C_11
REMARK    5  A    between atoms: C_19  and  C_20
REMARK                            x       y       z     vdW  Elec       q    Type
REMARK                         _______ _______ _______ _____ _____    ______ ____
ROOT
ATOM      1  N   UNL     1      -0.651   0.433  -3.342  0.00  0.00    -0.250 N 
ATOM      2  C   UNL     1      -0.007   1.229  -2.505  0.00  0.00    +0.235 C 
ATOM      3  O   UNL     1       1.109   1.642  -2.739  0.00  0.00    -0.274 OA
ATOM      4  C   UNL     1      -0.753   1.593  -1.232  0.00  0.00    +0.151 C 
ATOM      5  S   UNL     1      -2.320   0.672  -1.493  0.00  0.00    -0.077 S 
ATOM      6  C   UNL     1      -1.919  -0.041  -3.081  0.00  0.00    +0.164 C 
ATOM      7  N   UNL     1      -2.659  -0.830  -3.825  0.00  0.00    -0.226 NA
ENDROOT
BRANCH   7   8
ATOM      8  C   UNL     1      -3.907  -1.200  -3.400  0.00  0.00    +0.069 A 
ATOM      9  C   UNL     1      -4.104  -1.617  -2.082  0.00  0.00    +0.048 A 
ATOM     10  C   UNL     1      -5.366  -1.984  -1.659  0.00  0.00    +0.044 A 
ATOM     11  C   UNL     1      -6.433  -1.949  -2.541  0.00  0.00    +0.040 A 
ATOM     12  C   UNL     1      -6.242  -1.542  -3.850  0.00  0.00    +0.044 A 
ATOM     13  C   UNL     1      -4.987  -1.167  -4.285  0.00  0.00    +0.048 A 
ATOM     14 CL   UNL     1      -7.586  -1.503  -4.949  0.00  0.00    -0.083 Cl
ATOM     15 CL   UNL     1      -5.614  -2.497  -0.019  0.00  0.00    -0.083 Cl
ENDBRANCH   7   8
BRANCH   1  17
ATOM     16  C   UNL     1       0.801  -1.249  -4.364  0.00  0.00    +0.025 C 
ATOM     17  C   UNL     1       0.007   0.040  -4.590  0.00  0.00    +0.112 C 
ENDBRANCH   1  17
BRANCH   4  18
ATOM     18  C   UNL     1      -0.013   1.086   0.008  0.00  0.00    +0.149 C 
BRANCH  18  19
ATOM     19  C   UNL     1      -0.718   1.572   1.248  0.00  0.00    +0.358 C 
ATOM     20  O   UNL     1      -1.711   2.254   1.150  0.00  0.00    -0.246 OA
ATOM     21  O   UNL     1      -0.243   1.247   2.461  0.00  0.00    -0.246 OA
ENDBRANCH  18  19
ENDBRANCH   4  18
TORSDOF 4
