REMARK  Name = ZINC05437623
REMARK  8 active torsions:
REMARK  status: ('A' for Active; 'I' for Inactive)
REMARK    1  A    between atoms: C_1  and  C_2
REMARK    2  A    between atoms: C_4  and  C_7
REMARK    3  A    between atoms: C_7  and  O_33
REMARK    4  A    between atoms: C_11  and  O_28
REMARK    5  A    between atoms: C_14  and  O_15
REMARK    6  A    between atoms: C_22  and  O_26
REMARK    7  A    between atoms: O_26  and  C_27
REMARK    8  A    between atoms: C_29  and  O_32
REMARK                            x       y       z     vdW  Elec       q    Type
REMARK                         _______ _______ _______ _____ _____    ______ ____
ROOT
ATOM      1  C   UNL     1       1.158  -0.419  -0.328  0.00  0.00    +0.115 C 
ATOM      2  C   UNL     1      -0.169   0.292  -0.070  0.00  0.00    +0.080 C 
ATOM      3  C   UNL     1      -0.011   1.783  -0.218  0.00  0.00    +0.007 A 
ATOM      4  C   UNL     1       1.214   2.402  -0.192  0.00  0.00    +0.030 A 
ATOM      5  C   UNL     1       1.300   3.794  -0.329  0.00  0.00    +0.134 A 
ATOM      6  C   UNL     1       0.150   4.562  -0.496  0.00  0.00    +0.078 A 
ATOM      7  C   UNL     1      -1.108   3.926  -0.527  0.00  0.00    +0.078 A 
ATOM      8  C   UNL     1      -1.177   2.542  -0.382  0.00  0.00    +0.132 A 
ATOM      9  C   UNL     1      -2.333   4.724  -0.704  0.00  0.00    +0.198 C 
ATOM     10  O   UNL     1      -3.418   4.176  -0.732  0.00  0.00    -0.286 OA
ATOM     11  C   UNL     1      -2.241   6.192  -0.849  0.00  0.00    +0.037 A 
ATOM     12  C   UNL     1      -3.393   6.954  -1.017  0.00  0.00    +0.012 A 
ATOM     13  C   UNL     1      -3.301   8.329  -1.154  0.00  0.00    +0.004 A 
ATOM     14  C   UNL     1      -2.072   8.957  -1.124  0.00  0.00    +0.046 A 
ATOM     15  C   UNL     1      -0.907   8.214  -0.957  0.00  0.00    +0.132 A 
ATOM     16  C   UNL     1      -0.985   6.825  -0.818  0.00  0.00    +0.075 A 
ATOM     17  C   UNL     1       0.241   6.026  -0.640  0.00  0.00    +0.202 C 
ATOM     18  O   UNL     1       1.327   6.574  -0.612  0.00  0.00    -0.286 OA
ATOM     19  C   UNL     1       2.504   1.642  -0.023  0.00  0.00    +0.152 C 
ATOM     20  C   UNL     1       2.237   0.245   0.535  0.00  0.00    +0.077 C 
ENDROOT
BRANCH   1  24
ATOM     21  C   UNL     1       2.355  -4.391   2.468  0.00  0.00    +0.073 C 
ATOM     22  C   UNL     1       1.640  -3.644   1.372  0.00  0.00    +0.076 A 
ATOM     23  N   UNL     1       1.737  -2.378   1.037  0.00  0.00    -0.246 NA
ATOM     24  C   UNL     1       1.035  -1.874   0.044  0.00  0.00    +0.081 A 
ATOM     25  C   UNL     1       0.193  -2.696  -0.633  0.00  0.00    +0.073 A 
ATOM     26  S   UNL     1       0.474  -4.236   0.229  0.00  0.00    -0.080 S 
ENDBRANCH   1  24
BRANCH   8  27
ATOM     27  O   UNL     1      -2.384   1.923  -0.406  0.00  0.00    -0.506 OA
ATOM     28  H   UNL     1      -2.798   1.834   0.463  0.00  0.00    +0.292 HD
ENDBRANCH   8  27
BRANCH  15  29
ATOM     29  O   UNL     1       0.298   8.835  -0.928  0.00  0.00    -0.494 OA
ATOM     30  C   UNL     1       0.300  10.256  -1.076  0.00  0.00    +0.277 C 
ENDBRANCH  15  29
BRANCH   5  31
ATOM     31  O   UNL     1       2.514   4.399  -0.298  0.00  0.00    -0.506 OA
ATOM     32  H   UNL     1       2.933   4.484  -1.165  0.00  0.00    +0.292 HD
ENDBRANCH   5  31
BRANCH  19  33
ATOM     33  O   UNL     1       3.355   2.353   0.878  0.00  0.00    -0.387 OA
ATOM     34  H   UNL     1       4.243   1.978   0.959  0.00  0.00    +0.210 HD
ENDBRANCH  19  33
BRANCH   1  35
ATOM     35  O   UNL     1       1.505  -0.303  -1.710  0.00  0.00    -0.382 OA
ATOM     36  H   UNL     1       0.855  -0.689  -2.312  0.00  0.00    +0.211 HD
ENDBRANCH   1  35
TORSDOF 6
