REMARK  Name = ZINC35373219
REMARK  6 active torsions:
REMARK  status: ('A' for Active; 'I' for Inactive)
REMARK    1  A    between atoms: C_1  and  N_2
REMARK    2  A    between atoms: C_5  and  C_21
REMARK    3  A    between atoms: C_8  and  C_13
REMARK    4  A    between atoms: C_16  and  O_20
REMARK    5  A    between atoms: C_17  and  O_19
REMARK    6  A    between atoms: N_30  and  C_33
REMARK                            x       y       z     vdW  Elec       q    Type
REMARK                         _______ _______ _______ _____ _____    ______ ____
ROOT
ATOM      1  C   UNL     1      -0.140   1.996   0.377  0.00  0.00    +0.154 C 
ATOM      2  N   UNL     1       0.130   0.565   0.534  0.00  0.00    -0.294 N 
ATOM      3  C   UNL     1      -0.933  -0.346   0.557  0.00  0.00    +0.083 A 
ATOM      4  C   UNL     1      -0.609  -1.773   0.717  0.00  0.00    +0.089 A 
ATOM      5  C   UNL     1      -1.816  -2.451   0.709  0.00  0.00    +0.064 A 
ATOM      6  N   UNL     1      -2.806  -1.533   0.559  0.00  0.00    -0.337 N 
ATOM      7  C   UNL     1      -2.267  -0.267   0.466  0.00  0.00    +0.077 A 
ATOM      8  C   UNL     1      -3.113   0.974   0.288  0.00  0.00    +0.197 C 
ATOM      9  O   UNL     1      -4.430   0.554  -0.097  0.00  0.00    -0.364 OA
ATOM     10  C   UNL     1      -4.984  -0.464   0.741  0.00  0.00    +0.182 C 
ATOM     11  C   UNL     1      -4.252  -1.789   0.498  0.00  0.00    +0.150 C 
ATOM     12  C   UNL     1       0.804  -2.141   0.839  0.00  0.00    +0.266 A 
ATOM     13  O   UNL     1       1.135  -3.304   0.972  0.00  0.00    -0.267 OA
ATOM     14  N   UNL     1       1.729  -1.158   0.800  0.00  0.00    -0.263 N 
ATOM     15  C   UNL     1       1.397   0.131   0.649  0.00  0.00    +0.332 A 
ATOM     16  O   UNL     1       2.291   0.954   0.618  0.00  0.00    -0.246 OA
ATOM     17  C   UNL     1       3.145  -1.514   0.922  0.00  0.00    +0.157 C 
ENDROOT
BRANCH   5  18
ATOM     18  C   UNL     1      -1.996  -3.910   0.841  0.00  0.00    +0.000 A 
ATOM     19  C   UNL     1      -2.983  -4.423   1.686  0.00  0.00    +0.010 A 
ATOM     20  C   UNL     1      -3.146  -5.787   1.804  0.00  0.00    +0.002 A 
ATOM     21  C   UNL     1      -2.334  -6.649   1.088  0.00  0.00    +0.015 A 
ATOM     22  C   UNL     1      -1.353  -6.149   0.248  0.00  0.00    +0.019 A 
ATOM     23  C   UNL     1      -1.183  -4.785   0.116  0.00  0.00    +0.025 A 
ATOM     24 BR   UNL     1      -0.249  -7.336  -0.725  0.00  0.00    -0.050 Br
ENDBRANCH   5  18
BRANCH   8  25
ATOM     25  C   UNL     1      -2.520   1.846  -0.788  0.00  0.00    -0.009 A 
ATOM     26  C   UNL     1      -2.178   1.298  -2.010  0.00  0.00    +0.010 A 
ATOM     27  C   UNL     1      -1.633   2.094  -3.000  0.00  0.00    +0.049 A 
ATOM     28  C   UNL     1      -1.428   3.445  -2.769  0.00  0.00    +0.158 A 
ATOM     29  C   UNL     1      -1.773   3.997  -1.539  0.00  0.00    +0.159 A 
ATOM     30  C   UNL     1      -2.323   3.194  -0.552  0.00  0.00    +0.055 A 
BRANCH  29  31
ATOM     31  O   UNL     1      -1.574   5.322  -1.307  0.00  0.00    -0.503 OA
ATOM     32  H   UNL     1      -2.326   5.880  -1.545  0.00  0.00    +0.292 HD
ENDBRANCH  29  31
BRANCH  28  33
ATOM     33  O   UNL     1      -0.892   4.229  -3.742  0.00  0.00    -0.503 OA
ATOM     34  H   UNL     1      -1.547   4.631  -4.329  0.00  0.00    +0.292 HD
ENDBRANCH  28  33
ENDBRANCH   8  25
TORSDOF 4
