REMARK  Name = ZINC21226283
REMARK  9 active torsions:
REMARK  status: ('A' for Active; 'I' for Inactive)
REMARK    1  A    between atoms: C_1  and  C_2
REMARK    2  A    between atoms: C_2  and  C_3
REMARK    3  A    between atoms: C_6  and  C_9
REMARK    4  A    between atoms: C_14  and  C_24
REMARK    5  A    between atoms: C_27  and  N_30
REMARK    6  A    between atoms: N_30  and  C_31
REMARK    7  A    between atoms: N_30  and  C_33
REMARK    8  A    between atoms: C_31  and  C_32
REMARK    9  A    between atoms: C_33  and  C_34
REMARK                            x       y       z     vdW  Elec       q    Type
REMARK                         _______ _______ _______ _____ _____    ______ ____
ROOT
ATOM      1  C   UNL     1      -4.929   5.618  -1.453  0.00  0.00    +0.032 C 
ATOM      2  C   UNL     1      -4.235   4.325  -1.030  0.00  0.00    +0.059 C 
ATOM      3  C   UNL     1      -2.770   4.598  -0.730  0.00  0.00    +0.017 C 
ATOM      4  C   UNL     1      -2.101   5.544  -1.409  0.00  0.00    +0.036 C 
ATOM      5  C   UNL     1      -0.643   5.899  -1.233  0.00  0.00    +0.136 C 
ATOM      6  N   UNL     1      -0.024   5.315  -0.062  0.00  0.00    -0.331 N 
ATOM      7  C   UNL     1       0.121   3.935   0.063  0.00  0.00    +0.049 A 
ATOM      8  C   UNL     1       1.371   3.336   0.047  0.00  0.00    +0.025 A 
ATOM      9  C   UNL     1       1.465   1.957   0.111  0.00  0.00    +0.002 A 
ATOM     10  C   UNL     1       0.324   1.179   0.176  0.00  0.00    +0.002 A 
ATOM     11  C   UNL     1      -0.926   1.774   0.190  0.00  0.00    +0.025 A 
ATOM     12  C   UNL     1      -1.021   3.154   0.158  0.00  0.00    +0.052 A 
ATOM     13  N   UNL     1      -2.240   3.819   0.248  0.00  0.00    -0.316 N 
ATOM     14  C   UNL     1      -2.763   6.318  -2.391  0.00  0.00    +0.163 C 
ATOM     15  O   UNL     1      -2.129   7.157  -3.001  0.00  0.00    -0.292 OA
ATOM     16  C   UNL     1      -4.218   6.142  -2.706  0.00  0.00    +0.088 C 
ATOM     17  H   UNL     1       0.342   5.964   0.747  0.00  0.00    +0.147 HD
ATOM     18  H   UNL     1      -2.782   3.679   1.194  0.00  0.00    +0.152 HD
ENDROOT
BRANCH   1  22
ATOM     19  C   UNL     1      -9.034   4.836  -2.338  0.00  0.00    -0.048 A 
ATOM     20  C   UNL     1      -8.701   5.756  -1.361  0.00  0.00    +0.004 A 
ATOM     21  C   UNL     1      -7.372   6.010  -1.075  0.00  0.00    +0.004 A 
ATOM     22  C   UNL     1      -6.377   5.342  -1.765  0.00  0.00    -0.043 A 
ATOM     23  C   UNL     1      -6.710   4.426  -2.744  0.00  0.00    +0.004 A 
ATOM     24  C   UNL     1      -8.039   4.169  -3.028  0.00  0.00    +0.004 A 
BRANCH  19  26
ATOM     25  C   UNL     1     -10.959   5.514  -3.747  0.00  0.00    +0.009 C 
ATOM     26  C   UNL     1     -10.482   4.560  -2.650  0.00  0.00    +0.032 C 
ENDBRANCH  19  26
ENDBRANCH   1  22
BRANCH   5  27
ATOM     27  C   UNL     1       0.109   5.435  -2.454  0.00  0.00    -0.023 A 
ATOM     28  C   UNL     1       0.699   6.362  -3.294  0.00  0.00    +0.007 A 
ATOM     29  C   UNL     1       1.394   5.941  -4.410  0.00  0.00    +0.023 A 
ATOM     30  C   UNL     1       1.490   4.585  -4.695  0.00  0.00    +0.030 A 
ATOM     31  C   UNL     1       0.892   3.656  -3.853  0.00  0.00    +0.023 A 
ATOM     32  C   UNL     1       0.203   4.085  -2.735  0.00  0.00    +0.007 A 
BRANCH  30  33
ATOM     33  N   UNL     1       2.188   4.155  -5.827  0.00  0.00    -0.330 N 
BRANCH  33  34
ATOM     34  C   UNL     1       2.819   5.135  -6.714  0.00  0.00    +0.102 C 
ATOM     35  C   UNL     1       4.251   5.400  -6.246  0.00  0.00    +0.024 C 
ENDBRANCH  33  34
BRANCH  33  36
ATOM     36  C   UNL     1       2.289   2.724  -6.125  0.00  0.00    +0.102 C 
ATOM     37  C   UNL     1       1.112   2.303  -7.006  0.00  0.00    +0.024 C 
ENDBRANCH  33  36
ENDBRANCH  30  33
ENDBRANCH   5  27
TORSDOF 6
