REMARK  Name = ZINC66867879
REMARK  8 active torsions:
REMARK  status: ('A' for Active; 'I' for Inactive)
REMARK    1  A    between atoms: C_1  and  N_2
REMARK    2  A    between atoms: C_3  and  C_24
REMARK    3  A    between atoms: C_6  and  C_7
REMARK    4  A    between atoms: C_7  and  C_9
REMARK    5  A    between atoms: C_7  and  C_11
REMARK    6  A    between atoms: C_11  and  C_13
REMARK    7  A    between atoms: C_13  and  S_14
REMARK    8  A    between atoms: S_14  and  C_15
REMARK                            x       y       z     vdW  Elec       q    Type
REMARK                         _______ _______ _______ _____ _____    ______ ____
ROOT
ATOM      1  C   UNL     1       0.232  -0.405   2.519  0.00  0.00    +0.225 C 
ENDROOT
BRANCH   1   7
ATOM      2  C   UNL     1      -0.052   1.460   0.013  0.00  0.00    +0.152 C 
ATOM      3  N   UNL     1      -0.013  -0.004   0.003  0.00  0.00    -0.313 N 
ATOM      4  C   UNL     1      -0.086  -0.825  -1.090  0.00  0.00    +0.164 A 
ATOM      5  N   UNL     1      -0.013  -2.061  -0.647  0.00  0.00    -0.129 NA
ATOM      6  N   UNL     1       0.099  -2.057   0.633  0.00  0.00    -0.132 NA
ATOM      7  C   UNL     1       0.110  -0.830   1.079  0.00  0.00    +0.158 A 
BRANCH   4   8
ATOM      8  C   UNL     1      -0.222  -0.402  -2.501  0.00  0.00    +0.019 A 
ATOM      9  C   UNL     1      -0.717  -1.291  -3.454  0.00  0.00    +0.011 A 
ATOM     10  C   UNL     1      -0.841  -0.890  -4.769  0.00  0.00    +0.001 A 
ATOM     11  C   UNL     1      -0.476   0.391  -5.141  0.00  0.00    +0.000 A 
ATOM     12  C   UNL     1       0.015   1.278  -4.200  0.00  0.00    +0.001 A 
ATOM     13  C   UNL     1       0.139   0.891  -2.882  0.00  0.00    +0.011 A 
ENDBRANCH   4   8
ENDBRANCH   1   7
BRANCH   1  14
ATOM     14  C   UNL     1       1.504  -0.899   3.070  0.00  0.00    +0.082 C 
ATOM     15  N   UNL     1       2.486  -1.280   3.496  0.00  0.00    -0.195 NA
ENDBRANCH   1  14
BRANCH   1  16
ATOM     16  C   UNL     1      -0.915  -0.978   3.311  0.00  0.00    +0.168 C 
ATOM     17  O   UNL     1      -1.412  -2.027   2.980  0.00  0.00    -0.295 OA
BRANCH  16  18
ATOM     18  C   UNL     1      -1.441  -0.242   4.516  0.00  0.00    +0.155 C 
BRANCH  18  19
ATOM     19  S   UNL     1      -2.811  -1.180   5.247  0.00  0.00    -0.059 S 
BRANCH  19  20
ATOM     20  C   UNL     1      -3.309  -0.202   6.625  0.00  0.00    +0.258 A 
ATOM     21  N   UNL     1      -2.767   0.938   6.972  0.00  0.00    -0.203 NA
ATOM     22  C   UNL     1      -3.406   1.407   8.079  0.00  0.00    +0.110 A 
ATOM     23  C   UNL     1      -3.256   2.549   8.867  0.00  0.00    +0.031 A 
ATOM     24  C   UNL     1      -4.081   2.744   9.953  0.00  0.00    +0.002 A 
ATOM     25  C   UNL     1      -5.058   1.812  10.266  0.00  0.00    +0.004 A 
ATOM     26  C   UNL     1      -5.217   0.678   9.495  0.00  0.00    +0.048 A 
ATOM     27  C   UNL     1      -4.396   0.467   8.400  0.00  0.00    +0.156 A 
ATOM     28  O   UNL     1      -4.307  -0.514   7.472  0.00  0.00    -0.431 OA
ENDBRANCH  19  20
ENDBRANCH  18  19
ENDBRANCH  16  18
ENDBRANCH   1  16
TORSDOF 7
