REMARK  Name = ZINC39016825
REMARK  8 active torsions:
REMARK  status: ('A' for Active; 'I' for Inactive)
REMARK    1  A    between atoms: C_1  and  C_2
REMARK    2  A    between atoms: C_2  and  C_3
REMARK    3  A    between atoms: C_3  and  C_4
REMARK    4  A    between atoms: C_4  and  N_5
REMARK    5  A    between atoms: N_5  and  C_6
REMARK    6  A    between atoms: N_5  and  S_19
REMARK    7  A    between atoms: C_6  and  C_7
REMARK    8  A    between atoms: S_19  and  C_22
REMARK                            x       y       z     vdW  Elec       q    Type
REMARK                         _______ _______ _______ _____ _____    ______ ____
ROOT
ATOM      1  N   UNL     1       1.434  -2.452  -2.357  0.00  0.00    -0.176 NA
ENDROOT
BRANCH   1   2
ATOM      2  S   UNL     1       0.441  -2.926  -3.594  0.00  0.00    +0.061 S 
ATOM      3  O   UNL     1       1.150  -3.913  -4.330  0.00  0.00    -0.153 OA
ATOM      4  O   UNL     1      -0.834  -3.176  -3.018  0.00  0.00    -0.153 OA
BRANCH   2   5
ATOM      5  C   UNL     1       0.246  -1.541  -4.666  0.00  0.00    +0.105 A 
ATOM      6  C   UNL     1      -0.781  -0.641  -4.452  0.00  0.00    +0.028 A 
ATOM      7  C   UNL     1      -0.934   0.446  -5.293  0.00  0.00    +0.002 A 
ATOM      8  C   UNL     1      -0.059   0.632  -6.348  0.00  0.00    +0.000 A 
ATOM      9  C   UNL     1       0.968  -0.268  -6.561  0.00  0.00    +0.002 A 
ATOM     10  C   UNL     1       1.123  -1.352  -5.717  0.00  0.00    +0.028 A 
ENDBRANCH   2   5
ENDBRANCH   1   2
BRANCH   1  11
ATOM     11  C   UNL     1       0.859  -1.969  -1.099  0.00  0.00    +0.109 C 
BRANCH  11  12
ATOM     12  C   UNL     1       0.745  -0.444  -1.144  0.00  0.00    +0.017 C 
BRANCH  12  14
ATOM     13  C   UNL     1       0.030   1.587   0.125  0.00  0.00    +0.004 C 
ATOM     14  C   UNL     1       0.144   0.061   0.169  0.00  0.00    -0.002 C 
ENDBRANCH  12  14
ENDBRANCH  11  12
ENDBRANCH   1  11
BRANCH   1  15
ATOM     15  C   UNL     1       2.889  -2.517  -2.521  0.00  0.00    +0.126 C 
BRANCH  15  16
ATOM     16  C   UNL     1       3.400  -3.865  -2.010  0.00  0.00    +0.114 C 
ATOM     17  C   UNL     1       2.971  -4.008  -0.563  0.00  0.00    -0.003 C 
ATOM     18  C   UNL     1       3.952  -4.196   0.364  0.00  0.00    -0.007 A 
ATOM     19  C   UNL     1       3.626  -4.343   1.783  0.00  0.00    +0.009 A 
ATOM     20  C   UNL     1       4.636  -4.527   2.672  0.00  0.00    +0.001 A 
ATOM     21  C   UNL     1       5.968  -4.578   2.258  0.00  0.00    +0.002 A 
ATOM     22  C   UNL     1       6.336  -4.448   0.956  0.00  0.00    +0.024 A 
ATOM     23  C   UNL     1       5.366  -4.254  -0.044  0.00  0.00    +0.040 A 
ATOM     24  N   UNL     1       5.739  -4.128  -1.318  0.00  0.00    -0.284 N 
ATOM     25  C   UNL     1       4.881  -3.942  -2.306  0.00  0.00    +0.225 C 
ATOM     26  O   UNL     1       5.282  -3.833  -3.449  0.00  0.00    -0.275 OA
ATOM     27  H   UNL     1       6.685  -4.175  -1.529  0.00  0.00    +0.155 HD
ENDBRANCH  15  16
ENDBRANCH   1  15
TORSDOF 7
