REMARK  Name = ZINC36159826
REMARK  10 active torsions:
REMARK  status: ('A' for Active; 'I' for Inactive)
REMARK    1  A    between atoms: C_3  and  C_6
REMARK    2  A    between atoms: C_6  and  O_7
REMARK    3  A    between atoms: O_7  and  C_8
REMARK    4  A    between atoms: C_8  and  C_9
REMARK    5  A    between atoms: C_9  and  C_11
REMARK    6  A    between atoms: C_9  and  O_34
REMARK    7  A    between atoms: C_11  and  N_12
REMARK    8  A    between atoms: N_12  and  C_13
REMARK    9  A    between atoms: N_12  and  C_28
REMARK   10  A    between atoms: C_13  and  C_14
REMARK                            x       y       z     vdW  Elec       q    Type
REMARK                         _______ _______ _______ _____ _____    ______ ____
ROOT
ATOM      1  N   UNL     1       7.816   0.448   4.405  0.00  0.00    +0.388 N 
ATOM      2  H   UNL     1       7.366  -0.045   5.162  0.00  0.00    -0.081 HD
ENDROOT
BRANCH   1   3
ATOM      3  C   UNL     1       7.477   1.876   4.482  0.00  0.00    -0.068 C 
ATOM      4  C   UNL     1       8.083   2.609   3.284  0.00  0.00    -0.015 C 
ATOM      5  C   UNL     1       7.731   4.096   3.364  0.00  0.00    -0.002 C 
ATOM      6  C   UNL     1       8.293   4.684   4.660  0.00  0.00    -0.000 C 
ATOM      7  C   UNL     1       7.687   3.951   5.858  0.00  0.00    -0.002 C 
ATOM      8  C   UNL     1       8.040   2.464   5.778  0.00  0.00    -0.015 C 
ENDBRANCH   1   3
BRANCH   1   9
ATOM      9  C   UNL     1       7.353  -0.096   3.122  0.00  0.00    -0.044 C 
BRANCH   9  10
ATOM     10  C   UNL     1       5.823  -0.102   3.092  0.00  0.00    +0.124 C 
BRANCH  10  11
ATOM     11  O   UNL     1       5.342   1.243   3.041  0.00  0.00    -0.391 OA
ATOM     12  H   UNL     1       5.571   1.711   2.226  0.00  0.00    +0.210 HD
ENDBRANCH  10  11
BRANCH  10  13
ATOM     13  C   UNL     1       5.340  -0.864   1.857  0.00  0.00    +0.189 C 
BRANCH  13  14
ATOM     14  O   UNL     1       3.915  -0.971   1.890  0.00  0.00    -0.370 OA
BRANCH  14  15
ATOM     15  C   UNL     1       3.359  -1.670   0.774  0.00  0.00    +0.234 C 
BRANCH  15  18
ATOM     16  C   UNL     1      -0.303  -1.251   0.788  0.00  0.00    +0.041 A 
ATOM     17  C   UNL     1       0.993  -0.809   0.436  0.00  0.00    +0.047 A 
ATOM     18  C   UNL     1       1.859  -1.722   0.912  0.00  0.00    +0.130 A 
ATOM     19  O   UNL     1       1.160  -2.688   1.530  0.00  0.00    -0.465 OA
ATOM     20  C   UNL     1      -0.152  -2.407   1.458  0.00  0.00    +0.195 A 
ENDBRANCH  15  18
ENDBRANCH  14  15
ENDBRANCH  13  14
ENDBRANCH  10  13
ENDBRANCH   9  10
ENDBRANCH   1   9
BRANCH   1  21
ATOM     21  C   UNL     1       9.271   0.284   4.511  0.00  0.00    -0.003 C 
BRANCH  21  22
ATOM     22  C   UNL     1       9.674   0.292   5.963  0.00  0.00    +0.094 A 
ATOM     23  N   UNL     1      10.992   0.301   6.289  0.00  0.00    -0.312 N 
ATOM     24  H   UNL     1      11.657   0.302   5.582  0.00  0.00    +0.170 HD
ATOM     25  C   UNL     1      11.396   0.308   7.574  0.00  0.00    +0.260 A 
ATOM     26  O   UNL     1      12.583   0.316   7.851  0.00  0.00    -0.267 OA
ATOM     27  C   UNL     1      10.405   0.307   8.608  0.00  0.00    +0.075 A 
ATOM     28  C   UNL     1      10.613   0.314  10.063  0.00  0.00    -0.023 A 
ATOM     29  C   UNL     1       9.511   0.310  10.834  0.00  0.00    -0.004 A 
ATOM     30  S   UNL     1       8.150   0.300   9.691  0.00  0.00    -0.073 S 
ATOM     31  C   UNL     1       9.072   0.298   8.176  0.00  0.00    +0.116 A 
ATOM     32  N   UNL     1       8.748   0.296   6.885  0.00  0.00    -0.229 NA
ATOM     33  C   UNL     1       9.845   0.313  12.302  0.00  0.00    +0.043 C 
ATOM     34  C   UNL     1      11.328  -0.116  12.363  0.00  0.00    +0.010 C 
ATOM     35  C   UNL     1      11.840   0.329  10.979  0.00  0.00    +0.037 C 
ENDBRANCH  21  22
ENDBRANCH   1  21
TORSDOF 10
