REMARK  Name = ZINC00849475
REMARK  7 active torsions:
REMARK  status: ('A' for Active; 'I' for Inactive)
REMARK    1  A    between atoms: C_1  and  C_2
REMARK    2  A    between atoms: C_2  and  O_3
REMARK    3  A    between atoms: O_3  and  C_4
REMARK    4  A    between atoms: N_9  and  C_12
REMARK    5  A    between atoms: C_12  and  N_14
REMARK    6  A    between atoms: C_15  and  C_17
REMARK    7  A    between atoms: N_20  and  C_22
REMARK                            x       y       z     vdW  Elec       q    Type
REMARK                         _______ _______ _______ _____ _____    ______ ____
ROOT
ATOM      1  C   UNL     1       1.147   1.655   0.000  0.00  0.00    +0.140 C 
ATOM      2  S   UNL     1       1.125   3.363  -0.126  0.00  0.00    -0.018 S 
ENDROOT
BRANCH   1   8
ATOM      3  C   UNL     1       5.733  -0.841  -0.857  0.00  0.00    +0.403 C 
ATOM      4  O   UNL     1       6.771  -0.216  -0.772  0.00  0.00    -0.226 OA
ATOM      5  N   UNL     1       4.558  -0.186  -0.944  0.00  0.00    -0.264 N 
ATOM      6  C   UNL     1       4.518   1.283  -0.937  0.00  0.00    +0.130 C 
ATOM      7  C   UNL     1       3.586   1.743   0.190  0.00  0.00    +0.126 C 
ATOM      8  N   UNL     1       2.322   1.001   0.087  0.00  0.00    -0.309 N 
ATOM      9  C   UNL     1       2.361  -0.468   0.086  0.00  0.00    +0.126 C 
ATOM     10  C   UNL     1       3.294  -0.928  -1.047  0.00  0.00    +0.130 C 
BRANCH   3  11
ATOM     11  O   UNL     1       5.755  -2.187  -0.863  0.00  0.00    -0.451 OA
BRANCH  11  13
ATOM     12  C   UNL     1       6.882  -4.345  -0.790  0.00  0.00    +0.048 C 
ATOM     13  C   UNL     1       7.056  -2.825  -0.766  0.00  0.00    +0.230 C 
ENDBRANCH  11  13
ENDBRANCH   3  11
ENDBRANCH   1   8
BRANCH   1  14
ATOM     14  N   UNL     1      -0.011   0.966   0.012  0.00  0.00    -0.262 N 
ATOM     15  C   UNL     1      -1.187   1.625   0.027  0.00  0.00    +0.271 C 
ATOM     16  O   UNL     1      -1.203   2.840   0.035  0.00  0.00    -0.268 OA
ATOM     17  H   UNL     1       0.002  -0.004   0.006  0.00  0.00    +0.157 HD
BRANCH  15  18
ATOM     18  C   UNL     1      -2.455   0.870   0.034  0.00  0.00    +0.166 A 
ATOM     19  C   UNL     1      -3.761   1.418   0.050  0.00  0.00    +0.091 A 
ATOM     20  C   UNL     1      -4.600   0.355   0.051  0.00  0.00    +0.128 A 
ATOM     21  N   UNL     1      -3.831  -0.762   0.037  0.00  0.00    -0.272 N 
ATOM     22  N   UNL     1      -2.587  -0.442   0.022  0.00  0.00    -0.165 NA
ATOM     23  C   UNL     1      -4.344  -2.135   0.034  0.00  0.00    +0.172 C 
ATOM     24 CL   UNL     1      -4.194   3.099   0.064  0.00  0.00    -0.080 Cl
ENDBRANCH  15  18
ENDBRANCH   1  14
TORSDOF 5
