REMARK  Name = ZINC32833367
REMARK  7 active torsions:
REMARK  status: ('A' for Active; 'I' for Inactive)
REMARK    1  A    between atoms: C_1  and  C_2
REMARK    2  A    between atoms: C_2  and  C_4
REMARK    3  A    between atoms: C_2  and  N_11
REMARK    4  A    between atoms: C_12  and  C_14
REMARK    5  A    between atoms: C_26  and  C_28
REMARK    6  A    between atoms: C_33  and  O_34
REMARK    7  A    between atoms: O_34  and  C_35
REMARK                            x       y       z     vdW  Elec       q    Type
REMARK                         _______ _______ _______ _____ _____    ______ ____
ROOT
ATOM      1  C   UNL     1       4.154   0.543   0.263  0.00  0.00    +0.163 C 
ATOM      2  C   UNL     1       4.508   1.933   0.859  0.00  0.00    +0.037 C 
ATOM      3  C   UNL     1       5.831   1.631   1.587  0.00  0.00    +0.012 C 
ATOM      4  C   UNL     1       6.142   2.534   2.769  0.00  0.00    +0.005 C 
ATOM      5  C   UNL     1       7.422   1.998   3.428  0.00  0.00    +0.000 C 
ATOM      6  C   UNL     1       7.257   0.547   3.873  0.00  0.00    +0.002 C 
ATOM      7  C   UNL     1       6.808  -0.349   2.707  0.00  0.00    +0.023 C 
ATOM      8  C   UNL     1       5.515   0.226   2.167  0.00  0.00    +0.080 C 
ATOM      9  N   UNL     1       4.870  -0.474   1.069  0.00  0.00    -0.283 N 
ATOM     10  C   UNL     1       4.914  -1.800   0.828  0.00  0.00    +0.251 C 
ATOM     11  O   UNL     1       5.459  -2.544   1.621  0.00  0.00    -0.270 OA
ENDROOT
BRANCH  10  12
ATOM     12  C   UNL     1       4.301  -2.348  -0.396  0.00  0.00    +0.078 A 
ATOM     13  C   UNL     1       4.608  -1.799  -1.643  0.00  0.00    +0.017 A 
ATOM     14  C   UNL     1       4.035  -2.318  -2.783  0.00  0.00    +0.001 A 
ATOM     15  C   UNL     1       3.147  -3.378  -2.699  0.00  0.00    +0.004 A 
ATOM     16  C   UNL     1       2.830  -3.928  -1.473  0.00  0.00    +0.046 A 
ATOM     17  C   UNL     1       3.401  -3.420  -0.315  0.00  0.00    +0.132 A 
BRANCH  17  18
ATOM     18  O   UNL     1       3.091  -3.959   0.891  0.00  0.00    -0.494 OA
ATOM     19  C   UNL     1       2.167  -5.049   0.895  0.00  0.00    +0.277 C 
ENDBRANCH  17  18
ENDBRANCH  10  12
BRANCH   1  21
ATOM     20  N   UNL     1       1.847   0.861  -0.571  0.00  0.00    -0.307 N 
ATOM     21  C   UNL     1       2.667   0.312   0.347  0.00  0.00    +0.234 C 
ATOM     22  O   UNL     1       2.209  -0.369   1.240  0.00  0.00    -0.274 OA
ATOM     23  H   UNL     1       2.263   1.479  -1.381  0.00  0.00    +0.149 HD
BRANCH  20  25
ATOM     24  C   UNL     1      -0.208   1.603   0.528  0.00  0.00    +0.033 C 
ATOM     25  C   UNL     1       0.402   0.636  -0.489  0.00  0.00    +0.103 C 
BRANCH  25  26
ATOM     26  C   UNL     1      -0.220   0.872  -1.842  0.00  0.00    +0.008 A 
ATOM     27  C   UNL     1       0.370   1.750  -2.731  0.00  0.00    +0.008 A 
ATOM     28  C   UNL     1      -0.200   1.966  -3.971  0.00  0.00    +0.000 A 
ATOM     29  C   UNL     1      -1.361   1.303  -4.325  0.00  0.00    +0.003 A 
ATOM     30  C   UNL     1      -1.953   0.425  -3.438  0.00  0.00    +0.039 A 
ATOM     31  C   UNL     1      -1.380   0.204  -2.196  0.00  0.00    +0.128 A 
ATOM     32  F   UNL     1      -1.955  -0.659  -1.330  0.00  0.00    -0.205 F 
ENDBRANCH  25  26
ENDBRANCH  20  25
ENDBRANCH   1  21
TORSDOF 5
