REMARK  Name = ZINC51713752
REMARK  8 active torsions:
REMARK  status: ('A' for Active; 'I' for Inactive)
REMARK    1  A    between atoms: C_1  and  C_2
REMARK    2  A    between atoms: C_5  and  C_7
REMARK    3  A    between atoms: N_9  and  C_10
REMARK    4  A    between atoms: N_18  and  C_19
REMARK    5  A    between atoms: C_19  and  C_20
REMARK    6  A    between atoms: C_20  and  C_22
REMARK    7  A    between atoms: C_20  and  N_23
REMARK    8  A    between atoms: C_26  and  C_29
REMARK                            x       y       z     vdW  Elec       q    Type
REMARK                         _______ _______ _______ _____ _____    ______ ____
ROOT
ATOM      1  C   UNL     1       3.991  -6.484  -0.483  0.00  0.00    +0.076 C 
ATOM      2  C   UNL     1       5.296  -6.250  -1.248  0.00  0.00    +0.041 C 
ATOM      3  C   UNL     1       6.138  -5.207  -0.506  0.00  0.00    +0.111 C 
ATOM      4  N   UNL     1       6.324  -5.650   0.882  0.00  0.00    -0.286 N 
ATOM      5  C   UNL     1       5.138  -5.989   1.680  0.00  0.00    +0.111 C 
ATOM      6  C   UNL     1       4.307  -7.023   0.914  0.00  0.00    +0.041 C 
ATOM      7  C   UNL     1       7.559  -5.744   1.413  0.00  0.00    +0.302 C 
ATOM      8  O   UNL     1       7.696  -6.023   2.588  0.00  0.00    -0.253 OA
ATOM      9  N   UNL     1       8.643  -5.529   0.641  0.00  0.00    -0.301 N 
ATOM     10  H   UNL     1       8.534  -5.235  -0.277  0.00  0.00    +0.150 HD
ENDROOT
BRANCH   1  13
ATOM     11  C   UNL     1       2.360  -7.045  -2.204  0.00  0.00    +0.280 C 
ATOM     12  O   UNL     1       2.314  -5.867  -2.503  0.00  0.00    -0.267 OA
ATOM     13  N   UNL     1       3.168  -7.456  -1.207  0.00  0.00    -0.306 N 
ATOM     14  H   UNL     1       3.205  -8.396  -0.968  0.00  0.00    +0.149 HD
BRANCH  11  19
ATOM     15  C   UNL     1       0.304 -11.388  -3.615  0.00  0.00    +0.086 C 
ATOM     16  C   UNL     1       0.633  -9.918  -3.552  0.00  0.00    +0.103 A 
ATOM     17  C   UNL     1       0.107  -8.960  -4.345  0.00  0.00    +0.045 A 
ATOM     18  C   UNL     1       0.679  -7.739  -3.954  0.00  0.00    +0.055 A 
ATOM     19  C   UNL     1       1.537  -8.019  -2.929  0.00  0.00    +0.189 A 
ATOM     20  O   UNL     1       1.490  -9.347  -2.696  0.00  0.00    -0.455 OA
ENDBRANCH  11  19
ENDBRANCH   1  13
BRANCH   9  21
ATOM     21  C   UNL     1       9.985  -5.738   1.189  0.00  0.00    +0.090 C 
BRANCH  21  22
ATOM     22  C   UNL     1      11.030  -5.301   0.159  0.00  0.00    -0.054 C 
ATOM     23  C   UNL     1      12.427  -5.410   0.773  0.00  0.00    -0.012 C 
BRANCH  22  24
ATOM     24  N   UNL     1      10.775  -3.910  -0.236  0.00  0.00    +0.382 N 
ATOM     25  C   UNL     1      10.987  -3.028   0.918  0.00  0.00    -0.078 C 
ATOM     26  C   UNL     1      10.645  -1.587   0.534  0.00  0.00    -0.016 C 
ATOM     27  C   UNL     1      11.549  -1.144  -0.620  0.00  0.00    -0.018 C 
ATOM     28  C   UNL     1      11.375  -2.114  -1.792  0.00  0.00    -0.016 C 
ATOM     29  C   UNL     1      11.690  -3.536  -1.322  0.00  0.00    -0.078 C 
ATOM     30  C   UNL     1      11.159   0.268  -1.062  0.00  0.00    +0.007 C 
ATOM     31  H   UNL     1       9.822  -3.820  -0.555  0.00  0.00    -0.081 HD
ENDBRANCH  22  24
ENDBRANCH  21  22
ENDBRANCH   9  21
TORSDOF 5
