REMARK  Name = ZINC05302966
REMARK  5 active torsions:
REMARK  status: ('A' for Active; 'I' for Inactive)
REMARK    1  A    between atoms: C_1  and  C_2
REMARK    2  A    between atoms: N_4  and  C_5
REMARK    3  A    between atoms: C_5  and  C_25
REMARK    4  A    between atoms: N_11  and  C_16
REMARK    5  A    between atoms: C_16  and  C_17
REMARK                            x       y       z     vdW  Elec       q    Type
REMARK                         _______ _______ _______ _____ _____    ______ ____
ROOT
ATOM      1  C   UNL     1       0.020  -2.136  -1.177  0.00  0.00    +0.242 C 
ATOM      2  C   UNL     1       0.141  -2.662  -2.588  0.00  0.00    +0.094 C 
ATOM      3  C   UNL     1      -0.631  -2.569  -3.702  0.00  0.00    +0.253 C 
ATOM      4  O   UNL     1      -1.790  -1.879  -3.670  0.00  0.00    -0.270 OA
ATOM      5  N   UNL     1      -0.222  -3.181  -4.860  0.00  0.00    -0.236 N 
ATOM      6  C   UNL     1       0.933  -3.869  -4.894  0.00  0.00    +0.314 C 
ATOM      7  N   UNL     1       1.717  -3.978  -3.807  0.00  0.00    -0.237 N 
ATOM      8  C   UNL     1       1.347  -3.378  -2.619  0.00  0.00    +0.133 C 
ATOM      9  N   UNL     1       1.943  -3.345  -1.431  0.00  0.00    -0.162 NA
ATOM     10  C   UNL     1       1.280  -2.660  -0.514  0.00  0.00    +0.275 C 
ATOM     11  O   UNL     1       1.616  -2.485   0.642  0.00  0.00    -0.271 OA
ATOM     12  O   UNL     1       1.276  -4.404  -5.931  0.00  0.00    -0.252 OA
ATOM     13  H   UNL     1      -0.770  -3.118  -5.658  0.00  0.00    +0.159 HD
ENDROOT
BRANCH   1  17
ATOM     14  C   UNL     1      -0.018   1.503   0.010  0.00  0.00    +0.109 C 
ATOM     15  C   UNL     1       0.002  -0.004   0.002  0.00  0.00    +0.211 C 
ATOM     16  O   UNL     1       0.020  -0.616   1.049  0.00  0.00    -0.276 OA
ATOM     17  N   UNL     1       0.000  -0.672  -1.169  0.00  0.00    -0.291 N 
ATOM     18  H   UNL     1      -0.015  -0.182  -2.006  0.00  0.00    +0.150 HD
ENDBRANCH   1  17
BRANCH   1  19
ATOM     19  C   UNL     1      -1.227  -2.697  -0.491  0.00  0.00    +0.424 C 
ATOM     20  F   UNL     1      -2.369  -2.269  -1.177  0.00  0.00    -0.167 F 
ATOM     21  F   UNL     1      -1.175  -4.095  -0.498  0.00  0.00    -0.167 F 
ATOM     22  F   UNL     1      -1.278  -2.240   0.831  0.00  0.00    -0.167 F 
ENDBRANCH   1  19
BRANCH   7  23
ATOM     23  C   UNL     1       2.969  -4.735  -3.882  0.00  0.00    +0.151 C 
BRANCH  23  24
ATOM     24  C   UNL     1       4.090  -3.814  -4.289  0.00  0.00    -0.029 A 
ATOM     25  C   UNL     1       4.383  -3.631  -5.627  0.00  0.00    +0.008 A 
ATOM     26  C   UNL     1       5.410  -2.785  -6.001  0.00  0.00    +0.038 A 
ATOM     27  C   UNL     1       6.147  -2.122  -5.034  0.00  0.00    +0.123 A 
ATOM     28  C   UNL     1       5.853  -2.306  -3.694  0.00  0.00    +0.038 A 
ATOM     29  C   UNL     1       4.821  -3.148  -3.323  0.00  0.00    +0.008 A 
ATOM     30  F   UNL     1       7.152  -1.296  -5.399  0.00  0.00    -0.205 F 
ENDBRANCH  23  24
ENDBRANCH   7  23
TORSDOF 4
