REMARK  Name = ZINC60016138
REMARK  8 active torsions:
REMARK  status: ('A' for Active; 'I' for Inactive)
REMARK    1  A    between atoms: C_1  and  C_2
REMARK    2  A    between atoms: C_5  and  C_27
REMARK    3  A    between atoms: N_8  and  C_10
REMARK    4  A    between atoms: C_10  and  C_11
REMARK    5  A    between atoms: C_11  and  C_13
REMARK    6  A    between atoms: C_11  and  N_14
REMARK    7  A    between atoms: C_15  and  C_17
REMARK    8  A    between atoms: C_19  and  N_24
REMARK                            x       y       z     vdW  Elec       q    Type
REMARK                         _______ _______ _______ _____ _____    ______ ____
ROOT
ATOM      1  N   UNL     1       3.510  -2.495   0.951  0.00  0.00    -0.311 N 
ATOM      2  C   UNL     1       4.540  -1.852   0.365  0.00  0.00    +0.245 C 
ATOM      3  O   UNL     1       5.039  -0.884   0.906  0.00  0.00    -0.270 OA
ATOM      4  H   UNL     1       3.112  -3.266   0.519  0.00  0.00    +0.149 HD
ENDROOT
BRANCH   2   5
ATOM      5  C   UNL     1       5.062  -2.322  -0.935  0.00  0.00    +0.052 A 
ATOM      6  C   UNL     1       4.487  -3.429  -1.562  0.00  0.00    +0.046 A 
ATOM      7  C   UNL     1       4.979  -3.864  -2.776  0.00  0.00    +0.127 A 
ATOM      8  C   UNL     1       6.040  -3.205  -3.372  0.00  0.00    +0.034 A 
ATOM      9  C   UNL     1       6.615  -2.108  -2.757  0.00  0.00    +0.017 A 
ATOM     10  C   UNL     1       6.128  -1.659  -1.545  0.00  0.00    +0.026 A 
ATOM     11  I   UNL     1       6.994   0.009  -0.619  0.00  0.00    -0.043 I 
BRANCH   7  12
ATOM     12  N   UNL     1       4.370  -5.037  -3.441  0.00  0.00    +0.056 N 
ATOM     13  O   UNL     1       3.443  -5.614  -2.922  0.00  0.00    -0.126 OA
ATOM     14  O   UNL     1       4.800  -5.419  -4.505  0.00  0.00    -0.126 OA
ENDBRANCH   7  12
ENDBRANCH   2   5
BRANCH   1  15
ATOM     15  C   UNL     1       2.993  -2.028   2.239  0.00  0.00    +0.054 C 
ATOM     16  C   UNL     1       3.825  -2.634   3.372  0.00  0.00    +0.026 C 
BRANCH  15  17
ATOM     17  C   UNL     1       1.534  -2.461   2.390  0.00  0.00    -0.057 C 
BRANCH  17  23
ATOM     18  C   UNL     1      -0.019   1.526   0.010  0.00  0.00    +0.005 C 
ATOM     19  C   UNL     1       0.002  -0.004   0.002  0.00  0.00    -0.031 C 
ATOM     20  C   UNL     1      -1.434  -0.535   0.015  0.00  0.00    +0.003 C 
ATOM     21  C   UNL     1      -1.402  -2.064   0.086  0.00  0.00    -0.031 C 
ATOM     22  C   UNL     1      -0.613  -2.496   1.324  0.00  0.00    -0.076 C 
ATOM     23  N   UNL     1       0.758  -1.980   1.239  0.00  0.00    +0.381 N 
ATOM     24  C   UNL     1       0.740  -0.512   1.242  0.00  0.00    -0.076 C 
ATOM     25  C   UNL     1      -0.728  -2.620  -1.170  0.00  0.00    +0.005 C 
ATOM     26  H   UNL     1       1.188  -2.307   0.386  0.00  0.00    -0.082 HD
ENDBRANCH  17  23
ENDBRANCH  15  17
ENDBRANCH   1  15
TORSDOF 5
