REMARK  Name = ZINC04229777
REMARK  6 active torsions:
REMARK  status: ('A' for Active; 'I' for Inactive)
REMARK    1  A    between atoms: C_8  and  C_10
REMARK    2  A    between atoms: N_12  and  C_13
REMARK    3  A    between atoms: C_13  and  C_14
REMARK    4  A    between atoms: N_16  and  N_17
REMARK    5  A    between atoms: C_18  and  C_19
REMARK    6  A    between atoms: C_24  and  N_25
REMARK                            x       y       z     vdW  Elec       q    Type
REMARK                         _______ _______ _______ _____ _____    ______ ____
ROOT
ATOM      1  C   UNL     1       3.100  10.133   0.171  0.00  0.00    +0.249 C 
ATOM      2  O   UNL     1       1.889  10.206   0.198  0.00  0.00    -0.272 OA
ATOM      3  N   UNL     1       3.842  11.257   0.132  0.00  0.00    -0.206 N 
ATOM      4  H   UNL     1       4.810  11.199   0.110  0.00  0.00    +0.177 HD
ENDROOT
BRANCH   3   5
ATOM      5  N   UNL     1       3.216  12.510   0.123  0.00  0.00    -0.188 NA
ATOM      6  C   UNL     1       3.931  13.593   0.086  0.00  0.00    +0.140 C 
BRANCH   6   7
ATOM      7  C   UNL     1       3.271  14.912   0.077  0.00  0.00    +0.026 A 
ATOM      8  C   UNL     1       1.880  15.000  -0.015  0.00  0.00    +0.031 A 
ATOM      9  C   UNL     1       1.270  16.238  -0.023  0.00  0.00    +0.042 A 
ATOM     10  C   UNL     1       2.034  17.391   0.059  0.00  0.00    +0.022 A 
ATOM     11  C   UNL     1       3.412  17.309   0.150  0.00  0.00    +0.035 A 
ATOM     12  C   UNL     1       4.035  16.078   0.166  0.00  0.00    +0.135 A 
ATOM     13 CL   UNL     1      -0.459  16.352  -0.137  0.00  0.00    -0.084 Cl
BRANCH  12  14
ATOM     14  N   UNL     1       5.509  15.994   0.269  0.00  0.00    +0.057 N 
ATOM     15  O   UNL     1       6.165  17.003   0.457  0.00  0.00    -0.126 OA
ATOM     16  O   UNL     1       6.066  14.915   0.167  0.00  0.00    -0.126 OA
ENDBRANCH  12  14
ENDBRANCH   6   7
ENDBRANCH   3   5
BRANCH   1  17
ATOM     17  C   UNL     1       3.774   8.785   0.180  0.00  0.00    +0.202 C 
BRANCH  17  20
ATOM     18  C   UNL     1       3.129   6.436   0.239  0.00  0.00    +0.253 C 
ATOM     19  O   UNL     1       4.310   6.142   0.217  0.00  0.00    -0.270 OA
ATOM     20  N   UNL     1       2.757   7.731   0.224  0.00  0.00    -0.302 N 
ATOM     21  H   UNL     1       1.816   7.966   0.242  0.00  0.00    +0.150 HD
BRANCH  18  29
ATOM     22  C   UNL     1      -0.029   1.083   0.415  0.00  0.00    +0.001 A 
ATOM     23  C   UNL     1      -1.251   1.746   0.426  0.00  0.00    +0.001 A 
ATOM     24  C   UNL     1      -1.275   3.125   0.405  0.00  0.00    +0.016 A 
ATOM     25  C   UNL     1      -0.088   3.826   0.364  0.00  0.00    +0.021 A 
ATOM     26  C   UNL     1       1.169   3.177   0.347  0.00  0.00    +0.008 A 
ATOM     27  C   UNL     1       1.147   1.759   0.374  0.00  0.00    +0.010 A 
ATOM     28  C   UNL     1       2.288   4.031   0.304  0.00  0.00    +0.068 A 
ATOM     29  C   UNL     1       2.110   5.380   0.283  0.00  0.00    +0.093 A 
ATOM     30  S   UNL     1       0.334   5.549   0.322  0.00  0.00    -0.082 S 
ATOM     31 CL   UNL     1       3.890   3.364   0.278  0.00  0.00    -0.082 Cl
ENDBRANCH  18  29
ENDBRANCH  17  20
ENDBRANCH   1  17
TORSDOF 6
