REMARK  Name = ZINC36155126
REMARK  13 active torsions:
REMARK  status: ('A' for Active; 'I' for Inactive)
REMARK    1  A    between atoms: C_1  and  C_2
REMARK    2  A    between atoms: C_2  and  C_3
REMARK    3  A    between atoms: C_3  and  C_5
REMARK    4  A    between atoms: C_3  and  C_6
REMARK    5  A    between atoms: C_6  and  C_8
REMARK    6  A    between atoms: C_6  and  N_22
REMARK    7  A    between atoms: C_10  and  C_13
REMARK    8  A    between atoms: N_22  and  C_23
REMARK    9  A    between atoms: C_23  and  C_24
REMARK   10  A    between atoms: C_24  and  C_26
REMARK   11  A    between atoms: C_24  and  O_34
REMARK   12  A    between atoms: C_26  and  O_27
REMARK   13  A    between atoms: O_27  and  C_28
REMARK                            x       y       z     vdW  Elec       q    Type
REMARK                         _______ _______ _______ _____ _____    ______ ____
ROOT
ATOM      1  C   UNL     1       0.733  -2.074   1.345  0.00  0.00    +0.022 C 
ENDROOT
BRANCH   1   2
ATOM      2  C   UNL     1      -0.762  -2.259   1.409  0.00  0.00    +0.214 A 
ATOM      3  N   UNL     1      -1.432  -2.686   2.441  0.00  0.00    -0.193 NA
ATOM      4  C   UNL     1      -2.745  -2.730   2.152  0.00  0.00    +0.202 A 
ATOM      5  N   UNL     1      -2.915  -2.324   0.917  0.00  0.00    -0.056 NA
ATOM      6  O   UNL     1      -1.625  -2.006   0.417  0.00  0.00    -0.339 OA
BRANCH   4   7
ATOM      7  C   UNL     1      -3.821  -3.165   3.076  0.00  0.00    +0.026 A 
ATOM      8  C   UNL     1      -3.506  -3.570   4.372  0.00  0.00    +0.015 A 
ATOM      9  C   UNL     1      -4.507  -3.974   5.231  0.00  0.00    +0.050 A 
ATOM     10  C   UNL     1      -5.828  -3.980   4.809  0.00  0.00    +0.166 A 
ATOM     11  C   UNL     1      -6.148  -3.576   3.513  0.00  0.00    +0.167 A 
ATOM     12  C   UNL     1      -5.148  -3.164   2.652  0.00  0.00    +0.061 A 
ATOM     13  O   UNL     1      -7.500  -3.672   3.348  0.00  0.00    -0.453 OA
ATOM     14  C   UNL     1      -7.957  -4.525   4.414  0.00  0.00    +0.466 C 
ATOM     15  O   UNL     1      -6.980  -4.329   5.453  0.00  0.00    -0.453 OA
ENDBRANCH   4   7
ENDBRANCH   1   2
BRANCH   1  16
ATOM     16  N   UNL     1       1.239  -2.620   0.079  0.00  0.00    +0.389 N 
ATOM     17  H   UNL     1       0.745  -2.196  -0.692  0.00  0.00    -0.085 HD
ATOM     18  H   UNL     1       2.225  -2.419  -0.003  0.00  0.00    -0.085 HD
BRANCH  16  19
ATOM     19  C   UNL     1       1.032  -4.074   0.054  0.00  0.00    -0.046 C 
BRANCH  19  20
ATOM     20  C   UNL     1       1.673  -4.659  -1.205  0.00  0.00    +0.135 C 
BRANCH  20  21
ATOM     21  O   UNL     1       1.074  -4.073  -2.362  0.00  0.00    -0.390 OA
ATOM     22  H   UNL     1       0.121  -4.224  -2.431  0.00  0.00    +0.210 HD
ENDBRANCH  20  21
BRANCH  20  23
ATOM     23  C   UNL     1       1.457  -6.174  -1.231  0.00  0.00    +0.258 C 
BRANCH  23  24
ATOM     24  O   UNL     1       2.155  -6.736  -2.344  0.00  0.00    -0.489 OA
BRANCH  24  25
ATOM     25  C   UNL     1       2.065  -8.082  -2.513  0.00  0.00    +0.121 A 
ATOM     26  C   UNL     1       1.317  -8.844  -1.628  0.00  0.00    +0.045 A 
ATOM     27  C   UNL     1       1.227 -10.212  -1.802  0.00  0.00    +0.004 A 
ATOM     28  C   UNL     1       1.883 -10.820  -2.856  0.00  0.00    +0.000 A 
ATOM     29  C   UNL     1       2.630 -10.062  -3.739  0.00  0.00    +0.004 A 
ATOM     30  C   UNL     1       2.718  -8.694  -3.573  0.00  0.00    +0.045 A 
ENDBRANCH  24  25
ENDBRANCH  23  24
ENDBRANCH  20  23
ENDBRANCH  19  20
ENDBRANCH  16  19
ENDBRANCH   1  16
BRANCH   1  31
ATOM     31  C   UNL     1       1.066  -0.583   1.427  0.00  0.00    -0.020 C 
ATOM     32  C   UNL     1       0.442   0.010   2.693  0.00  0.00    +0.006 C 
BRANCH  31  34
ATOM     33  C   UNL     1       2.922   1.090   1.431  0.00  0.00    +0.004 C 
ATOM     34  C   UNL     1       2.585  -0.402   1.475  0.00  0.00    -0.001 C 
ENDBRANCH  31  34
ENDBRANCH   1  31
TORSDOF 11
