REMARK  Name = ZINC01506949
REMARK  5 active torsions:
REMARK  status: ('A' for Active; 'I' for Inactive)
REMARK    1  A    between atoms: C_1  and  C_2
REMARK    2  A    between atoms: C_2  and  O_3
REMARK    3  A    between atoms: O_3  and  C_4
REMARK    4  A    between atoms: C_4  and  C_6
REMARK    5  A    between atoms: C_16  and  C_18
REMARK                            x       y       z     vdW  Elec       q    Type
REMARK                         _______ _______ _______ _____ _____    ______ ____
ROOT
ATOM      1  C   UNL     1      -1.188   1.759   1.662  0.00  0.00    +0.101 C 
ATOM      2  C   UNL     1      -0.837   2.986   0.815  0.00  0.00    +0.033 C 
ATOM      3  C   UNL     1       0.019   2.550  -0.376  0.00  0.00    +0.107 C 
ATOM      4  N   UNL     1      -0.723   1.572  -1.182  0.00  0.00    -0.315 N 
ATOM      5  C   UNL     1      -1.030   0.365  -0.404  0.00  0.00    +0.107 C 
ATOM      6  C   UNL     1      -1.918   0.737   0.786  0.00  0.00    +0.033 C 
ATOM      7  C   UNL     1      -0.029   1.254  -2.338  0.00  0.00    +0.127 A 
ATOM      8  C   UNL     1      -0.579   1.532  -3.595  0.00  0.00    -0.003 A 
ATOM      9  C   UNL     1       0.144   1.201  -4.718  0.00  0.00    +0.047 A 
ATOM     10  N   UNL     1       1.333   0.628  -4.577  0.00  0.00    -0.231 NA
ATOM     11  C   UNL     1       1.831   0.375  -3.376  0.00  0.00    +0.180 A 
ATOM     12  N   UNL     1       1.169   0.686  -2.270  0.00  0.00    -0.211 NA
ATOM     13  C   UNL     1      -0.379   1.474  -6.104  0.00  0.00    +0.037 C 
ATOM     14  C   UNL     1      -1.885   1.734  -6.049  0.00  0.00    -0.076 C 
ATOM     15  C   UNL     1      -1.935   2.176  -3.678  0.00  0.00    -0.041 C 
ATOM     16  N   UNL     1      -2.151   2.751  -5.015  0.00  0.00    +0.382 N 
ATOM     17  H   UNL     1      -3.123   3.071  -5.094  0.00  0.00    -0.085 HD
ATOM     18  H   UNL     1      -1.517   3.547  -5.149  0.00  0.00    -0.085 HD
ENDROOT
BRANCH  11  19
ATOM     19  C   UNL     1       3.165  -0.266  -3.265  0.00  0.00    +0.108 A 
ATOM     20  C   UNL     1       3.869  -0.597  -4.420  0.00  0.00    +0.031 A 
ATOM     21  C   UNL     1       5.115  -1.190  -4.301  0.00  0.00    +0.004 A 
ATOM     22  C   UNL     1       5.609  -1.442  -3.030  0.00  0.00    +0.020 A 
ATOM     23  C   UNL     1       4.853  -1.091  -1.926  0.00  0.00    +0.111 A 
ATOM     24  N   UNL     1       3.673  -0.523  -2.068  0.00  0.00    -0.252 NA
ENDBRANCH  11  19
BRANCH   1  25
ATOM     25  C   UNL     1      -2.081   2.173   2.803  0.00  0.00    +0.310 C 
ATOM     26  O   UNL     1      -3.188   1.699   2.907  0.00  0.00    -0.251 OA
BRANCH  25  27
ATOM     27  O   UNL     1      -1.647   3.068   3.705  0.00  0.00    -0.465 OA
BRANCH  27  29
ATOM     28  C   UNL     1      -1.895   4.444   5.698  0.00  0.00    +0.048 C 
ATOM     29  C   UNL     1      -2.561   3.419   4.777  0.00  0.00    +0.229 C 
ENDBRANCH  27  29
ENDBRANCH  25  27
ENDBRANCH   1  25
TORSDOF 4
