REMARK  Name = ZINC09428630
REMARK  7 active torsions:
REMARK  status: ('A' for Active; 'I' for Inactive)
REMARK    1  A    between atoms: C_1  and  C_2
REMARK    2  A    between atoms: C_5  and  S_8
REMARK    3  A    between atoms: S_8  and  N_11
REMARK    4  A    between atoms: N_11  and  C_12
REMARK    5  A    between atoms: C_24  and  S_26
REMARK    6  A    between atoms: S_26  and  C_27
REMARK    7  A    between atoms: N_31  and  N_32
REMARK                            x       y       z     vdW  Elec       q    Type
REMARK                         _______ _______ _______ _____ _____    ______ ____
ROOT
ATOM      1  C   UNL     1       3.369  -4.633   1.349  0.00  0.00    +0.125 C 
ATOM      2  C   UNL     1       4.434  -3.569   1.249  0.00  0.00    -0.019 A 
ATOM      3  C   UNL     1       4.424  -2.220   1.066  0.00  0.00    +0.006 A 
ATOM      4  C   UNL     1       5.623  -1.505   1.019  0.00  0.00    +0.001 A 
ATOM      5  C   UNL     1       6.840  -2.111   1.151  0.00  0.00    +0.008 A 
ATOM      6  C   UNL     1       6.886  -3.502   1.341  0.00  0.00    -0.017 A 
ATOM      7  C   UNL     1       5.666  -4.200   1.385  0.00  0.00    -0.009 A 
ATOM      8  C   UNL     1       5.594  -5.577   1.567  0.00  0.00    -0.024 A 
ATOM      9  C   UNL     1       6.761  -6.264   1.708  0.00  0.00    +0.005 A 
ATOM     10  C   UNL     1       7.985  -5.592   1.668  0.00  0.00    +0.001 A 
ATOM     11  C   UNL     1       8.071  -4.242   1.489  0.00  0.00    +0.008 A 
ATOM     12  C   UNL     1       4.132  -5.959   1.560  0.00  0.00    +0.108 C 
ENDROOT
BRANCH   1  13
ATOM     13  N   UNL     1       2.588  -4.689   0.111  0.00  0.00    -0.181 NA
ATOM     14  H   UNL     1       2.924  -5.185  -0.652  0.00  0.00    +0.149 HD
BRANCH  13  15
ATOM     15  S   UNL     1       1.133  -3.904   0.013  0.00  0.00    +0.059 S 
ATOM     16  O   UNL     1       0.396  -4.270   1.172  0.00  0.00    -0.153 OA
ATOM     17  O   UNL     1       0.642  -4.121  -1.302  0.00  0.00    -0.153 OA
BRANCH  15  22
ATOM     18  C   UNL     1       2.255   2.006   0.481  0.00  0.00    +0.044 C 
ATOM     19  C   UNL     1       1.975   0.530   0.365  0.00  0.00    -0.050 A 
ATOM     20  C   UNL     1       1.965  -0.075  -0.878  0.00  0.00    +0.005 A 
ATOM     21  C   UNL     1       1.709  -1.429  -0.985  0.00  0.00    +0.029 A 
ATOM     22  C   UNL     1       1.462  -2.178   0.150  0.00  0.00    +0.105 A 
ATOM     23  C   UNL     1       1.472  -1.573   1.393  0.00  0.00    +0.029 A 
ATOM     24  C   UNL     1       1.733  -0.220   1.500  0.00  0.00    +0.005 A 
ENDBRANCH  15  22
ENDBRANCH  13  15
ENDBRANCH   1  13
BRANCH  12  25
ATOM     25  S   UNL     1       3.788  -7.107   0.198  0.00  0.00    -0.074 S 
BRANCH  25  26
ATOM     26  C   UNL     1       4.608  -8.592   0.674  0.00  0.00    +0.212 A 
ATOM     27  N   UNL     1       5.296  -8.786   1.776  0.00  0.00    -0.121 NA
ATOM     28  N   UNL     1       5.756  -9.985   1.799  0.00  0.00    -0.135 NA
ATOM     29  C   UNL     1       5.394 -10.626   0.724  0.00  0.00    +0.249 A 
ATOM     30  N   UNL     1       4.644  -9.764  -0.031  0.00  0.00    -0.195 N 
BRANCH  30  31
ATOM     31  N   UNL     1       4.041 -10.027  -1.269  0.00  0.00    -0.173 NA
ATOM     32  C   UNL     1       4.724 -10.556  -2.213  0.00  0.00    +0.040 C 
ATOM     33  C   UNL     1       6.209 -10.851  -2.191  0.00  0.00    +0.053 C 
ATOM     34  C   UNL     1       6.561 -11.477  -3.556  0.00  0.00    +0.006 C 
ATOM     35  C   UNL     1       5.432 -10.977  -4.493  0.00  0.00    +0.006 C 
ATOM     36  C   UNL     1       4.193 -11.011  -3.561  0.00  0.00    +0.053 C 
ENDBRANCH  30  31
ENDBRANCH  25  26
ENDBRANCH  12  25
TORSDOF 6
