REMARK  Name = ZINC03262232
REMARK  7 active torsions:
REMARK  status: ('A' for Active; 'I' for Inactive)
REMARK    1  A    between atoms: C_4  and  C_7
REMARK    2  A    between atoms: C_10  and  C_29
REMARK    3  A    between atoms: C_13  and  C_15
REMARK    4  A    between atoms: C_15  and  O_16
REMARK    5  A    between atoms: O_16  and  C_17
REMARK    6  A    between atoms: C_17  and  C_19
REMARK    7  A    between atoms: C_19  and  N_20
REMARK                            x       y       z     vdW  Elec       q    Type
REMARK                         _______ _______ _______ _____ _____    ______ ____
ROOT
ATOM      1  C   UNL     1       3.711  -0.707  -0.038  0.00  0.00    +0.152 C 
ATOM      2  C   UNL     1       4.001  -1.235  -1.425  0.00  0.00    +0.027 C 
ATOM      3  C   UNL     1       4.077  -2.561  -1.338  0.00  0.00    +0.050 C 
ATOM      4  N   UNL     1       3.869  -2.998  -0.036  0.00  0.00    -0.261 N 
ATOM      5  N   UNL     1       3.640  -1.905   0.815  0.00  0.00    -0.208 N 
ATOM      6  C   UNL     1       3.403  -1.944   2.141  0.00  0.00    +0.270 C 
ATOM      7  O   UNL     1       3.220  -0.913   2.754  0.00  0.00    -0.270 OA
ATOM      8  H   UNL     1       3.882  -3.926   0.245  0.00  0.00    +0.170 HD
ENDROOT
BRANCH   3   9
ATOM      9  C   UNL     1       4.347  -3.457  -2.485  0.00  0.00    -0.002 A 
ATOM     10  C   UNL     1       4.548  -2.911  -3.764  0.00  0.00    +0.010 A 
ATOM     11  C   UNL     1       4.798  -3.712  -4.832  0.00  0.00    +0.009 A 
ATOM     12  C   UNL     1       4.859  -5.107  -4.665  0.00  0.00    -0.018 A 
ATOM     13  C   UNL     1       5.118  -5.957  -5.754  0.00  0.00    +0.008 A 
ATOM     14  C   UNL     1       5.171  -7.303  -5.562  0.00  0.00    +0.001 A 
ATOM     15  C   UNL     1       4.974  -7.856  -4.298  0.00  0.00    +0.001 A 
ATOM     16  C   UNL     1       4.721  -7.066  -3.220  0.00  0.00    +0.008 A 
ATOM     17  C   UNL     1       4.658  -5.670  -3.379  0.00  0.00    -0.017 A 
ATOM     18  C   UNL     1       4.406  -4.825  -2.288  0.00  0.00    +0.018 A 
ENDBRANCH   3   9
BRANCH   1  22
ATOM     19  C   UNL     1      -0.017   1.378   0.010  0.00  0.00    +0.000 A 
ATOM     20  C   UNL     1       1.171   2.086   0.002  0.00  0.00    +0.000 A 
ATOM     21  C   UNL     1       2.377   1.411  -0.013  0.00  0.00    +0.006 A 
ATOM     22  C   UNL     1       2.396   0.029  -0.020  0.00  0.00    -0.021 A 
ATOM     23  C   UNL     1       1.208  -0.679  -0.012  0.00  0.00    +0.006 A 
ATOM     24  C   UNL     1       0.002  -0.004   0.002  0.00  0.00    +0.000 A 
ENDBRANCH   1  22
BRANCH   6  25
ATOM     25  C   UNL     1       3.364  -3.267   2.861  0.00  0.00    +0.329 C 
BRANCH  25  26
ATOM     26  O   UNL     1       3.098  -3.046   4.248  0.00  0.00    -0.454 OA
BRANCH  26  27
ATOM     27  C   UNL     1       3.030  -4.131   5.036  0.00  0.00    +0.329 C 
ATOM     28  O   UNL     1       3.192  -5.231   4.563  0.00  0.00    -0.249 OA
BRANCH  27  29
ATOM     29  C   UNL     1       2.753  -3.977   6.509  0.00  0.00    +0.266 C 
BRANCH  29  30
ATOM     30  N   UNL     1       2.730  -5.297   7.142  0.00  0.00    -0.233 N 
ATOM     31  C   UNL     1       1.637  -6.116   7.298  0.00  0.00    +0.090 A 
ATOM     32  C   UNL     1       0.294  -6.011   6.952  0.00  0.00    +0.029 A 
ATOM     33  C   UNL     1      -0.568  -7.028   7.255  0.00  0.00    +0.002 A 
ATOM     34  C   UNL     1      -0.114  -8.168   7.906  0.00  0.00    +0.002 A 
ATOM     35  C   UNL     1       1.198  -8.295   8.256  0.00  0.00    +0.032 A 
ATOM     36  C   UNL     1       2.102  -7.267   7.957  0.00  0.00    +0.113 A 
ATOM     37  N   UNL     1       3.424  -7.109   8.171  0.00  0.00    -0.129 NA
ATOM     38  N   UNL     1       3.820  -5.978   7.705  0.00  0.00    -0.064 NA
ENDBRANCH  29  30
ENDBRANCH  27  29
ENDBRANCH  26  27
ENDBRANCH  25  26
ENDBRANCH   6  25
TORSDOF 7
