REMARK  Name = ZINC35932617
REMARK  11 active torsions:
REMARK  status: ('A' for Active; 'I' for Inactive)
REMARK    1  A    between atoms: C_1  and  N_2
REMARK    2  A    between atoms: N_2  and  C_3
REMARK    3  A    between atoms: N_2  and  C_4
REMARK    4  A    between atoms: C_4  and  C_5
REMARK    5  A    between atoms: C_5  and  N_6
REMARK    6  A    between atoms: N_6  and  C_7
REMARK    7  A    between atoms: C_7  and  C_8
REMARK    8  A    between atoms: N_16  and  C_17
REMARK    9  A    between atoms: C_18  and  C_30
REMARK   10  A    between atoms: N_20  and  C_23
REMARK   11  A    between atoms: C_21  and  N_22
REMARK                            x       y       z     vdW  Elec       q    Type
REMARK                         _______ _______ _______ _____ _____    ______ ____
ROOT
ATOM      1  C   UNL     1      -2.919  -3.632   3.858  0.00  0.00    +0.103 A 
ATOM      2  C   UNL     1      -3.774  -2.591   3.440  0.00  0.00    +0.116 A 
ATOM      3  N   UNL     1      -4.666  -2.386   4.388  0.00  0.00    -0.163 NA
ATOM      4  N   UNL     1      -4.414  -3.283   5.434  0.00  0.00    -0.215 N 
ATOM      5  C   UNL     1      -3.338  -4.045   5.087  0.00  0.00    +0.142 A 
ENDROOT
BRANCH   4   6
ATOM      6  C   UNL     1      -5.143  -3.383   6.626  0.00  0.00    +0.086 A 
ATOM      7  C   UNL     1      -6.511  -3.616   6.588  0.00  0.00    +0.029 A 
ATOM      8  C   UNL     1      -7.227  -3.715   7.765  0.00  0.00    +0.002 A 
ATOM      9  C   UNL     1      -6.583  -3.581   8.981  0.00  0.00    +0.002 A 
ATOM     10  C   UNL     1      -5.221  -3.348   9.024  0.00  0.00    +0.022 A 
ATOM     11  C   UNL     1      -4.497  -3.254   7.850  0.00  0.00    +0.066 A 
ATOM     12 CL   UNL     1      -2.786  -2.969   7.904  0.00  0.00    -0.081 Cl
ENDBRANCH   4   6
BRANCH   2  13
ATOM     13  C   UNL     1      -3.683  -1.853   2.157  0.00  0.00    +0.004 A 
ATOM     14  C   UNL     1      -2.439  -1.591   1.587  0.00  0.00    +0.010 A 
ATOM     15  C   UNL     1      -2.361  -0.904   0.393  0.00  0.00    +0.001 A 
ATOM     16  C   UNL     1      -3.514  -0.475  -0.238  0.00  0.00    +0.000 A 
ATOM     17  C   UNL     1      -4.752  -0.732   0.323  0.00  0.00    +0.001 A 
ATOM     18  C   UNL     1      -4.843  -1.423   1.514  0.00  0.00    +0.010 A 
ENDBRANCH   2  13
BRANCH   1  22
ATOM     19  N   UNL     1       0.474  -4.354   2.807  0.00  0.00    -0.283 N 
ATOM     20  C   UNL     1      -0.571  -3.788   3.442  0.00  0.00    +0.307 C 
ATOM     21  O   UNL     1      -0.379  -2.944   4.297  0.00  0.00    -0.252 OA
ATOM     22  N   UNL     1      -1.830  -4.156   3.130  0.00  0.00    -0.265 N 
ATOM     23  H   UNL     1      -1.986  -4.782   2.406  0.00  0.00    +0.157 HD
BRANCH  19  24
ATOM     24  C   UNL     1       0.242  -5.370   1.777  0.00  0.00    +0.091 C 
BRANCH  24  25
ATOM     25  C   UNL     1       0.214  -6.756   2.426  0.00  0.00    -0.060 C 
BRANCH  25  27
ATOM     26  C   UNL     1       0.074  -9.111   1.995  0.00  0.00    -0.097 C 
ATOM     27  N   UNL     1      -0.018  -7.775   1.393  0.00  0.00    +0.377 N 
ATOM     28  C   UNL     1      -1.356  -7.590   0.815  0.00  0.00    -0.097 C 
ATOM     29  H   UNL     1       0.677  -7.684   0.668  0.00  0.00    -0.083 HD
ENDBRANCH  25  27
ENDBRANCH  24  25
ENDBRANCH  19  24
BRANCH  19  30
ATOM     30  C   UNL     1       1.841  -3.953   3.146  0.00  0.00    +0.144 C 
BRANCH  30  31
ATOM     31  C   UNL     1       2.258  -2.799   2.270  0.00  0.00    -0.030 A 
ATOM     32  C   UNL     1       2.871  -3.040   1.055  0.00  0.00    +0.005 A 
ATOM     33  C   UNL     1       3.253  -1.982   0.252  0.00  0.00    +0.000 A 
ATOM     34  C   UNL     1       3.022  -0.683   0.664  0.00  0.00    +0.000 A 
ATOM     35  C   UNL     1       2.409  -0.442   1.879  0.00  0.00    +0.000 A 
ATOM     36  C   UNL     1       2.023  -1.500   2.680  0.00  0.00    +0.005 A 
ENDBRANCH  30  31
ENDBRANCH  19  30
ENDBRANCH   1  22
BRANCH   5  37
ATOM     37  N   UNL     1      -2.767  -5.062   5.853  0.00  0.00    -0.342 N 
ATOM     38  H   UNL     1      -3.218  -5.380   6.651  0.00  0.00    +0.144 HD
ATOM     39  H   UNL     1      -1.919  -5.451   5.588  0.00  0.00    +0.144 HD
ENDBRANCH   5  37
TORSDOF 9
