REMARK  Name = ZINC09124119
REMARK  7 active torsions:
REMARK  status: ('A' for Active; 'I' for Inactive)
REMARK    1  A    between atoms: C_1  and  C_2
REMARK    2  A    between atoms: C_4  and  C_34
REMARK    3  A    between atoms: C_5  and  O_33
REMARK    4  A    between atoms: C_6  and  C_8
REMARK    5  A    between atoms: N_16  and  C_26
REMARK    6  A    between atoms: C_17  and  C_19
REMARK    7  A    between atoms: C_26  and  C_27
REMARK                            x       y       z     vdW  Elec       q    Type
REMARK                         _______ _______ _______ _____ _____    ______ ____
ROOT
ATOM      1  C   UNL     1       0.221  -3.049   2.651  0.00  0.00    +0.102 A 
ATOM      2  C   UNL     1       0.222  -2.371   3.875  0.00  0.00    +0.035 A 
ATOM      3  C   UNL     1       0.172  -3.350   4.848  0.00  0.00    +0.126 A 
ATOM      4  N   UNL     1       0.143  -4.544   4.184  0.00  0.00    -0.272 N 
ATOM      5  H   UNL     1       0.107  -5.416   4.608  0.00  0.00    +0.189 HD
ATOM      6  N   UNL     1       0.168  -4.339   2.916  0.00  0.00    -0.173 NA
ATOM      7  C   UNL     1       0.170  -2.701   6.164  0.00  0.00    +0.266 C 
ATOM      8  O   UNL     1       0.132  -3.289   7.228  0.00  0.00    -0.268 OA
ATOM      9  N   UNL     1       0.218  -1.364   6.027  0.00  0.00    -0.281 N 
ATOM     10  C   UNL     1       0.253  -1.049   4.593  0.00  0.00    +0.142 C 
ENDROOT
BRANCH   1  16
ATOM     11  C   UNL     1      -1.421   0.386  -0.579  0.00  0.00    +0.044 C 
ATOM     12  C   UNL     1      -0.522  -0.779  -0.253  0.00  0.00    -0.049 A 
ATOM     13  C   UNL     1       0.344  -1.271  -1.214  0.00  0.00    +0.010 A 
ATOM     14  C   UNL     1       1.172  -2.339  -0.924  0.00  0.00    -0.008 A 
ATOM     15  C   UNL     1       1.138  -2.923   0.332  0.00  0.00    +0.129 A 
ATOM     16  C   UNL     1       0.264  -2.429   1.304  0.00  0.00    +0.044 A 
ATOM     17  C   UNL     1      -0.562  -1.348   1.004  0.00  0.00    +0.017 A 
ATOM     18  C   UNL     1       2.113  -2.869  -1.976  0.00  0.00    +0.047 C 
BRANCH  15  19
ATOM     19  O   UNL     1       1.951  -3.974   0.617  0.00  0.00    -0.506 OA
ATOM     20  H   UNL     1       2.812  -3.719   0.977  0.00  0.00    +0.292 HD
ENDBRANCH  15  19
ENDBRANCH   1  16
BRANCH  10  21
ATOM     21  C   UNL     1       1.520  -0.306   4.256  0.00  0.00    -0.022 A 
ATOM     22  C   UNL     1       2.740  -0.785   4.698  0.00  0.00    +0.007 A 
ATOM     23  C   UNL     1       3.902  -0.104   4.389  0.00  0.00    +0.015 A 
ATOM     24  C   UNL     1       3.845   1.057   3.639  0.00  0.00    +0.018 A 
ATOM     25  C   UNL     1       2.625   1.535   3.197  0.00  0.00    +0.015 A 
ATOM     26  C   UNL     1       1.464   0.851   3.502  0.00  0.00    +0.007 A 
ATOM     27 BR   UNL     1       5.436   1.989   3.216  0.00  0.00    -0.050 Br
ENDBRANCH  10  21
BRANCH   9  28
ATOM     28  C   UNL     1       0.231  -0.389   7.120  0.00  0.00    +0.145 C 
BRANCH  28  29
ATOM     29  C   UNL     1       1.656  -0.102   7.519  0.00  0.00    -0.012 A 
ATOM     30  C   UNL     1       2.278  -0.863   8.497  0.00  0.00    +0.008 A 
ATOM     31  C   UNL     1       3.590  -0.563   8.832  0.00  0.00    +0.020 A 
ATOM     32  C   UNL     1       4.229   0.478   8.185  0.00  0.00    +0.111 A 
ATOM     33  N   UNL     1       3.605   1.182   7.260  0.00  0.00    -0.263 NA
ATOM     34  C   UNL     1       2.360   0.920   6.912  0.00  0.00    +0.115 A 
ENDBRANCH  28  29
ENDBRANCH   9  28
TORSDOF 5
