REMARK  Name = ZINC21188389
REMARK  8 active torsions:
REMARK  status: ('A' for Active; 'I' for Inactive)
REMARK    1  A    between atoms: C_1  and  C_2
REMARK    2  A    between atoms: C_5  and  C_7
REMARK    3  A    between atoms: C_7  and  C_9
REMARK    4  A    between atoms: C_7  and  N_10
REMARK    5  A    between atoms: N_10  and  S_11
REMARK    6  A    between atoms: S_11  and  C_14
REMARK    7  A    between atoms: C_15  and  C_20
REMARK    8  A    between atoms: C_18  and  C_19
REMARK                            x       y       z     vdW  Elec       q    Type
REMARK                         _______ _______ _______ _____ _____    ______ ____
ROOT
ATOM      1  N   UNL     1      -4.670   1.673   2.605  0.00  0.00    -0.180 NA
ATOM      2  H   UNL     1      -4.656   1.391   1.541  0.00  0.00    +0.149 HD
ENDROOT
BRANCH   1   3
ATOM      3  S   UNL     1      -5.962   1.230   3.542  0.00  0.00    +0.064 S 
ATOM      4  O   UNL     1      -6.751   0.348   2.756  0.00  0.00    -0.153 OA
ATOM      5  O   UNL     1      -5.436   0.858   4.808  0.00  0.00    -0.153 OA
BRANCH   3   6
ATOM      6  C   UNL     1      -6.934   2.676   3.805  0.00  0.00    +0.169 A 
ATOM      7  C   UNL     1      -8.002   3.162   3.017  0.00  0.00    +0.107 A 
ATOM      8  N   UNL     1      -8.417   4.253   3.593  0.00  0.00    -0.081 NA
ATOM      9  O   UNL     1      -7.779   4.500   4.590  0.00  0.00    -0.358 OA
ATOM     10  C   UNL     1      -6.834   3.576   4.813  0.00  0.00    +0.161 A 
ATOM     11  C   UNL     1      -5.854   3.545   5.956  0.00  0.00    +0.091 C 
ATOM     12  C   UNL     1      -8.552   2.541   1.759  0.00  0.00    +0.071 C 
ENDBRANCH   3   6
ENDBRANCH   1   3
BRANCH   1  13
ATOM     13  C   UNL     1      -3.672   2.609   3.128  0.00  0.00    +0.139 C 
ATOM     14  C   UNL     1      -4.019   4.029   2.677  0.00  0.00    +0.034 C 
BRANCH  13  19
ATOM     15  C   UNL     1      -0.013   1.086   0.008  0.00  0.00    +0.086 C 
ATOM     16  C   UNL     1      -0.718   1.572   1.248  0.00  0.00    +0.102 A 
ATOM     17  C   UNL     1      -0.136   1.835   2.432  0.00  0.00    +0.045 A 
ATOM     18  C   UNL     1      -1.162   2.263   3.306  0.00  0.00    +0.046 A 
ATOM     19  C   UNL     1      -2.309   2.234   2.604  0.00  0.00    +0.123 A 
ATOM     20  O   UNL     1      -2.033   1.821   1.357  0.00  0.00    -0.463 OA
ENDBRANCH  13  19
ENDBRANCH   1  13
TORSDOF 4
