REMARK  Name = ZINC13500634
REMARK  11 active torsions:
REMARK  status: ('A' for Active; 'I' for Inactive)
REMARK    1  A    between atoms: C_1  and  C_2
REMARK    2  A    between atoms: C_9  and  C_14
REMARK    3  A    between atoms: C_14  and  N_70
REMARK    4  A    between atoms: C_15  and  N_70
REMARK    5  A    between atoms: C_20  and  C_22
REMARK    6  A    between atoms: C_20  and  C_34
REMARK    7  A    between atoms: C_20  and  N_70
REMARK    8  A    between atoms: N_26  and  C_27
REMARK    9  A    between atoms: C_27  and  C_28
REMARK   10  A    between atoms: C_34  and  C_35
REMARK   11  A    between atoms: C_34  and  C_36
REMARK                            x       y       z     vdW  Elec       q    Type
REMARK                         _______ _______ _______ _____ _____    ______ ____
ROOT
ATOM      1  N   UNL     1       2.902   4.430   3.089  0.00  0.00    +0.391 N 
ATOM      2  H   UNL     1       2.588   3.607   3.617  0.00  0.00    -0.080 HD
ENDROOT
BRANCH   1   3
ATOM      3  C   UNL     1       2.173   5.620   3.575  0.00  0.00    -0.067 C 
ATOM      4  C   UNL     1       0.664   5.303   3.640  0.00  0.00    -0.015 C 
ATOM      5  C   UNL     1      -0.020   6.629   3.223  0.00  0.00    -0.002 C 
ATOM      6  C   UNL     1       0.917   7.163   2.111  0.00  0.00    -0.002 C 
ATOM      7  C   UNL     1       2.333   6.802   2.603  0.00  0.00    -0.015 C 
ENDBRANCH   1   3
BRANCH   1   8
ATOM      8  C   UNL     1       4.355   4.608   3.296  0.00  0.00    -0.036 C 
BRANCH   8  17
ATOM      9  C   UNL     1       6.385   0.537   9.205  0.00  0.00    +0.044 C 
ATOM     10  C   UNL     1       5.966   1.849   8.595  0.00  0.00    -0.050 A 
ATOM     11  C   UNL     1       5.847   2.975   9.399  0.00  0.00    +0.005 A 
ATOM     12  C   UNL     1       5.465   4.185   8.862  0.00  0.00    +0.026 A 
ATOM     13  C   UNL     1       5.194   4.282   7.501  0.00  0.00    +0.049 A 
ATOM     14  C   UNL     1       5.316   3.139   6.689  0.00  0.00    -0.001 A 
ATOM     15  C   UNL     1       5.705   1.921   7.256  0.00  0.00    +0.013 A 
ATOM     16  C   UNL     1       5.030   3.251   5.258  0.00  0.00    +0.017 A 
ATOM     17  C   UNL     1       4.656   4.458   4.765  0.00  0.00    +0.001 A 
ATOM     18  C   UNL     1       4.555   5.575   5.621  0.00  0.00    +0.251 A 
ATOM     19  O   UNL     1       4.222   6.652   5.156  0.00  0.00    -0.268 OA
ATOM     20  N   UNL     1       4.810   5.480   6.938  0.00  0.00    -0.322 N 
ATOM     21  H   UNL     1       4.727   6.268   7.498  0.00  0.00    +0.169 HD
ENDBRANCH   8  17
ENDBRANCH   1   8
BRANCH   1  22
ATOM     22  C   UNL     1       2.619   4.215   1.654  0.00  0.00    +0.006 C 
BRANCH  22  23
ATOM     23  C   UNL     1       3.683   4.864   0.807  0.00  0.00    +0.138 A 
ATOM     24  N   UNL     1       4.957   4.968   1.095  0.00  0.00    -0.115 NA
ATOM     25  N   UNL     1       5.536   5.586   0.124  0.00  0.00    -0.023 NA
ATOM     26  N   UNL     1       4.665   5.873  -0.779  0.00  0.00    -0.044 NA
ATOM     27  N   UNL     1       3.510   5.450  -0.392  0.00  0.00    -0.228 N 
BRANCH  27  28
ATOM     28  C   UNL     1       2.247   5.577  -1.124  0.00  0.00    +0.178 C 
BRANCH  28  29
ATOM     29  C   UNL     1       1.738   7.016  -1.017  0.00  0.00    +0.140 C 
ATOM     30  C   UNL     1       0.397   7.179  -1.777  0.00  0.00    +0.035 C 
ATOM     31  C   UNL     1       0.389   8.693  -2.101  0.00  0.00    +0.031 C 
ATOM     32  C   UNL     1       1.870   9.107  -2.003  0.00  0.00    +0.160 C 
ATOM     33  O   UNL     1       2.627   7.922  -1.705  0.00  0.00    -0.375 OA
ENDBRANCH  28  29
ENDBRANCH  27  28
ENDBRANCH  22  23
BRANCH  22  34
ATOM     34  C   UNL     1       2.599   2.709   1.382  0.00  0.00    -0.024 C 
ATOM     35  C   UNL     1       3.972   2.115   1.701  0.00  0.00    +0.006 C 
ATOM     36  C   UNL     1       1.539   2.046   2.264  0.00  0.00    +0.006 C 
ENDBRANCH  22  34
ENDBRANCH   1  22
TORSDOF 8
