REMARK  Name = ZINC29386694
REMARK  8 active torsions:
REMARK  status: ('A' for Active; 'I' for Inactive)
REMARK    1  A    between atoms: C_1  and  C_2
REMARK    2  A    between atoms: C_5  and  C_8
REMARK    3  A    between atoms: C_8  and  N_9
REMARK    4  A    between atoms: C_16  and  C_18
REMARK    5  A    between atoms: C_18  and  N_19
REMARK    6  A    between atoms: C_20  and  C_26
REMARK    7  A    between atoms: C_29  and  O_32
REMARK    8  A    between atoms: O_32  and  C_33
REMARK                            x       y       z     vdW  Elec       q    Type
REMARK                         _______ _______ _______ _____ _____    ______ ____
ROOT
ATOM      1  N   UNL     1      -5.324   5.594   4.632  0.00  0.00    -0.331 N 
ATOM      2  C   UNL     1      -5.524   5.704   5.968  0.00  0.00    +0.088 A 
ATOM      3  C   UNL     1      -4.508   6.056   6.793  0.00  0.00    +0.018 A 
ATOM      4  C   UNL     1      -3.234   6.306   6.271  0.00  0.00    +0.005 A 
ATOM      5  C   UNL     1      -3.026   6.192   4.925  0.00  0.00    +0.042 A 
ATOM      6  C   UNL     1      -4.093   5.826   4.094  0.00  0.00    +0.105 A 
ATOM      7  N   UNL     1      -3.905   5.710   2.770  0.00  0.00    -0.270 N 
ATOM      8  C   UNL     1      -2.736   6.031   2.237  0.00  0.00    +0.238 C 
ATOM      9  O   UNL     1      -1.741   5.390   2.522  0.00  0.00    -0.273 OA
ATOM     10  H   UNL     1      -4.722   5.349   2.128  0.00  0.00    +0.156 HD
ENDROOT
BRANCH   1  11
ATOM     11  C   UNL     1      -6.439   5.218   3.759  0.00  0.00    +0.158 C 
BRANCH  11  16
ATOM     12  C   UNL     1     -10.124   1.860   6.680  0.00  0.00    +0.044 C 
ATOM     13  C   UNL     1      -9.163   2.735   5.918  0.00  0.00    -0.050 A 
ATOM     14  C   UNL     1      -9.327   4.108   5.922  0.00  0.00    +0.004 A 
ATOM     15  C   UNL     1      -8.445   4.911   5.223  0.00  0.00    +0.005 A 
ATOM     16  C   UNL     1      -7.400   4.342   4.521  0.00  0.00    -0.028 A 
ATOM     17  C   UNL     1      -7.239   2.969   4.512  0.00  0.00    +0.005 A 
ATOM     18  C   UNL     1      -8.118   2.166   5.214  0.00  0.00    +0.004 A 
ENDBRANCH  11  16
ENDBRANCH   1  11
BRANCH   8  19
ATOM     19  C   UNL     1      -2.638   7.189   1.278  0.00  0.00    +0.221 C 
BRANCH  19  20
ATOM     20  N   UNL     1      -1.250   7.337   0.832  0.00  0.00    -0.294 N 
ATOM     21  C   UNL     1      -0.703   6.784  -0.309  0.00  0.00    +0.163 A 
ATOM     22  N   UNL     1       0.550   7.135  -0.380  0.00  0.00    -0.153 NA
ATOM     23  N   UNL     1       0.842   7.931   0.736  0.00  0.00    -0.254 N 
ATOM     24  H   UNL     1       1.855   8.337   0.873  0.00  0.00    +0.191 HD
ATOM     25  C   UNL     1      -0.287   8.035   1.467  0.00  0.00    +0.176 A 
ATOM     26  S   UNL     1      -0.467   8.901   2.932  0.00  0.00    -0.011 S 
BRANCH  21  27
ATOM     27  C   UNL     1      -1.421   5.941  -1.290  0.00  0.00    +0.019 A 
ATOM     28  C   UNL     1      -2.584   5.267  -0.914  0.00  0.00    +0.015 A 
ATOM     29  C   UNL     1      -3.251   4.482  -1.831  0.00  0.00    +0.046 A 
ATOM     30  C   UNL     1      -2.765   4.361  -3.126  0.00  0.00    +0.120 A 
ATOM     31  C   UNL     1      -1.605   5.024  -3.502  0.00  0.00    +0.046 A 
ATOM     32  C   UNL     1      -0.937   5.816  -2.592  0.00  0.00    +0.015 A 
BRANCH  30  33
ATOM     33  O   UNL     1      -3.425   3.586  -4.027  0.00  0.00    -0.495 OA
ATOM     34  C   UNL     1      -2.870   3.505  -5.341  0.00  0.00    +0.277 C 
ENDBRANCH  30  33
ENDBRANCH  21  27
ENDBRANCH  19  20
ENDBRANCH   8  19
TORSDOF 6
