REMARK  Name = ZINC15672466
REMARK  7 active torsions:
REMARK  status: ('A' for Active; 'I' for Inactive)
REMARK    1  A    between atoms: C_1  and  C_2
REMARK    2  A    between atoms: C_5  and  N_8
REMARK    3  A    between atoms: C_9  and  C_11
REMARK    4  A    between atoms: C_11  and  C_32
REMARK    5  A    between atoms: N_23  and  C_24
REMARK    6  A    between atoms: C_24  and  C_25
REMARK    7  A    between atoms: C_25  and  N_71
REMARK                            x       y       z     vdW  Elec       q    Type
REMARK                         _______ _______ _______ _____ _____    ______ ____
ROOT
ATOM      1  C   UNL     1      -1.243   3.249  -0.448  0.00  0.00    +0.128 C 
ATOM      2  C   UNL     1      -0.212   4.184   0.185  0.00  0.00    +0.157 C 
ATOM      3  N   UNL     1       1.100   3.532   0.167  0.00  0.00    -0.333 N 
ATOM      4  C   UNL     1       2.356   4.110   0.115  0.00  0.00    +0.057 A 
ATOM      5  C   UNL     1       2.929   5.388   0.042  0.00  0.00    +0.034 A 
ATOM      6  C   UNL     1       4.271   5.529   0.014  0.00  0.00    +0.048 A 
ATOM      7  S   UNL     1       4.844   3.840   0.087  0.00  0.00    -0.095 S 
ATOM      8  C   UNL     1       3.262   3.039   0.150  0.00  0.00    +0.038 A 
ATOM      9  C   UNL     1       2.563   1.840   0.216  0.00  0.00    +0.048 A 
ATOM     10  C   UNL     1       1.235   2.149   0.218  0.00  0.00    +0.106 A 
ATOM     11  C   UNL     1       0.052   1.281   0.262  0.00  0.00    +0.264 C 
ATOM     12  O   UNL     1       0.140   0.086   0.476  0.00  0.00    -0.268 OA
ATOM     13  N   UNL     1      -1.142   1.882   0.045  0.00  0.00    -0.282 N 
ATOM     14  C   UNL     1      -2.645   3.782  -0.144  0.00  0.00    +0.043 C 
ENDROOT
BRANCH   1  16
ATOM     15  N   UNL     1      -0.131   2.411  -2.492  0.00  0.00    -0.311 N 
ATOM     16  C   UNL     1      -1.040   3.239  -1.941  0.00  0.00    +0.238 C 
ATOM     17  O   UNL     1      -1.694   3.977  -2.647  0.00  0.00    -0.273 OA
ATOM     18  H   UNL     1       0.393   1.821  -1.927  0.00  0.00    +0.149 HD
BRANCH  15  23
ATOM     19  C   UNL     1       0.814  -1.859  -3.813  0.00  0.00    +0.007 C 
ATOM     20  C   UNL     1       0.633  -0.443  -4.362  0.00  0.00    -0.014 C 
ATOM     21  C   UNL     1       1.659   0.490  -3.714  0.00  0.00    +0.005 C 
ATOM     22  C   UNL     1       1.479   1.907  -4.263  0.00  0.00    +0.022 C 
ATOM     23  C   UNL     1       0.067   2.401  -3.943  0.00  0.00    +0.073 C 
ATOM     24  C   UNL     1      -0.959   1.469  -4.591  0.00  0.00    +0.022 C 
ATOM     25  C   UNL     1      -0.779   0.052  -4.043  0.00  0.00    +0.005 C 
ENDBRANCH  15  23
ENDBRANCH   1  16
BRANCH  13  26
ATOM     26  C   UNL     1      -2.372   1.135   0.320  0.00  0.00    +0.091 C 
BRANCH  26  27
ATOM     27  C   UNL     1      -2.721   1.255   1.805  0.00  0.00    -0.060 C 
BRANCH  27  34
ATOM     28  C   UNL     1      -5.091   1.054   1.306  0.00  0.00    -0.079 C 
ATOM     29  C   UNL     1      -6.419   0.506   1.752  0.00  0.00    -0.019 C 
ATOM     30  C   UNL     1      -7.024   1.472   2.792  0.00  0.00    -0.002 C 
ATOM     31  C   UNL     1      -6.423   1.307   4.111  0.00  0.00    -0.002 C 
ATOM     32  C   UNL     1      -4.907   1.598   4.101  0.00  0.00    -0.019 C 
ATOM     33  C   UNL     1      -4.196   0.399   3.537  0.00  0.00    -0.079 C 
ATOM     34  N   UNL     1      -3.933   0.461   2.058  0.00  0.00    +0.381 N 
ATOM     35  H   UNL     1      -3.781  -0.495   1.716  0.00  0.00    -0.082 HD
ENDBRANCH  27  34
ENDBRANCH  26  27
ENDBRANCH  13  26
TORSDOF 5
