REMARK  Name = ZINC20025867
REMARK  15 active torsions:
REMARK  status: ('A' for Active; 'I' for Inactive)
REMARK    1  A    between atoms: C_1  and  C_2
REMARK    2  A    between atoms: C_2  and  C_3
REMARK    3  A    between atoms: C_8  and  N_9
REMARK    4  A    between atoms: C_10  and  C_12
REMARK    5  A    between atoms: C_12  and  S_13
REMARK    6  A    between atoms: S_13  and  C_14
REMARK    7  A    between atoms: C_15  and  C_36
REMARK    8  A    between atoms: C_16  and  C_29
REMARK    9  A    between atoms: C_18  and  C_22
REMARK   10  A    between atoms: C_19  and  C_21
REMARK   11  A    between atoms: C_22  and  O_24
REMARK   12  A    between atoms: O_24  and  C_25
REMARK   13  A    between atoms: C_25  and  C_26
REMARK   14  A    between atoms: C_26  and  O_27
REMARK   15  A    between atoms: O_27  and  C_28
REMARK                            x       y       z     vdW  Elec       q    Type
REMARK                         _______ _______ _______ _____ _____    ______ ____
ROOT
ATOM      1  C   UNL     1      -3.795   0.698   1.331  0.00  0.00    +0.080 C 
ATOM      2  C   UNL     1      -2.763  -0.165   1.131  0.00  0.00    +0.069 C 
ATOM      3  C   UNL     1      -2.184  -0.384  -0.239  0.00  0.00    +0.102 C 
ATOM      4  C   UNL     1      -3.114   0.132  -1.300  0.00  0.00    +0.066 C 
ATOM      5  C   UNL     1      -4.120   0.975  -1.009  0.00  0.00    +0.016 C 
ATOM      6  N   UNL     1      -4.342   1.391   0.274  0.00  0.00    -0.312 N 
ATOM      7  C   UNL     1      -5.017   1.468  -2.115  0.00  0.00    +0.061 C 
ATOM      8  H   UNL     1      -4.959   2.281   0.461  0.00  0.00    +0.152 HD
ENDROOT
BRANCH   3   9
ATOM      9  C   UNL     1      -0.866   0.339  -0.341  0.00  0.00    -0.016 A 
ATOM     10  C   UNL     1      -0.817   1.713  -0.195  0.00  0.00    +0.006 A 
ATOM     11  C   UNL     1       0.392   2.376  -0.289  0.00  0.00    +0.000 A 
ATOM     12  C   UNL     1       1.554   1.665  -0.530  0.00  0.00    +0.001 A 
ATOM     13  C   UNL     1       1.506   0.292  -0.677  0.00  0.00    +0.020 A 
ATOM     14  C   UNL     1       0.296  -0.372  -0.583  0.00  0.00    +0.045 A 
ATOM     15 CL   UNL     1       0.236  -2.097  -0.766  0.00  0.00    -0.083 Cl
ENDBRANCH   3   9
BRANCH   4  16
ATOM     16  C   UNL     1      -2.926  -0.280  -2.639  0.00  0.00    +0.338 C 
ATOM     17  O   UNL     1      -3.727   0.047  -3.494  0.00  0.00    -0.245 OA
BRANCH  16  18
ATOM     18  O   UNL     1      -1.857  -1.035  -2.969  0.00  0.00    -0.459 OA
BRANCH  18  19
ATOM     19  C   UNL     1      -1.730  -1.415  -4.340  0.00  0.00    +0.260 C 
BRANCH  19  20
ATOM     20  C   UNL     1      -0.468  -2.261  -4.521  0.00  0.00    +0.200 C 
BRANCH  20  21
ATOM     21  O   UNL     1      -0.611  -3.487  -3.800  0.00  0.00    -0.380 OA
ATOM     22  C   UNL     1       0.519  -4.356  -3.903  0.00  0.00    +0.194 C 
ENDBRANCH  20  21
ENDBRANCH  19  20
ENDBRANCH  18  19
ENDBRANCH  16  18
ENDBRANCH   4  16
BRANCH   2  23
ATOM     23  C   UNL     1      -2.217  -0.879   2.245  0.00  0.00    +0.098 C 
ATOM     24  N   UNL     1      -1.784  -1.445   3.130  0.00  0.00    -0.191 NA
ENDBRANCH   2  23
BRANCH   1  25
ATOM     25  S   UNL     1      -4.436   0.931   2.955  0.00  0.00    -0.100 S 
BRANCH  25  26
ATOM     26  C   UNL     1      -5.737   2.141   2.608  0.00  0.00    +0.171 C 
BRANCH  26  28
ATOM     27  N   UNL     1      -7.456   3.390   3.875  0.00  0.00    -0.285 N 
ATOM     28  C   UNL     1      -6.444   2.501   3.890  0.00  0.00    +0.227 C 
ATOM     29  O   UNL     1      -6.101   1.989   4.935  0.00  0.00    -0.275 OA
ATOM     30  H   UNL     1      -7.814   3.800   2.919  0.00  0.00    +0.155 HD
BRANCH  27  36
ATOM     31  C   UNL     1      -8.519   5.092   5.219  0.00  0.00    -0.026 A 
ATOM     32  C   UNL     1      -9.107   5.486   6.405  0.00  0.00    +0.005 A 
ATOM     33  C   UNL     1      -9.230   4.588   7.449  0.00  0.00    +0.000 A 
ATOM     34  C   UNL     1      -8.766   3.293   7.309  0.00  0.00    +0.002 A 
ATOM     35  C   UNL     1      -8.182   2.891   6.124  0.00  0.00    +0.023 A 
ATOM     36  C   UNL     1      -8.052   3.792   5.076  0.00  0.00    +0.037 A 
BRANCH  31  38
ATOM     37  C   UNL     1      -9.569   5.908   3.126  0.00  0.00    +0.009 C 
ATOM     38  C   UNL     1      -8.385   6.072   4.082  0.00  0.00    +0.033 C 
ENDBRANCH  31  38
ENDBRANCH  27  36
ENDBRANCH  26  28
ENDBRANCH  25  26
ENDBRANCH   1  25
TORSDOF 12
