REMARK  Name = ZINC00636272
REMARK  7 active torsions:
REMARK  status: ('A' for Active; 'I' for Inactive)
REMARK    1  A    between atoms: C_1  and  C_2
REMARK    2  A    between atoms: C_5  and  S_8
REMARK    3  A    between atoms: S_8  and  C_11
REMARK    4  A    between atoms: N_22  and  C_25
REMARK    5  A    between atoms: C_23  and  N_24
REMARK    6  A    between atoms: C_25  and  C_27
REMARK    7  A    between atoms: C_25  and  C_28
REMARK                            x       y       z     vdW  Elec       q    Type
REMARK                         _______ _______ _______ _____ _____    ______ ____
ROOT
ATOM      1  C   UNL     1       0.773   3.670  -0.103  0.00  0.00    +0.160 A 
ATOM      2  C   UNL     1       1.230   2.330  -0.119  0.00  0.00    +0.135 A 
ATOM      3  C   UNL     1       0.024   1.493  -0.067  0.00  0.00    +0.164 A 
ATOM      4  N   UNL     1       0.140   0.184  -0.068  0.00  0.00    -0.226 NA
ATOM      5  C   UNL     1       1.355  -0.378  -0.118  0.00  0.00    +0.092 A 
ATOM      6  C   UNL     1       1.488  -1.778  -0.120  0.00  0.00    +0.030 A 
ATOM      7  C   UNL     1       2.725  -2.341  -0.169  0.00  0.00    +0.002 A 
ATOM      8  C   UNL     1       3.871  -1.550  -0.219  0.00  0.00    +0.002 A 
ATOM      9  C   UNL     1       3.784  -0.193  -0.219  0.00  0.00    +0.030 A 
ATOM     10  C   UNL     1       2.520   0.427  -0.168  0.00  0.00    +0.090 A 
ATOM     11  N   UNL     1       2.424   1.761  -0.167  0.00  0.00    -0.240 NA
ATOM     12  N   UNL     1      -1.046   2.361  -0.018  0.00  0.00    -0.304 N 
ATOM     13  C   UNL     1      -0.579   3.651  -0.046  0.00  0.00    +0.126 A 
ENDROOT
BRANCH   1  14
ATOM     14  S   UNL     1       1.788   5.109  -0.149  0.00  0.00    +0.030 S 
ATOM     15  O   UNL     1       1.029   6.160   0.432  0.00  0.00    -0.164 OA
ATOM     16  O   UNL     1       3.062   4.724   0.349  0.00  0.00    -0.164 OA
BRANCH  14  21
ATOM     17  C   UNL     1       2.571   6.555  -5.955  0.00  0.00    +0.044 C 
ATOM     18  C   UNL     1       2.376   6.194  -4.504  0.00  0.00    -0.050 A 
ATOM     19  C   UNL     1       1.308   6.719  -3.799  0.00  0.00    +0.005 A 
ATOM     20  C   UNL     1       1.129   6.387  -2.469  0.00  0.00    +0.027 A 
ATOM     21  C   UNL     1       2.017   5.532  -1.844  0.00  0.00    +0.094 A 
ATOM     22  C   UNL     1       3.087   5.011  -2.548  0.00  0.00    +0.027 A 
ATOM     23  C   UNL     1       3.264   5.339  -3.879  0.00  0.00    +0.005 A 
ENDBRANCH  14  21
ENDBRANCH   1  14
BRANCH  13  24
ATOM     24  N   UNL     1      -1.380   4.779  -0.015  0.00  0.00    -0.343 N 
ATOM     25  H   UNL     1      -0.977   5.661  -0.034  0.00  0.00    +0.144 HD
ATOM     26  H   UNL     1      -2.345   4.687   0.025  0.00  0.00    +0.144 HD
ENDBRANCH  13  24
BRANCH  12  27
ATOM     27  C   UNL     1      -2.456   1.969   0.049  0.00  0.00    +0.117 C 
ATOM     28  C   UNL     1      -2.661   1.005   1.220  0.00  0.00    +0.036 C 
BRANCH  27  29
ATOM     29  C   UNL     1      -2.850   1.289  -1.237  0.00  0.00    -0.025 A 
ATOM     30  C   UNL     1      -2.349   0.037  -1.538  0.00  0.00    +0.005 A 
ATOM     31  C   UNL     1      -2.714  -0.589  -2.716  0.00  0.00    +0.000 A 
ATOM     32  C   UNL     1      -3.574   0.042  -3.595  0.00  0.00    +0.000 A 
ATOM     33  C   UNL     1      -4.071   1.296  -3.296  0.00  0.00    +0.000 A 
ATOM     34  C   UNL     1      -3.709   1.920  -2.117  0.00  0.00    +0.005 A 
ENDBRANCH  27  29
ENDBRANCH  12  27
TORSDOF 5
