REMARK  Name = ZINC40268609
REMARK  9 active torsions:
REMARK  status: ('A' for Active; 'I' for Inactive)
REMARK    1  A    between atoms: C_1  and  O_2
REMARK    2  A    between atoms: O_2  and  C_3
REMARK    3  A    between atoms: C_3  and  C_5
REMARK    4  A    between atoms: C_5  and  C_6
REMARK    5  A    between atoms: C_6  and  C_7
REMARK    6  A    between atoms: C_7  and  C_8
REMARK    7  A    between atoms: C_8  and  C_9
REMARK    8  A    between atoms: C_9  and  N_10
REMARK    9  A    between atoms: C_22  and  C_24
REMARK                            x       y       z     vdW  Elec       q    Type
REMARK                         _______ _______ _______ _____ _____    ______ ____
ROOT
ATOM      1  N   UNL     1       2.738  -8.629   4.368  0.00  0.00    -0.299 N 
ATOM      2  C   UNL     1       3.215  -7.719   5.241  0.00  0.00    +0.303 C 
ATOM      3  O   UNL     1       3.135  -6.532   4.986  0.00  0.00    -0.253 OA
ATOM      4  N   UNL     1       3.780  -8.124   6.395  0.00  0.00    -0.273 N 
ATOM      5  C   UNL     1       4.207  -7.148   7.409  0.00  0.00    +0.116 C 
ATOM      6  C   UNL     1       3.373  -7.344   8.680  0.00  0.00    +0.076 C 
ATOM      7  C   UNL     1       3.297  -8.818   8.991  0.00  0.00    +0.066 A 
ATOM      8  C   UNL     1       3.564  -9.799   8.102  0.00  0.00    +0.064 A 
ATOM      9  N   UNL     1       3.384 -10.985   8.743  0.00  0.00    -0.346 N 
ATOM     10  H   UNL     1       3.499 -11.870   8.364  0.00  0.00    +0.167 HD
ATOM     11  C   UNL     1       3.014 -10.695  10.012  0.00  0.00    +0.197 A 
ATOM     12  N   UNL     1       2.965  -9.396  10.150  0.00  0.00    -0.240 NA
ATOM     13  C   UNL     1       3.981  -9.557   6.677  0.00  0.00    +0.156 C 
ATOM     14  H   UNL     1       2.871  -9.575   4.533  0.00  0.00    +0.150 HD
ENDROOT
BRANCH  13  15
ATOM     15  C   UNL     1       5.434  -9.916   6.504  0.00  0.00    -0.021 A 
ATOM     16  C   UNL     1       6.388  -9.353   7.332  0.00  0.00    +0.007 A 
ATOM     17  C   UNL     1       7.721  -9.681   7.174  0.00  0.00    +0.015 A 
ATOM     18  C   UNL     1       8.101 -10.574   6.188  0.00  0.00    +0.018 A 
ATOM     19  C   UNL     1       7.147 -11.137   5.360  0.00  0.00    +0.015 A 
ATOM     20  C   UNL     1       5.813 -10.811   5.522  0.00  0.00    +0.007 A 
ATOM     21 BR   UNL     1       9.925 -11.023   5.971  0.00  0.00    -0.050 Br
ENDBRANCH  13  15
BRANCH   1  22
ATOM     22  C   UNL     1       2.020  -8.188   3.170  0.00  0.00    +0.106 C 
BRANCH  22  23
ATOM     23  C   UNL     1       1.589  -9.410   2.356  0.00  0.00    +0.019 C 
BRANCH  23  24
ATOM     24  C   UNL     1       0.838  -8.950   1.104  0.00  0.00    +0.002 C 
BRANCH  24  25
ATOM     25  C   UNL     1       0.407 -10.171   0.290  0.00  0.00    +0.011 C 
BRANCH  25  26
ATOM     26  C   UNL     1      -0.343  -9.711  -0.961  0.00  0.00    +0.120 C 
BRANCH  26  27
ATOM     27  C   UNL     1      -0.768 -10.914  -1.764  0.00  0.00    +0.307 C 
ATOM     28  O   UNL     1      -0.497 -12.026  -1.374  0.00  0.00    -0.251 OA
BRANCH  27  30
ATOM     29  C   UNL     1      -1.816 -11.935  -3.619  0.00  0.00    +0.280 C 
ATOM     30  O   UNL     1      -1.446 -10.751  -2.910  0.00  0.00    -0.468 OA
ENDBRANCH  27  30
ENDBRANCH  26  27
ENDBRANCH  25  26
ENDBRANCH  24  25
ENDBRANCH  23  24
ENDBRANCH  22  23
ENDBRANCH   1  22
TORSDOF 8
