REMARK  Name = ZINC01325546
REMARK  6 active torsions:
REMARK  status: ('A' for Active; 'I' for Inactive)
REMARK    1  A    between atoms: C_6  and  C_7
REMARK    2  A    between atoms: N_10  and  S_13
REMARK    3  A    between atoms: S_13  and  C_16
REMARK    4  A    between atoms: C_19  and  S_22
REMARK    5  A    between atoms: S_22  and  N_25
REMARK    6  A    between atoms: N_25  and  C_26
REMARK                            x       y       z     vdW  Elec       q    Type
REMARK                         _______ _______ _______ _____ _____    ______ ____
ROOT
ATOM      1  C   UNL     1      -2.556  -0.204  -2.213  0.00  0.00    +0.106 A 
ATOM      2  C   UNL     1      -2.606  -1.416  -1.551  0.00  0.00    +0.030 A 
ATOM      3  C   UNL     1      -3.823  -2.036  -1.335  0.00  0.00    +0.030 A 
ATOM      4  C   UNL     1      -4.988  -1.448  -1.790  0.00  0.00    +0.105 A 
ATOM      5  C   UNL     1      -4.937  -0.238  -2.456  0.00  0.00    +0.030 A 
ATOM      6  C   UNL     1      -3.721   0.384  -2.667  0.00  0.00    +0.030 A 
ENDROOT
BRANCH   1   7
ATOM      7  S   UNL     1      -1.006   0.589  -2.482  0.00  0.00    +0.061 S 
ATOM      8  O   UNL     1      -1.175   1.441  -3.607  0.00  0.00    -0.153 OA
ATOM      9  O   UNL     1      -0.016  -0.430  -2.441  0.00  0.00    -0.153 OA
BRANCH   7  13
ATOM     10  C   UNL     1      -1.669   2.477   1.222  0.00  0.00    -0.042 C 
ATOM     11  C   UNL     1      -0.719   1.572   1.243  0.00  0.00    -0.006 C 
ATOM     12  C   UNL     1      -0.013   1.086   0.008  0.00  0.00    +0.137 C 
ATOM     13  N   UNL     1      -0.726   1.574  -1.181  0.00  0.00    -0.173 NA
ATOM     14  C   UNL     1      -1.183   2.974  -1.168  0.00  0.00    +0.114 C 
ATOM     15  C   UNL     1      -2.188   3.132  -0.024  0.00  0.00    +0.052 C 
BRANCH  10  21
ATOM     16  C   UNL     1      -3.612   2.607   2.774  0.00  0.00    +0.011 A 
ATOM     17  C   UNL     1      -4.165   2.978   3.982  0.00  0.00    +0.039 A 
ATOM     18  C   UNL     1      -3.391   3.627   4.931  0.00  0.00    +0.123 A 
ATOM     19  C   UNL     1      -2.057   3.902   4.674  0.00  0.00    +0.039 A 
ATOM     20  C   UNL     1      -1.493   3.531   3.471  0.00  0.00    +0.011 A 
ATOM     21  C   UNL     1      -2.268   2.877   2.512  0.00  0.00    -0.022 A 
ATOM     22  F   UNL     1      -3.938   3.992   6.111  0.00  0.00    -0.205 F 
ENDBRANCH  10  21
ENDBRANCH   7  13
ENDBRANCH   1   7
BRANCH   4  23
ATOM     23  S   UNL     1      -6.539  -2.240  -1.520  0.00  0.00    +0.059 S 
ATOM     24  O   UNL     1      -6.369  -3.092  -0.395  0.00  0.00    -0.153 OA
ATOM     25  O   UNL     1      -7.528  -1.222  -1.562  0.00  0.00    -0.153 OA
BRANCH  23  26
ATOM     26  N   UNL     1      -6.818  -3.225  -2.821  0.00  0.00    -0.187 NA
ATOM     27  H   UNL     1      -7.563  -3.044  -3.416  0.00  0.00    +0.148 HD
BRANCH  26  28
ATOM     28  C   UNL     1      -5.940  -4.371  -3.075  0.00  0.00    +0.077 C 
ATOM     29  C   UNL     1      -4.854  -3.970  -4.075  0.00  0.00    +0.020 C 
ATOM     30  C   UNL     1      -3.938  -5.166  -4.340  0.00  0.00    +0.002 C 
ATOM     31  C   UNL     1      -4.760  -6.320  -4.916  0.00  0.00    +0.000 C 
ATOM     32  C   UNL     1      -5.846  -6.722  -3.916  0.00  0.00    +0.002 C 
ATOM     33  C   UNL     1      -6.763  -5.525  -3.651  0.00  0.00    +0.020 C 
ENDBRANCH  26  28
ENDBRANCH  23  26
ENDBRANCH   4  23
TORSDOF 6
