REMARK  Name = ZINC01056041
REMARK  10 active torsions:
REMARK  status: ('A' for Active; 'I' for Inactive)
REMARK    1  A    between atoms: C_4  and  O_7
REMARK    2  A    between atoms: O_7  and  C_8
REMARK    3  A    between atoms: C_8  and  C_10
REMARK    4  A    between atoms: C_12  and  C_17
REMARK    5  A    between atoms: C_15  and  N_16
REMARK    6  A    between atoms: C_17  and  C_19
REMARK    7  A    between atoms: C_22  and  N_34
REMARK    8  A    between atoms: C_23  and  C_25
REMARK    9  A    between atoms: C_25  and  O_27
REMARK   10  A    between atoms: O_27  and  C_28
REMARK                            x       y       z     vdW  Elec       q    Type
REMARK                         _______ _______ _______ _____ _____    ______ ____
ROOT
ATOM      1  C   UNL     1       8.750  -2.361  -0.574  0.00  0.00    +0.193 C 
ATOM      2  O   UNL     1       8.938  -1.159  -0.566  0.00  0.00    -0.287 OA
ENDROOT
BRANCH   1   5
ATOM      3  C   UNL     1       5.815  -4.702  -0.354  0.00  0.00    +0.081 A 
ATOM      4  C   UNL     1       7.115  -4.208  -0.275  0.00  0.00    +0.028 A 
ATOM      5  C   UNL     1       7.377  -2.892  -0.654  0.00  0.00    +0.023 A 
ATOM      6  C   UNL     1       6.335  -2.074  -1.113  0.00  0.00    +0.013 A 
ATOM      7  C   UNL     1       5.061  -2.556  -1.191  0.00  0.00    +0.024 A 
ATOM      8  C   UNL     1       4.782  -3.869  -0.821  0.00  0.00    +0.039 A 
BRANCH   8   9
ATOM      9  N   UNL     1       3.489  -4.352  -0.909  0.00  0.00    -0.357 N 
ATOM     10  H   UNL     1       3.272  -5.225  -0.544  0.00  0.00    +0.142 HD
ATOM     11  H   UNL     1       2.800  -3.819  -1.335  0.00  0.00    +0.142 HD
ENDBRANCH   8   9
BRANCH   3  12
ATOM     12  C   UNL     1       5.524  -6.091   0.044  0.00  0.00    +0.346 C 
ATOM     13  O   UNL     1       4.412  -6.551  -0.124  0.00  0.00    -0.244 OA
BRANCH  12  14
ATOM     14  O   UNL     1       6.492  -6.850   0.596  0.00  0.00    -0.422 OA
BRANCH  14  18
ATOM     15  C   UNL     1       5.643 -10.814   1.363  0.00  0.00    +0.000 A 
ATOM     16  C   UNL     1       5.731 -10.367   0.057  0.00  0.00    +0.004 A 
ATOM     17  C   UNL     1       6.015  -9.040  -0.202  0.00  0.00    +0.046 A 
ATOM     18  C   UNL     1       6.212  -8.156   0.849  0.00  0.00    +0.132 A 
ATOM     19  C   UNL     1       6.123  -8.607   2.158  0.00  0.00    +0.046 A 
ATOM     20  C   UNL     1       5.838  -9.934   2.412  0.00  0.00    +0.004 A 
ENDBRANCH  14  18
ENDBRANCH  12  14
ENDBRANCH   3  12
ENDBRANCH   1   5
BRANCH   1  21
ATOM     21  C   UNL     1       9.896  -3.287  -0.502  0.00  0.00    +0.023 A 
ATOM     22  C   UNL     1       9.787  -4.579  -1.035  0.00  0.00    +0.013 A 
ATOM     23  C   UNL     1      10.841  -5.443  -0.973  0.00  0.00    +0.024 A 
ATOM     24  C   UNL     1      12.039  -5.051  -0.381  0.00  0.00    +0.039 A 
ATOM     25  C   UNL     1      12.165  -3.758   0.158  0.00  0.00    +0.081 A 
ATOM     26  C   UNL     1      11.089  -2.875   0.089  0.00  0.00    +0.028 A 
BRANCH  24  27
ATOM     27  N   UNL     1      13.102  -5.933  -0.322  0.00  0.00    -0.357 N 
ATOM     28  H   UNL     1      13.056  -6.781  -0.790  0.00  0.00    +0.142 HD
ATOM     29  H   UNL     1      13.895  -5.703   0.187  0.00  0.00    +0.142 HD
ENDBRANCH  24  27
BRANCH  25  30
ATOM     30  C   UNL     1      13.430  -3.337   0.786  0.00  0.00    +0.346 C 
ATOM     31  O   UNL     1      14.399  -4.070   0.750  0.00  0.00    -0.244 OA
BRANCH  30  32
ATOM     32  O   UNL     1      13.512  -2.140   1.399  0.00  0.00    -0.422 OA
BRANCH  32  33
ATOM     33  C   UNL     1      14.725  -1.746   1.871  0.00  0.00    +0.132 A 
ATOM     34  C   UNL     1      15.696  -1.287   0.992  0.00  0.00    +0.046 A 
ATOM     35  C   UNL     1      16.927  -0.887   1.474  0.00  0.00    +0.004 A 
ATOM     36  C   UNL     1      17.193  -0.945   2.829  0.00  0.00    +0.000 A 
ATOM     37  C   UNL     1      16.227  -1.402   3.707  0.00  0.00    +0.004 A 
ATOM     38  C   UNL     1      14.992  -1.798   3.231  0.00  0.00    +0.046 A 
ENDBRANCH  32  33
ENDBRANCH  30  32
ENDBRANCH  25  30
ENDBRANCH   1  21
TORSDOF 10
