REMARK  Name = ZINC04551066
REMARK  3 active torsions:
REMARK  status: ('A' for Active; 'I' for Inactive)
REMARK    1  A    between atoms: C_3  and  C_9
REMARK    2  A    between atoms: C_22  and  N_26
REMARK    3  A    between atoms: C_23  and  C_24
REMARK                            x       y       z     vdW  Elec       q    Type
REMARK                         _______ _______ _______ _____ _____    ______ ____
ROOT
ATOM      1  C   UNL     1       1.262  -2.185  -0.021  0.00  0.00    +0.106 C 
ATOM      2  C   UNL     1       1.236  -0.681  -0.013  0.00  0.00    +0.090 A 
ATOM      3  C   UNL     1       0.002  -0.004   0.002  0.00  0.00    +0.262 A 
ATOM      4  O   UNL     1      -1.042  -0.632   0.009  0.00  0.00    -0.267 OA
ATOM      5  N   UNL     1      -0.016   1.343   0.009  0.00  0.00    -0.275 N 
ATOM      6  H   UNL     1      -0.890   1.829   0.020  0.00  0.00    +0.173 HD
ATOM      7  C   UNL     1       1.135   2.040   0.002  0.00  0.00    +0.329 A 
ATOM      8  O   UNL     1       1.100   3.255   0.008  0.00  0.00    -0.247 OA
ATOM      9  N   UNL     1       2.324   1.412  -0.012  0.00  0.00    -0.278 N 
ATOM     10  H   UNL     1       3.168   1.948  -0.018  0.00  0.00    +0.173 HD
ATOM     11  C   UNL     1       2.389   0.039  -0.020  0.00  0.00    +0.214 A 
ATOM     12  O   UNL     1       3.591  -0.568  -0.034  0.00  0.00    -0.425 OA
ATOM     13  C   UNL     1       3.701  -1.854   0.342  0.00  0.00    +0.200 C 
ATOM     14  C   UNL     1       2.628  -2.680   0.370  0.00  0.00    +0.098 C 
ENDROOT
BRANCH   1  17
ATOM     15  C   UNL     1       1.415  -2.786  -3.745  0.00  0.00    +0.002 A 
ATOM     16  C   UNL     1       1.721  -2.329  -2.477  0.00  0.00    +0.006 A 
ATOM     17  C   UNL     1       0.927  -2.684  -1.403  0.00  0.00    -0.015 A 
ATOM     18  C   UNL     1      -0.172  -3.501  -1.596  0.00  0.00    +0.063 A 
ATOM     19  C   UNL     1      -0.482  -3.955  -2.867  0.00  0.00    +0.060 A 
ATOM     20  C   UNL     1       0.314  -3.599  -3.941  0.00  0.00    +0.021 A 
ATOM     21 CL   UNL     1      -1.865  -4.975  -3.111  0.00  0.00    -0.082 Cl
ATOM     22 CL   UNL     1      -1.165  -3.953  -0.246  0.00  0.00    -0.082 Cl
ENDBRANCH   1  17
BRANCH  13  23
ATOM     23  N   UNL     1       4.931  -2.342   0.707  0.00  0.00    -0.328 N 
ATOM     24  H   UNL     1       5.024  -3.268   0.981  0.00  0.00    +0.145 HD
ATOM     25  H   UNL     1       5.707  -1.761   0.692  0.00  0.00    +0.145 HD
ENDBRANCH  13  23
BRANCH  14  26
ATOM     26  C   UNL     1       2.795  -4.043   0.778  0.00  0.00    +0.101 C 
ATOM     27  N   UNL     1       2.928  -5.124   1.102  0.00  0.00    -0.191 NA
ENDBRANCH  14  26
TORSDOF 3
