REMARK  Name = ZINC18097045
REMARK  6 active torsions:
REMARK  status: ('A' for Active; 'I' for Inactive)
REMARK    1  A    between atoms: C_1  and  C_2
REMARK    2  A    between atoms: C_9  and  O_29
REMARK    3  A    between atoms: C_11  and  O_28
REMARK    4  A    between atoms: C_18  and  O_26
REMARK    5  A    between atoms: C_20  and  O_25
REMARK    6  A    between atoms: O_26  and  C_27
REMARK                            x       y       z     vdW  Elec       q    Type
REMARK                         _______ _______ _______ _____ _____    ______ ____
ROOT
ATOM      1  C   UNL     1      -0.019   1.527   0.010  0.00  0.00    +0.052 C 
ATOM      2  C   UNL     1       0.002  -0.004   0.002  0.00  0.00    +0.174 C 
ATOM      3  C   UNL     1      -1.421  -0.553   0.038  0.00  0.00    +0.045 C 
ATOM      4  C   UNL     1      -2.218  -0.124  -1.194  0.00  0.00    +0.011 C 
ATOM      5  C   UNL     1      -3.625  -0.725  -1.099  0.00  0.00    +0.077 C 
ATOM      6  C   UNL     1      -3.586  -2.173  -1.520  0.00  0.00    +0.164 C 
ATOM      7  O   UNL     1      -3.512  -2.453  -2.692  0.00  0.00    -0.295 OA
ATOM      8  C   UNL     1      -3.652  -3.261  -0.483  0.00  0.00    +0.209 C 
ATOM      9  C   UNL     1      -3.045  -4.552  -1.026  0.00  0.00    +0.154 C 
ATOM     10  C   UNL     1      -2.663  -5.470   0.145  0.00  0.00    +0.061 C 
ATOM     11  C   UNL     1      -1.160  -5.418   0.330  0.00  0.00    -0.024 C 
ATOM     12  C   UNL     1      -0.629  -4.267   0.725  0.00  0.00    +0.005 C 
ATOM     13  C   UNL     1       0.820  -4.119   0.907  0.00  0.00    -0.004 A 
ATOM     14  C   UNL     1       1.677  -5.199   0.769  0.00  0.00    +0.054 A 
ATOM     15  C   UNL     1       3.048  -5.034   0.883  0.00  0.00    +0.124 A 
ATOM     16  C   UNL     1       3.577  -3.770   1.135  0.00  0.00    +0.091 A 
ATOM     17  C   UNL     1       2.739  -2.682   1.307  0.00  0.00    +0.135 A 
ATOM     18  C   UNL     1       1.349  -2.847   1.228  0.00  0.00    +0.108 A 
ATOM     19  C   UNL     1       0.436  -1.743   1.520  0.00  0.00    +0.344 C 
ATOM     20  O   UNL     1      -0.612  -1.964   2.088  0.00  0.00    -0.245 OA
ATOM     21  O   UNL     1       0.703  -0.469   1.170  0.00  0.00    -0.458 OA
ENDROOT
BRANCH  17  22
ATOM     22  O   UNL     1       3.263  -1.455   1.553  0.00  0.00    -0.506 OA
ATOM     23  H   UNL     1       3.445  -0.939   0.755  0.00  0.00    +0.292 HD
ENDBRANCH  17  22
BRANCH  15  24
ATOM     24  O   UNL     1       3.875  -6.102   0.752  0.00  0.00    -0.495 OA
ATOM     25  C   UNL     1       5.277  -5.857   0.881  0.00  0.00    +0.277 C 
ENDBRANCH  15  24
BRANCH   9  26
ATOM     26  O   UNL     1      -1.877  -4.255  -1.794  0.00  0.00    -0.388 OA
ATOM     27  H   UNL     1      -1.444  -5.034  -2.168  0.00  0.00    +0.210 HD
ENDBRANCH   9  26
BRANCH   8  28
ATOM     28  O   UNL     1      -5.019  -3.494  -0.132  0.00  0.00    -0.382 OA
ATOM     29  H   UNL     1      -5.468  -2.720   0.235  0.00  0.00    +0.210 HD
ENDBRANCH   8  28
TORSDOF 4
