REMARK  Name = ZINC48260499
REMARK  4 active torsions:
REMARK  status: ('A' for Active; 'I' for Inactive)
REMARK    1  A    between atoms: C_4  and  C_7
REMARK    2  A    between atoms: C_7  and  C_9
REMARK    3  A    between atoms: C_7  and  N_15
REMARK    4  A    between atoms: C_19  and  C_22
REMARK                            x       y       z     vdW  Elec       q    Type
REMARK                         _______ _______ _______ _____ _____    ______ ____
ROOT
ATOM      1  C   UNL     1       3.711  -0.707  -0.038  0.00  0.00    +0.174 C 
ENDROOT
BRANCH   1   2
ATOM      2  C   UNL     1       4.014  -1.161  -1.442  0.00  0.00    +0.242 C 
ATOM      3  O   UNL     1       4.149  -2.341  -1.682  0.00  0.00    -0.273 OA
ATOM      4  N   UNL     1       4.136  -0.254  -2.432  0.00  0.00    -0.239 N 
ATOM      5  C   UNL     1       4.407  -0.659  -3.688  0.00  0.00    +0.303 C 
ATOM      6  O   UNL     1       4.542  -1.843  -3.929  0.00  0.00    -0.253 OA
ATOM      7  N   UNL     1       4.528   0.247  -4.678  0.00  0.00    -0.313 N 
ATOM      8  H   UNL     1       4.027   0.691  -2.240  0.00  0.00    +0.159 HD
ATOM      9  H   UNL     1       4.420   1.192  -4.486  0.00  0.00    +0.146 HD
ATOM     10  H   UNL     1       4.723  -0.044  -5.582  0.00  0.00    +0.146 HD
ENDBRANCH   1   2
BRANCH   1  14
ATOM     11  C   UNL     1      -0.017   1.378   0.010  0.00  0.00    +0.000 A 
ATOM     12  C   UNL     1       1.171   2.086   0.002  0.00  0.00    +0.000 A 
ATOM     13  C   UNL     1       2.377   1.411  -0.013  0.00  0.00    +0.005 A 
ATOM     14  C   UNL     1       2.396   0.029  -0.020  0.00  0.00    -0.021 A 
ATOM     15  C   UNL     1       1.208  -0.679  -0.012  0.00  0.00    +0.005 A 
ATOM     16  C   UNL     1       0.002  -0.004   0.002  0.00  0.00    +0.000 A 
ENDBRANCH   1  14
BRANCH   1  17
ATOM     17  N   UNL     1       3.630  -1.877   0.848  0.00  0.00    -0.283 NA
ATOM     18  C   UNL     1       3.250  -1.480   2.211  0.00  0.00    +0.113 C 
ATOM     19  C   UNL     1       3.119  -2.731   3.083  0.00  0.00    +0.176 C 
ATOM     20  O   UNL     1       4.351  -3.457   3.054  0.00  0.00    -0.369 OA
ATOM     21  C   UNL     1       4.750  -3.860   1.742  0.00  0.00    +0.162 C 
ATOM     22  C   UNL     1       4.898  -2.620   0.856  0.00  0.00    +0.122 C 
BRANCH  21  23
ATOM     23  C   UNL     1       6.069  -4.585   1.818  0.00  0.00    -0.018 A 
ATOM     24  C   UNL     1       7.017  -4.200   2.748  0.00  0.00    +0.009 A 
ATOM     25  C   UNL     1       8.227  -4.864   2.819  0.00  0.00    +0.039 A 
ATOM     26  C   UNL     1       8.489  -5.916   1.958  0.00  0.00    +0.123 A 
ATOM     27  C   UNL     1       7.540  -6.302   1.027  0.00  0.00    +0.039 A 
ATOM     28  C   UNL     1       6.329  -5.639   0.962  0.00  0.00    +0.009 A 
ATOM     29  F   UNL     1       9.672  -6.566   2.026  0.00  0.00    -0.205 F 
ENDBRANCH  21  23
ENDBRANCH   1  17
TORSDOF 4
