REMARK  Name = ZINC18938250
REMARK  7 active torsions:
REMARK  status: ('A' for Active; 'I' for Inactive)
REMARK    1  A    between atoms: C_1  and  C_2
REMARK    2  A    between atoms: C_2  and  C_3
REMARK    3  A    between atoms: C_7  and  C_14
REMARK    4  A    between atoms: C_14  and  N_49
REMARK    5  A    between atoms: C_15  and  N_49
REMARK    6  A    between atoms: C_20  and  C_25
REMARK    7  A    between atoms: C_22  and  C_24
REMARK                            x       y       z     vdW  Elec       q    Type
REMARK                         _______ _______ _______ _____ _____    ______ ____
ROOT
ATOM      1  C   UNL     1      -2.143   1.058   1.278  0.00  0.00    -0.044 A 
ATOM      2  C   UNL     1      -3.155   1.806   0.693  0.00  0.00    +0.004 A 
ATOM      3  C   UNL     1      -4.442   1.347   0.689  0.00  0.00    +0.012 A 
ATOM      4  C   UNL     1      -4.742   0.119   1.287  0.00  0.00    +0.019 A 
ATOM      5  C   UNL     1      -6.114  -0.399   1.304  0.00  0.00    -0.047 A 
ATOM      6  C   UNL     1      -6.339  -1.597   1.901  0.00  0.00    +0.094 A 
ATOM      7  C   UNL     1      -5.265  -2.304   2.482  0.00  0.00    +0.337 A 
ATOM      8  O   UNL     1      -5.480  -3.378   3.014  0.00  0.00    -0.245 OA
ATOM      9  O   UNL     1      -4.012  -1.824   2.463  0.00  0.00    -0.422 OA
ATOM     10  C   UNL     1      -3.720  -0.639   1.885  0.00  0.00    +0.140 A 
ATOM     11  C   UNL     1      -2.418  -0.155   1.873  0.00  0.00    +0.050 A 
ENDROOT
BRANCH   1  13
ATOM     12  C   UNL     1      -0.013   1.086   0.008  0.00  0.00    +0.009 C 
ATOM     13  C   UNL     1      -0.729   1.579   1.267  0.00  0.00    +0.032 C 
ENDBRANCH   1  13
BRANCH   5  14
ATOM     14  C   UNL     1      -7.242   0.378   0.676  0.00  0.00    -0.045 C 
BRANCH  14  15
ATOM     15  N   UNL     1      -7.223   0.163  -0.783  0.00  0.00    +0.384 N 
ATOM     16  H   UNL     1      -7.337  -0.838  -0.980  0.00  0.00    -0.085 HD
ATOM     17  H   UNL     1      -6.325   0.486  -1.161  0.00  0.00    -0.085 HD
BRANCH  15  18
ATOM     18  C   UNL     1      -8.319   0.913  -1.425  0.00  0.00    -0.068 C 
ATOM     19  C   UNL     1      -9.602   0.080  -1.383  0.00  0.00    -0.015 C 
ATOM     20  C   UNL     1     -10.736   0.855  -2.057  0.00  0.00    -0.001 C 
ATOM     21  C   UNL     1     -10.362   1.142  -3.513  0.00  0.00    +0.003 C 
ATOM     22  C   UNL     1      -9.079   1.975  -3.555  0.00  0.00    -0.013 C 
ATOM     23  C   UNL     1      -7.946   1.200  -2.881  0.00  0.00    -0.025 C 
ATOM     24  C   UNL     1      -7.720  -0.120  -3.620  0.00  0.00    +0.006 C 
ATOM     25  C   UNL     1      -8.706   2.262  -5.011  0.00  0.00    +0.008 C 
ENDBRANCH  15  18
ENDBRANCH  14  15
ENDBRANCH   5  14
TORSDOF 4
