REMARK  Name = ZINC13391689
REMARK  8 active torsions:
REMARK  status: ('A' for Active; 'I' for Inactive)
REMARK    1  A    between atoms: C_1  and  C_2
REMARK    2  A    between atoms: C_5  and  S_9
REMARK    3  A    between atoms: C_7  and  C_8
REMARK    4  A    between atoms: S_9  and  C_10
REMARK    5  A    between atoms: C_10  and  C_11
REMARK    6  A    between atoms: N_13  and  C_14
REMARK    7  A    between atoms: C_16  and  C_22
REMARK    8  A    between atoms: C_19  and  C_20
REMARK                            x       y       z     vdW  Elec       q    Type
REMARK                         _______ _______ _______ _____ _____    ______ ____
ROOT
ATOM      1  C   UNL     1      -5.397   3.281   0.053  0.00  0.00    +0.227 C 
ATOM      2  O   UNL     1      -5.522   4.487   0.075  0.00  0.00    -0.275 OA
ATOM      3  N   UNL     1      -6.488   2.490   0.062  0.00  0.00    -0.284 N 
ATOM      4  H   UNL     1      -6.391   1.528  -0.020  0.00  0.00    +0.155 HD
ENDROOT
BRANCH   3   5
ATOM      5  C   UNL     1      -7.756   3.053   0.189  0.00  0.00    +0.048 A 
ATOM      6  C   UNL     1      -8.032   4.282  -0.393  0.00  0.00    +0.039 A 
ATOM      7  C   UNL     1      -9.303   4.840  -0.267  0.00  0.00    +0.065 A 
ATOM      8  C   UNL     1     -10.295   4.169   0.452  0.00  0.00    +0.016 A 
ATOM      9  C   UNL     1     -10.024   2.952   1.035  0.00  0.00    +0.018 A 
ATOM     10  C   UNL     1      -8.754   2.383   0.910  0.00  0.00    +0.084 A 
BRANCH  10  11
ATOM     11  C   UNL     1      -8.464   1.078   1.536  0.00  0.00    +0.388 C 
ATOM     12  O   UNL     1      -7.335   0.630   1.511  0.00  0.00    -0.241 OA
ATOM     13  O   UNL     1      -9.452   0.384   2.135  0.00  0.00    -0.241 OA
ENDBRANCH  10  11
BRANCH   7  14
ATOM     14  C   UNL     1      -9.600   6.148  -0.892  0.00  0.00    +0.387 C 
ATOM     15  O   UNL     1      -8.738   6.732  -1.517  0.00  0.00    -0.241 OA
ATOM     16  O   UNL     1     -10.826   6.690  -0.768  0.00  0.00    -0.241 OA
ENDBRANCH   7  14
ENDBRANCH   3   5
BRANCH   1  17
ATOM     17  C   UNL     1      -4.021   2.666   0.017  0.00  0.00    +0.170 C 
BRANCH  17  18
ATOM     18  S   UNL     1      -2.772   3.981   0.013  0.00  0.00    -0.116 S 
BRANCH  18  23
ATOM     19  C   UNL     1       2.478   1.006  -0.140  0.00  0.00    +0.044 C 
ATOM     20  C   UNL     1       1.167   1.749  -0.101  0.00  0.00    -0.047 A 
ATOM     21  C   UNL     1      -0.024   1.046  -0.089  0.00  0.00    +0.005 A 
ATOM     22  C   UNL     1      -1.226   1.723  -0.060  0.00  0.00    +0.015 A 
ATOM     23  C   UNL     1      -1.239   3.113  -0.031  0.00  0.00    +0.009 A 
ATOM     24  C   UNL     1      -0.041   3.816  -0.043  0.00  0.00    +0.018 A 
ATOM     25  C   UNL     1       1.159   3.132  -0.078  0.00  0.00    -0.046 A 
ATOM     26  C   UNL     1       2.459   3.893  -0.090  0.00  0.00    +0.044 C 
ENDBRANCH  18  23
ENDBRANCH  17  18
ENDBRANCH   1  17
TORSDOF 6
