REMARK  Name = ZINC36146321
REMARK  10 active torsions:
REMARK  status: ('A' for Active; 'I' for Inactive)
REMARK    1  A    between atoms: C_4  and  C_7
REMARK    2  A    between atoms: C_7  and  C_8
REMARK    3  A    between atoms: C_8  and  C_10
REMARK    4  A    between atoms: C_8  and  O_34
REMARK    5  A    between atoms: C_10  and  N_11
REMARK    6  A    between atoms: N_11  and  C_12
REMARK    7  A    between atoms: N_11  and  C_20
REMARK    8  A    between atoms: C_12  and  C_13
REMARK    9  A    between atoms: C_20  and  C_21
REMARK   10  A    between atoms: C_24  and  C_27
REMARK                            x       y       z     vdW  Elec       q    Type
REMARK                         _______ _______ _______ _____ _____    ______ ____
ROOT
ATOM      1  N   UNL     1       5.550  -1.977   3.287  0.00  0.00    +0.386 N 
ATOM      2  H   UNL     1       5.213  -1.283   3.937  0.00  0.00    -0.081 HD
ENDROOT
BRANCH   1   3
ATOM      3  C   UNL     1       5.550  -1.416   1.929  0.00  0.00    -0.046 C 
BRANCH   3   4
ATOM      4  C   UNL     1       4.251  -0.642   1.697  0.00  0.00    +0.102 C 
BRANCH   4   5
ATOM      5  O   UNL     1       3.159  -1.560   1.608  0.00  0.00    -0.393 OA
ATOM      6  H   UNL     1       3.220  -2.172   0.862  0.00  0.00    +0.210 HD
ENDBRANCH   4   5
BRANCH   4   7
ATOM      7  C   UNL     1       4.356   0.152   0.394  0.00  0.00    +0.064 C 
BRANCH   7  11
ATOM      8  C   UNL     1       0.874   2.580  -0.082  0.00  0.00    +0.000 A 
ATOM      9  C   UNL     1       1.978   3.079   0.583  0.00  0.00    +0.000 A 
ATOM     10  C   UNL     1       3.105   2.293   0.737  0.00  0.00    +0.004 A 
ATOM     11  C   UNL     1       3.127   1.008   0.227  0.00  0.00    -0.045 A 
ATOM     12  C   UNL     1       2.022   0.510  -0.438  0.00  0.00    +0.004 A 
ATOM     13  C   UNL     1       0.896   1.296  -0.593  0.00  0.00    +0.000 A 
ENDBRANCH   7  11
ENDBRANCH   4   7
ENDBRANCH   3   4
ENDBRANCH   1   3
BRANCH   1  14
ATOM     14  C   UNL     1       4.674  -3.155   3.330  0.00  0.00    -0.043 C 
BRANCH  14  15
ATOM     15  C   UNL     1       5.172  -4.187   2.351  0.00  0.00    -0.064 A 
ATOM     16  C   UNL     1       4.687  -4.201   1.056  0.00  0.00    +0.004 A 
ATOM     17  C   UNL     1       5.143  -5.147   0.158  0.00  0.00    +0.038 A 
ATOM     18  C   UNL     1       6.086  -6.080   0.554  0.00  0.00    +0.123 A 
ATOM     19  C   UNL     1       6.571  -6.065   1.851  0.00  0.00    +0.038 A 
ATOM     20  C   UNL     1       6.117  -5.115   2.747  0.00  0.00    +0.004 A 
ATOM     21  F   UNL     1       6.532  -7.005  -0.324  0.00  0.00    -0.205 F 
ENDBRANCH  14  15
ENDBRANCH   1  14
BRANCH   1  22
ATOM     22  C   UNL     1       6.917  -2.369   3.654  0.00  0.00    -0.030 C 
BRANCH  22  23
ATOM     23  C   UNL     1       6.969  -2.700   5.147  0.00  0.00    +0.194 C 
ATOM     24  C   UNL     1       8.381  -3.179   5.560  0.00  0.00    +0.104 C 
ATOM     25  C   UNL     1       8.078  -4.267   6.572  0.00  0.00    +0.091 C 
ATOM     26  N   UNL     1       6.834  -4.592   6.455  0.00  0.00    -0.089 NA
ATOM     27  O   UNL     1       6.166  -3.859   5.447  0.00  0.00    -0.392 OA
BRANCH  25  28
ATOM     28  C   UNL     1       9.040  -4.854   7.526  0.00  0.00    -0.000 A 
ATOM     29  C   UNL     1      10.362  -4.406   7.552  0.00  0.00    +0.011 A 
ATOM     30  C   UNL     1      11.256  -4.958   8.446  0.00  0.00    +0.020 A 
ATOM     31  C   UNL     1      10.844  -5.954   9.315  0.00  0.00    +0.041 A 
ATOM     32  C   UNL     1       9.534  -6.403   9.293  0.00  0.00    +0.020 A 
ATOM     33  C   UNL     1       8.630  -5.854   8.409  0.00  0.00    +0.011 A 
ATOM     34 CL   UNL     1      11.976  -6.644  10.437  0.00  0.00    -0.084 Cl
ENDBRANCH  25  28
ENDBRANCH  22  23
ENDBRANCH   1  22
TORSDOF 10
