REMARK  Name = ZINC35960774
REMARK  9 active torsions:
REMARK  status: ('A' for Active; 'I' for Inactive)
REMARK    1  A    between atoms: C_1  and  C_2
REMARK    2  A    between atoms: C_2  and  C_3
REMARK    3  A    between atoms: C_2  and  C_4
REMARK    4  A    between atoms: C_5  and  C_17
REMARK    5  A    between atoms: C_6  and  O_16
REMARK    6  A    between atoms: N_7  and  C_9
REMARK    7  A    between atoms: C_18  and  N_32
REMARK    8  A    between atoms: N_21  and  C_24
REMARK    9  A    between atoms: C_24  and  C_25
REMARK                            x       y       z     vdW  Elec       q    Type
REMARK                         _______ _______ _______ _____ _____    ______ ____
ROOT
ATOM      1  C   UNL     1      -1.218  -1.790  -2.168  0.00  0.00    +0.077 C 
ATOM      2  C   UNL     1      -0.646  -3.022  -2.335  0.00  0.00    +0.106 C 
ATOM      3  C   UNL     1      -0.317  -3.139  -3.769  0.00  0.00    +0.268 C 
ATOM      4  O   UNL     1       0.206  -4.099  -4.301  0.00  0.00    -0.268 OA
ATOM      5  N   UNL     1      -0.692  -2.007  -4.389  0.00  0.00    -0.229 N 
ATOM      6  C   UNL     1      -1.242  -1.157  -3.504  0.00  0.00    +0.256 C 
ATOM      7  O   UNL     1      -1.682  -0.054  -3.759  0.00  0.00    -0.269 OA
ENDROOT
BRANCH   2   8
ATOM      8  N   UNL     1      -0.421  -3.975  -1.350  0.00  0.00    -0.321 N 
ATOM      9  C   UNL     1      -1.540  -4.580  -0.611  0.00  0.00    +0.133 C 
ATOM     10  C   UNL     1      -1.379  -6.104  -0.653  0.00  0.00    +0.178 C 
ATOM     11  O   UNL     1      -0.064  -6.451  -0.211  0.00  0.00    -0.377 OA
ATOM     12  C   UNL     1       0.985  -5.940  -1.036  0.00  0.00    +0.178 C 
ATOM     13  C   UNL     1       0.945  -4.412  -1.018  0.00  0.00    +0.133 C 
ENDBRANCH   2   8
BRANCH   1  15
ATOM     14  C   UNL     1      -0.978  -0.428   0.008  0.00  0.00    +0.078 A 
ATOM     15  C   UNL     1      -1.717  -1.210  -0.905  0.00  0.00    +0.074 A 
ATOM     16  C   UNL     1      -3.002  -1.331  -0.394  0.00  0.00    +0.224 A 
ATOM     17  N   UNL     1      -3.031  -0.648   0.779  0.00  0.00    -0.200 N 
ATOM     18  N   UNL     1      -1.760  -0.106   1.002  0.00  0.00    -0.167 NA
BRANCH  17  19
ATOM     19  C   UNL     1      -4.141  -0.514   1.625  0.00  0.00    +0.069 A 
ATOM     20  C   UNL     1      -5.418  -0.425   1.087  0.00  0.00    +0.031 A 
ATOM     21  C   UNL     1      -6.510  -0.293   1.921  0.00  0.00    +0.040 A 
ATOM     22  C   UNL     1      -6.333  -0.250   3.294  0.00  0.00    +0.124 A 
ATOM     23  C   UNL     1      -5.060  -0.339   3.833  0.00  0.00    +0.040 A 
ATOM     24  C   UNL     1      -3.966  -0.476   3.002  0.00  0.00    +0.031 A 
ATOM     25  F   UNL     1      -7.403  -0.121   4.109  0.00  0.00    -0.205 F 
ENDBRANCH  17  19
BRANCH  14  27
ATOM     26  C   UNL     1       0.587   1.488  -0.164  0.00  0.00    +0.014 C 
ATOM     27  C   UNL     1       0.470  -0.037  -0.137  0.00  0.00    +0.034 C 
ATOM     28  C   UNL     1       1.268  -0.588   1.046  0.00  0.00    +0.014 C 
ENDBRANCH  14  27
BRANCH  16  29
ATOM     29  O   UNL     1      -4.034  -2.004  -0.960  0.00  0.00    -0.492 OA
ATOM     30  H   UNL     1      -4.092  -2.931  -0.692  0.00  0.00    +0.294 HD
ENDBRANCH  16  29
ENDBRANCH   1  15
BRANCH   5  31
ATOM     31  C   UNL     1      -0.531  -1.740  -5.820  0.00  0.00    +0.152 C 
BRANCH  31  32
ATOM     32  C   UNL     1      -1.757  -2.210  -6.560  0.00  0.00    -0.029 A 
ATOM     33  C   UNL     1      -1.821  -3.505  -7.038  0.00  0.00    +0.008 A 
ATOM     34  C   UNL     1      -2.946  -3.937  -7.716  0.00  0.00    +0.038 A 
ATOM     35  C   UNL     1      -4.008  -3.071  -7.916  0.00  0.00    +0.123 A 
ATOM     36  C   UNL     1      -3.942  -1.774  -7.437  0.00  0.00    +0.038 A 
ATOM     37  C   UNL     1      -2.819  -1.346  -6.754  0.00  0.00    +0.008 A 
ATOM     38  F   UNL     1      -5.107  -3.492  -8.579  0.00  0.00    -0.205 F 
ENDBRANCH  31  32
ENDBRANCH   5  31
TORSDOF 7
