REMARK  Name = ZINC11515014
REMARK  8 active torsions:
REMARK  status: ('A' for Active; 'I' for Inactive)
REMARK    1  A    between atoms: C_1  and  C_2
REMARK    2  A    between atoms: C_2  and  C_4
REMARK    3  A    between atoms: C_2  and  N_57
REMARK    4  A    between atoms: N_6  and  C_7
REMARK    5  A    between atoms: C_12  and  S_13
REMARK    6  A    between atoms: S_13  and  C_14
REMARK    7  A    between atoms: N_17  and  C_20
REMARK    8  A    between atoms: C_23  and  N_30
REMARK                            x       y       z     vdW  Elec       q    Type
REMARK                         _______ _______ _______ _____ _____    ______ ____
ROOT
ATOM      1  C   UNL     1       0.052   1.176  -0.236  0.00  0.00    -0.059 C 
ATOM      2  C   UNL     1       1.427   1.835  -0.114  0.00  0.00    +0.086 C 
ATOM      3  N   UNL     1       1.944   1.637   1.248  0.00  0.00    -0.333 N 
ATOM      4  C   UNL     1       2.060   0.206   1.561  0.00  0.00    +0.086 C 
ATOM      5  C   UNL     1       0.684  -0.454   1.438  0.00  0.00    -0.059 C 
ATOM      6  N   UNL     1       0.187  -0.266   0.059  0.00  0.00    +0.389 N 
ATOM      7  H   UNL     1       0.860  -0.680  -0.597  0.00  0.00    -0.081 HD
ENDROOT
BRANCH   3   8
ATOM      8  C   UNL     1       3.165   2.287   1.418  0.00  0.00    +0.038 A 
ATOM      9  C   UNL     1       4.269   1.899   0.689  0.00  0.00    +0.026 A 
ATOM     10  C   UNL     1       5.492   2.545   0.849  0.00  0.00    +0.035 A 
ATOM     11  C   UNL     1       5.637   3.569   1.735  0.00  0.00    +0.135 A 
ATOM     12  C   UNL     1       4.539   3.991   2.501  0.00  0.00    +0.032 A 
ATOM     13  C   UNL     1       3.287   3.343   2.342  0.00  0.00    +0.008 A 
ATOM     14  C   UNL     1       2.205   3.785   3.121  0.00  0.00    +0.030 A 
ATOM     15  C   UNL     1       2.404   4.813   3.993  0.00  0.00    +0.111 A 
ATOM     16  N   UNL     1       3.585   5.402   4.122  0.00  0.00    -0.263 NA
ATOM     17  C   UNL     1       4.638   5.042   3.428  0.00  0.00    +0.121 A 
BRANCH  11  18
ATOM     18  N   UNL     1       6.950   4.235   1.891  0.00  0.00    +0.057 N 
ATOM     19  O   UNL     1       7.655   4.426   0.916  0.00  0.00    -0.126 OA
ATOM     20  O   UNL     1       7.325   4.593   2.993  0.00  0.00    -0.126 OA
ENDBRANCH  11  18
ENDBRANCH   3   8
BRANCH   6  22
ATOM     21  C   UNL     1      -2.128  -0.403   0.914  0.00  0.00    -0.004 C 
ATOM     22  C   UNL     1      -1.119  -0.940  -0.103  0.00  0.00    +0.017 C 
BRANCH  22  23
ATOM     23  C   UNL     1      -0.934  -2.421   0.107  0.00  0.00    +0.203 C 
ATOM     24  O   UNL     1       0.162  -2.862   0.379  0.00  0.00    -0.277 OA
ATOM     25  N   UNL     1      -1.987  -3.255  -0.009  0.00  0.00    -0.286 N 
ATOM     26  H   UNL     1      -2.852  -2.909  -0.280  0.00  0.00    +0.155 HD
BRANCH  25  27
ATOM     27  C   UNL     1      -1.832  -4.620   0.264  0.00  0.00    +0.047 A 
ATOM     28  C   UNL     1      -0.604  -5.234   0.066  0.00  0.00    +0.024 A 
ATOM     29  C   UNL     1      -0.453  -6.581   0.340  0.00  0.00    +0.002 A 
ATOM     30  C   UNL     1      -1.525  -7.322   0.801  0.00  0.00    +0.001 A 
ATOM     31  C   UNL     1      -2.754  -6.721   0.996  0.00  0.00    +0.016 A 
ATOM     32  C   UNL     1      -2.914  -5.368   0.729  0.00  0.00    +0.029 A 
BRANCH  32  33
ATOM     33  S   UNL     1      -4.479  -4.598   0.976  0.00  0.00    -0.127 S 
ATOM     34  C   UNL     1      -5.541  -5.943   1.573  0.00  0.00    +0.090 C 
ENDBRANCH  32  33
ENDBRANCH  25  27
ENDBRANCH  22  23
ENDBRANCH   6  22
TORSDOF 6
