REMARK  Name = ZINC22472520
REMARK  8 active torsions:
REMARK  status: ('A' for Active; 'I' for Inactive)
REMARK    1  A    between atoms: C_1  and  C_2
REMARK    2  A    between atoms: C_7  and  O_8
REMARK    3  A    between atoms: O_8  and  C_9
REMARK    4  A    between atoms: C_9  and  C_10
REMARK    5  A    between atoms: N_15  and  C_18
REMARK    6  A    between atoms: C_18  and  C_19
REMARK    7  A    between atoms: C_19  and  N_20
REMARK    8  A    between atoms: C_23  and  O_24
REMARK                            x       y       z     vdW  Elec       q    Type
REMARK                         _______ _______ _______ _____ _____    ______ ____
ROOT
ATOM      1  C   UNL     1       1.030   3.512   0.011  0.00  0.00    +0.253 C 
ATOM      2  O   UNL     1      -0.097   3.960   0.024  0.00  0.00    -0.272 OA
ATOM      3  N   UNL     1       2.088   4.347   0.005  0.00  0.00    -0.296 N 
ATOM      4  C   UNL     1       3.463   3.825  -0.004  0.00  0.00    +0.123 C 
ATOM      5  C   UNL     1       4.230   4.509  -1.146  0.00  0.00    +0.103 C 
ATOM      6  N   UNL     1       4.121   5.967  -0.998  0.00  0.00    -0.298 NA
ATOM      7  C   UNL     1       2.727   6.412  -1.122  0.00  0.00    +0.103 C 
ATOM      8  C   UNL     1       1.898   5.806   0.015  0.00  0.00    +0.123 C 
ENDROOT
BRANCH   1   9
ATOM      9  C   UNL     1       1.248   2.021   0.001  0.00  0.00    +0.324 C 
BRANCH   9  10
ATOM     10  O   UNL     1      -0.016   1.355   0.009  0.00  0.00    -0.483 OA
BRANCH  10  17
ATOM     11  C   UNL     1      -2.505   0.019   0.025  0.00  0.00    +0.047 C 
ATOM     12  C   UNL     1      -1.189  -0.715   0.010  0.00  0.00    -0.009 A 
ATOM     13  C   UNL     1      -1.167  -2.096   0.002  0.00  0.00    +0.007 A 
ATOM     14  C   UNL     1       0.040  -2.770  -0.013  0.00  0.00    +0.000 A 
ATOM     15  C   UNL     1       1.228  -2.064  -0.021  0.00  0.00    +0.004 A 
ATOM     16  C   UNL     1       1.212  -0.682  -0.019  0.00  0.00    +0.046 A 
ATOM     17  C   UNL     1       0.002  -0.004   0.002  0.00  0.00    +0.124 A 
ENDBRANCH  10  17
ENDBRANCH   9  10
ENDBRANCH   1   9
BRANCH   6  18
ATOM     18  C   UNL     1       4.983   6.660  -1.965  0.00  0.00    +0.105 C 
BRANCH  18  19
ATOM     19  C   UNL     1       6.364   6.001  -1.981  0.00  0.00    +0.128 C 
BRANCH  19  20
ATOM     20  N   UNL     1       7.224   6.693  -2.945  0.00  0.00    -0.382 N 
ATOM     21  C   UNL     1       8.522   6.274  -3.134  0.00  0.00    +0.053 A 
ATOM     22  C   UNL     1       9.031   5.212  -2.432  0.00  0.00    +0.113 A 
ATOM     23  C   UNL     1      10.356   4.810  -2.647  0.00  0.00    +0.286 A 
ATOM     24  O   UNL     1      11.154   5.435  -3.527  0.00  0.00    -0.425 OA
ATOM     25  C   UNL     1      10.721   6.488  -4.254  0.00  0.00    +0.141 A 
ATOM     26  C   UNL     1       9.404   6.949  -4.102  0.00  0.00    +0.041 A 
ATOM     27  C   UNL     1       8.951   8.032  -4.856  0.00  0.00    +0.013 A 
ATOM     28  C   UNL     1       9.801   8.641  -5.753  0.00  0.00    +0.001 A 
ATOM     29  C   UNL     1      11.100   8.181  -5.907  0.00  0.00    +0.004 A 
ATOM     30  C   UNL     1      11.564   7.120  -5.159  0.00  0.00    +0.047 A 
ATOM     31  H   UNL     1       6.832   7.546  -3.518  0.00  0.00    +0.160 HD
BRANCH  23  32
ATOM     32  O   UNL     1      10.797   3.864  -2.016  0.00  0.00    -0.480 OA
ATOM     33  H   UNL     1      11.835   3.535  -2.172  0.00  0.00    +0.295 HD
ENDBRANCH  23  32
ENDBRANCH  19  20
ENDBRANCH  18  19
ENDBRANCH   6  18
TORSDOF 7
