REMARK  Name = ZINC39946472
REMARK  6 active torsions:
REMARK  status: ('A' for Active; 'I' for Inactive)
REMARK    1  A    between atoms: C_4  and  C_7
REMARK    2  A    between atoms: C_7  and  C_9
REMARK    3  A    between atoms: C_7  and  O_20
REMARK    4  A    between atoms: C_9  and  C_11
REMARK    5  A    between atoms: O_20  and  C_21
REMARK    6  A    between atoms: C_21  and  C_23
REMARK                            x       y       z     vdW  Elec       q    Type
REMARK                         _______ _______ _______ _____ _____    ______ ____
ROOT
ATOM      1  C   UNL     1       3.711  -0.707  -0.038  0.00  0.00    +0.277 C 
ENDROOT
BRANCH   1   5
ATOM      2  C   UNL     1      -0.017   1.378   0.010  0.00  0.00    +0.000 A 
ATOM      3  C   UNL     1       1.171   2.086   0.002  0.00  0.00    +0.000 A 
ATOM      4  C   UNL     1       2.377   1.411  -0.013  0.00  0.00    +0.008 A 
ATOM      5  C   UNL     1       2.396   0.029  -0.020  0.00  0.00    +0.000 A 
ATOM      6  C   UNL     1       1.208  -0.679  -0.012  0.00  0.00    +0.008 A 
ATOM      7  C   UNL     1       0.002  -0.004   0.002  0.00  0.00    +0.000 A 
ENDBRANCH   1   5
BRANCH   1   8
ATOM      8  C   UNL     1       4.044  -1.175   1.356  0.00  0.00    +0.206 C 
ATOM      9  O   UNL     1       3.918  -2.346   1.649  0.00  0.00    -0.288 OA
BRANCH   8  10
ATOM     10  C   UNL     1       4.501  -0.251   2.320  0.00  0.00    +0.027 C 
ATOM     11  C   UNL     1       4.852  -0.515   3.631  0.00  0.00    +0.006 A 
ATOM     12  C   UNL     1       4.873  -1.702   4.401  0.00  0.00    +0.010 A 
ATOM     13  C   UNL     1       5.271  -1.669   5.693  0.00  0.00    +0.001 A 
ATOM     14  C   UNL     1       5.675  -0.483   6.327  0.00  0.00    +0.002 A 
ATOM     15  C   UNL     1       5.691   0.703   5.682  0.00  0.00    +0.026 A 
ATOM     16  C   UNL     1       5.273   0.755   4.271  0.00  0.00    +0.043 A 
ATOM     17  N   UNL     1       5.192   1.742   3.424  0.00  0.00    -0.380 N 
ATOM     18  C   UNL     1       4.716   1.235   2.133  0.00  0.00    +0.152 C 
ATOM     19  H   UNL     1       5.416   2.666   3.616  0.00  0.00    +0.160 HD
ENDBRANCH   8  10
ENDBRANCH   1   8
BRANCH   1  20
ATOM     20  O   UNL     1       3.614  -1.836  -0.908  0.00  0.00    -0.445 OA
BRANCH  20  21
ATOM     21  C   UNL     1       3.939  -1.641  -2.201  0.00  0.00    +0.340 C 
ATOM     22  O   UNL     1       4.296  -0.543  -2.579  0.00  0.00    -0.245 OA
BRANCH  21  23
ATOM     23  C   UNL     1       3.863  -2.763  -3.159  0.00  0.00    +0.060 A 
ATOM     24  C   UNL     1       3.447  -4.025  -2.728  0.00  0.00    +0.016 A 
ATOM     25  C   UNL     1       3.377  -5.068  -3.627  0.00  0.00    +0.022 A 
ATOM     26  C   UNL     1       3.717  -4.867  -4.955  0.00  0.00    +0.059 A 
ATOM     27  C   UNL     1       4.131  -3.617  -5.388  0.00  0.00    +0.060 A 
ATOM     28  C   UNL     1       4.199  -2.564  -4.499  0.00  0.00    +0.036 A 
ATOM     29 CL   UNL     1       4.556  -3.375  -7.054  0.00  0.00    -0.082 Cl
ATOM     30 CL   UNL     1       3.626  -6.186  -6.080  0.00  0.00    -0.082 Cl
ENDBRANCH  21  23
ENDBRANCH  20  21
ENDBRANCH   1  20
TORSDOF 6
