REMARK  Name = ZINC36342107
REMARK  15 active torsions:
REMARK  status: ('A' for Active; 'I' for Inactive)
REMARK    1  A    between atoms: C_1  and  C_2
REMARK    2  A    between atoms: C_3  and  C_21
REMARK    3  A    between atoms: C_4  and  O_13
REMARK    4  A    between atoms: N_5  and  C_7
REMARK    5  A    between atoms: O_13  and  C_14
REMARK    6  A    between atoms: C_21  and  N_22
REMARK    7  A    between atoms: N_22  and  C_23
REMARK    8  A    between atoms: N_22  and  C_30
REMARK    9  A    between atoms: C_23  and  C_24
REMARK   10  A    between atoms: C_30  and  C_31
REMARK   11  A    between atoms: C_31  and  C_33
REMARK   12  A    between atoms: C_31  and  O_38
REMARK   13  A    between atoms: C_33  and  O_34
REMARK   14  A    between atoms: O_34  and  C_35
REMARK   15  A    between atoms: C_35  and  C_36
REMARK                            x       y       z     vdW  Elec       q    Type
REMARK                         _______ _______ _______ _____ _____    ______ ____
ROOT
ATOM      1  C   UNL     1       0.260   1.237   0.183  0.00  0.00    +0.068 C 
ATOM      2  C   UNL     1       0.039  -0.231  -0.075  0.00  0.00    +0.065 A 
ATOM      3  C   UNL     1      -0.009  -0.842  -1.332  0.00  0.00    +0.021 A 
ATOM      4  C   UNL     1      -0.224  -2.171  -1.142  0.00  0.00    +0.225 A 
ATOM      5  N   UNL     1      -0.309  -2.384   0.198  0.00  0.00    -0.200 N 
ATOM      6  N   UNL     1      -0.135  -1.151   0.840  0.00  0.00    -0.168 NA
ENDROOT
BRANCH   5   7
ATOM      7  C   UNL     1      -0.527  -3.618   0.826  0.00  0.00    +0.069 A 
ATOM      8  C   UNL     1      -1.463  -4.505   0.312  0.00  0.00    +0.028 A 
ATOM      9  C   UNL     1      -1.676  -5.720   0.933  0.00  0.00    +0.002 A 
ATOM     10  C   UNL     1      -0.957  -6.054   2.066  0.00  0.00    +0.000 A 
ATOM     11  C   UNL     1      -0.025  -5.173   2.581  0.00  0.00    +0.002 A 
ATOM     12  C   UNL     1       0.197  -3.959   1.961  0.00  0.00    +0.028 A 
ENDBRANCH   5   7
BRANCH   4  13
ATOM     13  O   UNL     1      -0.335  -3.113  -2.114  0.00  0.00    -0.438 OA
BRANCH  13  14
ATOM     14  C   UNL     1      -1.552  -3.292  -2.693  0.00  0.00    +0.131 A 
ATOM     15  C   UNL     1      -2.653  -2.589  -2.226  0.00  0.00    +0.049 A 
ATOM     16  C   UNL     1      -3.889  -2.772  -2.816  0.00  0.00    +0.042 A 
ATOM     17  C   UNL     1      -4.028  -3.655  -3.873  0.00  0.00    +0.124 A 
ATOM     18  C   UNL     1      -2.930  -4.357  -4.340  0.00  0.00    +0.042 A 
ATOM     19  C   UNL     1      -1.692  -4.172  -3.756  0.00  0.00    +0.049 A 
ATOM     20  F   UNL     1      -5.237  -3.833  -4.449  0.00  0.00    -0.205 F 
ENDBRANCH  13  14
ENDBRANCH   4  13
BRANCH   3  21
ATOM     21  C   UNL     1       0.150  -0.149  -2.661  0.00  0.00    -0.036 C 
BRANCH  21  22
ATOM     22  N   UNL     1       1.514   0.385  -2.775  0.00  0.00    +0.386 N 
ATOM     23  H   UNL     1       1.775   0.828  -1.907  0.00  0.00    -0.081 HD
BRANCH  22  24
ATOM     24  C   UNL     1       2.446  -0.713  -3.064  0.00  0.00    -0.046 C 
BRANCH  24  25
ATOM     25  C   UNL     1       2.582  -1.606  -1.829  0.00  0.00    +0.102 C 
ATOM     26  C   UNL     1       3.719  -2.639  -2.035  0.00  0.00    +0.032 C 
ATOM     27  C   UNL     1       4.107  -2.946  -0.563  0.00  0.00    +0.030 C 
ATOM     28  C   UNL     1       3.883  -1.583   0.127  0.00  0.00    +0.160 C 
ATOM     29  O   UNL     1       2.982  -0.826  -0.692  0.00  0.00    -0.378 OA
ENDBRANCH  24  25
ENDBRANCH  22  24
BRANCH  22  30
ATOM     30  C   UNL     1       1.564   1.370  -3.864  0.00  0.00    -0.044 C 
BRANCH  30  31
ATOM     31  C   UNL     1       2.938   2.044  -3.878  0.00  0.00    +0.124 C 
BRANCH  31  32
ATOM     32  O   UNL     1       3.166   2.687  -2.623  0.00  0.00    -0.391 OA
ATOM     33  H   UNL     1       2.515   3.369  -2.407  0.00  0.00    +0.210 HD
ENDBRANCH  31  32
BRANCH  31  34
ATOM     34  C   UNL     1       2.984   3.083  -5.000  0.00  0.00    +0.189 C 
BRANCH  34  35
ATOM     35  O   UNL     1       4.301   3.629  -5.089  0.00  0.00    -0.373 OA
BRANCH  35  36
ATOM     36  C   UNL     1       4.454   4.615  -6.112  0.00  0.00    +0.186 C 
BRANCH  36  37
ATOM     37  C   UNL     1       5.873   5.120  -6.116  0.00  0.00    -0.007 C 
ATOM     38  C   UNL     1       6.516   5.258  -7.249  0.00  0.00    +0.006 C 
ENDBRANCH  36  37
ENDBRANCH  35  36
ENDBRANCH  34  35
ENDBRANCH  31  34
ENDBRANCH  30  31
ENDBRANCH  22  30
ENDBRANCH  21  22
ENDBRANCH   3  21
TORSDOF 14
