REMARK  Name = ZINC09479069
REMARK  7 active torsions:
REMARK  status: ('A' for Active; 'I' for Inactive)
REMARK    1  A    between atoms: C_1  and  C_2
REMARK    2  A    between atoms: C_2  and  C_4
REMARK    3  A    between atoms: C_2  and  N_41
REMARK    4  A    between atoms: C_7  and  O_11
REMARK    5  A    between atoms: O_11  and  C_12
REMARK    6  A    between atoms: C_13  and  C_14
REMARK    7  A    between atoms: C_13  and  N_41
REMARK                            x       y       z     vdW  Elec       q    Type
REMARK                         _______ _______ _______ _____ _____    ______ ____
ROOT
ATOM      1  C   UNL     1      -2.997   1.947   0.504  0.00  0.00    -0.006 C 
ENDROOT
BRANCH   1   2
ATOM      2  C   UNL     1      -4.399   1.394   0.537  0.00  0.00    +0.093 A 
ATOM      3  N   UNL     1      -5.374   2.069  -0.126  0.00  0.00    -0.312 N 
ATOM      4  H   UNL     1      -5.154   2.885  -0.603  0.00  0.00    +0.170 HD
ATOM      5  C   UNL     1      -6.649   1.615  -0.127  0.00  0.00    +0.259 A 
ATOM      6  O   UNL     1      -7.532   2.210  -0.717  0.00  0.00    -0.267 OA
ATOM      7  C   UNL     1      -6.925   0.374   0.612  0.00  0.00    +0.065 A 
ATOM      8  C   UNL     1      -8.203  -0.178   0.673  0.00  0.00    +0.017 A 
ATOM      9  C   UNL     1      -8.408  -1.334   1.374  0.00  0.00    +0.021 A 
ATOM     10  C   UNL     1      -7.354  -1.964   2.026  0.00  0.00    +0.043 A 
ATOM     11  C   UNL     1      -6.081  -1.438   1.981  0.00  0.00    +0.048 A 
ATOM     12  C   UNL     1      -5.848  -0.259   1.272  0.00  0.00    +0.079 A 
ATOM     13  N   UNL     1      -4.612   0.294   1.194  0.00  0.00    -0.236 NA
ATOM     14 CL   UNL     1      -7.646  -3.431   2.907  0.00  0.00    -0.083 Cl
ENDBRANCH   1   2
BRANCH   1  15
ATOM     15  N   UNL     1      -2.110   1.062   1.282  0.00  0.00    +0.388 N 
ATOM     16  H   UNL     1      -2.444   1.016   2.252  0.00  0.00    -0.084 HD
ATOM     17  H   UNL     1      -2.124   0.121   0.871  0.00  0.00    -0.084 HD
BRANCH  15  19
ATOM     18  C   UNL     1      -0.013   1.086   0.008  0.00  0.00    -0.009 C 
ATOM     19  C   UNL     1      -0.729   1.579   1.267  0.00  0.00    -0.043 C 
BRANCH  19  20
ATOM     20  C   UNL     1       0.000   1.080   2.488  0.00  0.00    -0.060 A 
ATOM     21  C   UNL     1      -0.200  -0.215   2.929  0.00  0.00    +0.005 A 
ATOM     22  C   UNL     1       0.471  -0.677   4.045  0.00  0.00    +0.047 A 
ATOM     23  C   UNL     1       1.337   0.163   4.729  0.00  0.00    +0.134 A 
ATOM     24  C   UNL     1       1.533   1.464   4.288  0.00  0.00    +0.060 A 
ATOM     25  C   UNL     1       0.863   1.919   3.167  0.00  0.00    +0.021 A 
ATOM     26 BR   UNL     1       2.713   2.612   5.217  0.00  0.00    -0.047 Br
BRANCH  23  27
ATOM     27  O   UNL     1       1.994  -0.288   5.831  0.00  0.00    -0.494 OA
ATOM     28  C   UNL     1       1.745  -1.638   6.228  0.00  0.00    +0.277 C 
ENDBRANCH  23  27
ENDBRANCH  19  20
ENDBRANCH  15  19
ENDBRANCH   1  15
TORSDOF 5
