REMARK  Name = ZINC20058211
REMARK  6 active torsions:
REMARK  status: ('A' for Active; 'I' for Inactive)
REMARK    1  A    between atoms: C_1  and  O_2
REMARK    2  A    between atoms: O_2  and  C_3
REMARK    3  A    between atoms: C_8  and  C_9
REMARK    4  A    between atoms: C_20  and  N_27
REMARK    5  A    between atoms: C_22  and  O_25
REMARK    6  A    between atoms: O_25  and  C_26
REMARK                            x       y       z     vdW  Elec       q    Type
REMARK                         _______ _______ _______ _____ _____    ______ ____
ROOT
ATOM      1  C   UNL     1      -1.787   4.274   0.435  0.00  0.00    +0.109 C 
ATOM      2  C   UNL     1      -0.744   3.222   0.746  0.00  0.00    +0.029 C 
ATOM      3  C   UNL     1       0.619   3.333   0.052  0.00  0.00    +0.033 C 
ATOM      4  C   UNL     1       1.055   1.866   0.002  0.00  0.00    -0.030 C 
ATOM      5  C   UNL     1      -0.013   1.076   0.008  0.00  0.00    -0.023 C 
ATOM      6  C   UNL     1      -1.229   1.926   0.018  0.00  0.00    +0.049 C 
ATOM      7  C   UNL     1      -2.485   1.511   0.680  0.00  0.00    -0.014 A 
ATOM      8  C   UNL     1      -2.830   0.181   0.813  0.00  0.00    +0.039 A 
ATOM      9  C   UNL     1      -4.016  -0.180   1.423  0.00  0.00    +0.130 A 
ATOM     10  C   UNL     1      -4.865   0.801   1.903  0.00  0.00    +0.080 A 
ATOM     11  C   UNL     1      -4.526   2.134   1.780  0.00  0.00    +0.143 A 
ATOM     12  C   UNL     1      -3.323   2.513   1.172  0.00  0.00    +0.074 A 
ATOM     13  N   UNL     1      -3.028   3.876   1.118  0.00  0.00    -0.334 N 
ATOM     14  H   UNL     1      -3.681   4.642   1.562  0.00  0.00    +0.147 HD
ENDROOT
BRANCH   1  20
ATOM     15  C   UNL     1      -1.175   4.994  -1.888  0.00  0.00    +0.125 A 
ATOM     16  C   UNL     1      -1.417   5.032  -3.253  0.00  0.00    +0.047 A 
ATOM     17  C   UNL     1      -2.526   4.396  -3.775  0.00  0.00    +0.019 A 
ATOM     18  C   UNL     1      -3.396   3.721  -2.937  0.00  0.00    +0.018 A 
ATOM     19  C   UNL     1      -3.153   3.677  -1.576  0.00  0.00    +0.024 A 
ATOM     20  C   UNL     1      -2.048   4.317  -1.049  0.00  0.00    +0.016 A 
ATOM     21 BR   UNL     1      -4.913   2.850  -3.654  0.00  0.00    -0.050 Br
BRANCH  15  23
ATOM     22  C   UNL     1       0.772   6.297  -2.295  0.00  0.00    +0.277 C 
ATOM     23  O   UNL     1      -0.084   5.620  -1.372  0.00  0.00    -0.495 OA
ENDBRANCH  15  23
ENDBRANCH   1  20
BRANCH   9  24
ATOM     24  N   UNL     1      -4.376  -1.609   1.561  0.00  0.00    +0.057 N 
ATOM     25  O   UNL     1      -3.627  -2.470   1.137  0.00  0.00    -0.126 OA
ATOM     26  O   UNL     1      -5.423  -1.923   2.099  0.00  0.00    -0.126 OA
ENDBRANCH   9  24
BRANCH  11  27
ATOM     27  O   UNL     1      -5.369   3.089   2.256  0.00  0.00    -0.493 OA
ATOM     28  C   UNL     1      -6.581   2.639   2.866  0.00  0.00    +0.277 C 
ENDBRANCH  11  27
TORSDOF 4
