REMARK  Name = ZINC21810704
REMARK  9 active torsions:
REMARK  status: ('A' for Active; 'I' for Inactive)
REMARK    1  A    between atoms: C_1  and  C_2
REMARK    2  A    between atoms: C_2  and  C_3
REMARK    3  A    between atoms: N_9  and  C_10
REMARK    4  A    between atoms: C_10  and  C_11
REMARK    5  A    between atoms: C_11  and  C_12
REMARK    6  A    between atoms: C_12  and  N_13
REMARK    7  A    between atoms: C_22  and  C_23
REMARK    8  A    between atoms: C_22  and  C_24
REMARK    9  A    between atoms: N_26  and  C_27
REMARK                            x       y       z     vdW  Elec       q    Type
REMARK                         _______ _______ _______ _____ _____    ______ ____
ROOT
ATOM      1  N   UNL     1      -4.628   1.735  -1.550  0.00  0.00    -0.281 N 
ATOM      2  C   UNL     1      -5.067   0.612  -2.166  0.00  0.00    +0.264 C 
ATOM      3  O   UNL     1      -4.300  -0.164  -2.707  0.00  0.00    -0.268 OA
ATOM      4  C   UNL     1      -6.514   0.376  -2.143  0.00  0.00    +0.109 A 
ATOM      5  C   UNL     1      -7.241  -0.724  -2.492  0.00  0.00    +0.079 A 
ATOM      6  C   UNL     1      -8.592  -0.428  -2.255  0.00  0.00    +0.153 A 
ATOM      7  C   UNL     1      -8.659   0.874  -1.761  0.00  0.00    +0.088 A 
ATOM      8  N   UNL     1      -7.390   1.365  -1.701  0.00  0.00    -0.331 N 
ATOM      9  C   UNL     1      -6.909   2.683  -1.275  0.00  0.00    +0.157 C 
ATOM     10  C   UNL     1      -5.498   2.541  -0.703  0.00  0.00    +0.128 C 
ATOM     11  C   UNL     1      -4.885   3.934  -0.547  0.00  0.00    +0.043 C 
ATOM     12  C   UNL     1     -10.031   1.136  -1.528  0.00  0.00    +0.067 A 
ATOM     13  C   UNL     1     -10.713   0.032  -1.879  0.00  0.00    +0.198 A 
ATOM     14  O   UNL     1      -9.854  -0.905  -2.316  0.00  0.00    -0.461 OA
ENDROOT
BRANCH  10  15
ATOM     15  C   UNL     1      -5.589   1.895   0.656  0.00  0.00    +0.238 C 
ATOM     16  O   UNL     1      -5.675   2.584   1.650  0.00  0.00    -0.273 OA
ATOM     17  N   UNL     1      -5.575   0.552   0.766  0.00  0.00    -0.311 N 
ATOM     18  H   UNL     1      -5.497  -0.073  -0.136  0.00  0.00    +0.149 HD
BRANCH  17  19
ATOM     19  C   UNL     1      -5.664  -0.076   2.087  0.00  0.00    +0.073 C 
ATOM     20  C   UNL     1      -4.268  -0.157   2.708  0.00  0.00    +0.022 C 
ATOM     21  C   UNL     1      -4.360  -0.812   4.087  0.00  0.00    +0.002 C 
ATOM     22  C   UNL     1      -4.937  -2.222   3.944  0.00  0.00    +0.000 C 
ATOM     23  C   UNL     1      -6.333  -2.141   3.324  0.00  0.00    +0.002 C 
ATOM     24  C   UNL     1      -6.241  -1.485   1.944  0.00  0.00    +0.022 C 
ENDBRANCH  17  19
ENDBRANCH  10  15
BRANCH   1  25
ATOM     25  C   UNL     1      -3.239   2.156  -1.746  0.00  0.00    +0.107 C 
BRANCH  25  26
ATOM     26  C   UNL     1      -2.357   1.525  -0.666  0.00  0.00    +0.000 C 
BRANCH  26  27
ATOM     27  C   UNL     1      -0.906   1.965  -0.871  0.00  0.00    -0.077 C 
BRANCH  27  33
ATOM     28  C   UNL     1       1.296   1.922   0.133  0.00  0.00    -0.069 C 
ATOM     29  C   UNL     1       2.104   1.377   1.313  0.00  0.00    -0.015 C 
ATOM     30  C   UNL     1       2.163  -0.150   1.224  0.00  0.00    -0.003 C 
ATOM     31  C   UNL     1       0.737  -0.708   1.211  0.00  0.00    -0.019 C 
ATOM     32  C   UNL     1      -0.031  -0.103   0.034  0.00  0.00    -0.078 C 
ATOM     33  N   UNL     1      -0.060   1.359   0.166  0.00  0.00    +0.382 N 
ATOM     34  H   UNL     1      -0.499   1.599   1.145  0.00  0.00    -0.081 HD
BRANCH  28  36
ATOM     35  C   UNL     1       2.628   4.036   0.151  0.00  0.00    +0.002 C 
ATOM     36  C   UNL     1       1.218   3.447   0.229  0.00  0.00    -0.019 C 
ENDBRANCH  28  36
ENDBRANCH  27  33
ENDBRANCH  26  27
ENDBRANCH  25  26
ENDBRANCH   1  25
TORSDOF 7
