REMARK  Name = ZINC36999126
REMARK  6 active torsions:
REMARK  status: ('A' for Active; 'I' for Inactive)
REMARK    1  A    between atoms: C_1  and  C_2
REMARK    2  A    between atoms: C_2  and  C_4
REMARK    3  A    between atoms: C_2  and  N_11
REMARK    4  A    between atoms: C_4  and  N_5
REMARK    5  A    between atoms: C_12  and  C_14
REMARK    6  A    between atoms: C_17  and  O_21
REMARK                            x       y       z     vdW  Elec       q    Type
REMARK                         _______ _______ _______ _____ _____    ______ ____
ROOT
ATOM      1  N   UNL     1       0.711  -0.489   1.189  0.00  0.00    -0.316 N 
ATOM      2  C   UNL     1       2.054  -0.600   1.174  0.00  0.00    +0.199 C 
ATOM      3  O   UNL     1       2.676  -0.297   0.177  0.00  0.00    -0.278 OA
ATOM      4  H   UNL     1       0.213  -0.731   1.986  0.00  0.00    +0.149 HD
ENDROOT
BRANCH   2   5
ATOM      5  C   UNL     1       2.783  -1.099   2.395  0.00  0.00    +0.018 C 
ATOM      6  C   UNL     1       2.744  -2.641   2.452  0.00  0.00    +0.023 C 
ATOM      7  C   UNL     1       4.125  -3.057   2.999  0.00  0.00    +0.097 C 
ATOM      8  C   UNL     1       4.882  -1.731   3.227  0.00  0.00    -0.050 C 
ATOM      9  N   UNL     1       4.227  -0.761   2.310  0.00  0.00    +0.388 N 
ATOM     10  H   UNL     1       4.564  -0.885   1.367  0.00  0.00    -0.085 HD
ATOM     11  H   UNL     1       4.386   0.185   2.622  0.00  0.00    -0.085 HD
BRANCH   7  12
ATOM     12  O   UNL     1       3.977  -3.765   4.232  0.00  0.00    -0.394 OA
ATOM     13  H   UNL     1       4.814  -4.051   4.624  0.00  0.00    +0.210 HD
ENDBRANCH   7  12
ENDBRANCH   2   5
BRANCH   1  15
ATOM     14  C   UNL     1      -0.019   1.526   0.010  0.00  0.00    +0.026 C 
ATOM     15  C   UNL     1       0.002  -0.004   0.002  0.00  0.00    +0.053 C 
BRANCH  15  16
ATOM     16  C   UNL     1      -1.433  -0.534   0.013  0.00  0.00    -0.057 C 
BRANCH  16  17
ATOM     17  N   UNL     1      -1.414  -1.998   0.126  0.00  0.00    +0.381 N 
ATOM     18  C   UNL     1      -0.789  -2.571  -1.072  0.00  0.00    -0.079 C 
ATOM     19  C   UNL     1      -0.693  -4.091  -0.924  0.00  0.00    -0.019 C 
ATOM     20  C   UNL     1      -2.099  -4.672  -0.753  0.00  0.00    -0.004 C 
ATOM     21  C   UNL     1      -2.770  -4.013   0.455  0.00  0.00    -0.019 C 
ATOM     22  C   UNL     1      -2.789  -2.495   0.256  0.00  0.00    -0.079 C 
ATOM     23  H   UNL     1      -0.882  -2.265   0.940  0.00  0.00    -0.082 HD
ENDBRANCH  16  17
ENDBRANCH  15  16
ENDBRANCH   1  15
TORSDOF 5
