REMARK  Name = ZINC35799211
REMARK  12 active torsions:
REMARK  status: ('A' for Active; 'I' for Inactive)
REMARK    1  A    between atoms: C_1  and  C_2
REMARK    2  A    between atoms: C_2  and  C_3
REMARK    3  A    between atoms: C_3  and  C_5
REMARK    4  A    between atoms: C_3  and  C_6
REMARK    5  A    between atoms: C_6  and  N_7
REMARK    6  A    between atoms: N_7  and  C_8
REMARK    7  A    between atoms: C_8  and  C_9
REMARK    8  A    between atoms: N_11  and  C_12
REMARK    9  A    between atoms: N_11  and  C_19
REMARK   10  A    between atoms: C_12  and  C_13
REMARK   11  A    between atoms: C_19  and  C_20
REMARK   12  A    between atoms: N_27  and  C_28
REMARK                            x       y       z     vdW  Elec       q    Type
REMARK                         _______ _______ _______ _____ _____    ______ ____
ROOT
ATOM      1  N   UNL     1       0.788  -1.251  -2.143  0.00  0.00    -0.276 N 
ATOM      2  C   UNL     1       0.253  -1.498  -3.356  0.00  0.00    +0.307 C 
ATOM      3  O   UNL     1       0.281  -0.641  -4.218  0.00  0.00    -0.252 OA
ATOM      4  N   UNL     1      -0.314  -2.693  -3.611  0.00  0.00    -0.267 N 
ATOM      5  H   UNL     1      -0.288  -3.396  -2.942  0.00  0.00    +0.156 HD
ENDROOT
BRANCH   4   6
ATOM      6  C   UNL     1      -0.942  -2.922  -4.842  0.00  0.00    +0.072 A 
ATOM      7  C   UNL     1      -0.290  -3.649  -5.831  0.00  0.00    +0.064 A 
ATOM      8  C   UNL     1      -0.912  -3.874  -7.045  0.00  0.00    +0.022 A 
ATOM      9  C   UNL     1      -2.181  -3.375  -7.276  0.00  0.00    +0.003 A 
ATOM     10  C   UNL     1      -2.832  -2.651  -6.294  0.00  0.00    +0.022 A 
ATOM     11  C   UNL     1      -2.219  -2.428  -5.076  0.00  0.00    +0.064 A 
ATOM     12 CL   UNL     1      -3.040  -1.524  -3.842  0.00  0.00    -0.082 Cl
ATOM     13 CL   UNL     1       1.303  -4.275  -5.542  0.00  0.00    -0.082 Cl
ENDBRANCH   4   6
BRANCH   1  14
ATOM     14  C   UNL     1       0.754  -2.283  -1.104  0.00  0.00    +0.113 C 
BRANCH  14  15
ATOM     15  C   UNL     1      -0.529  -2.137  -0.283  0.00  0.00    +0.003 C 
ATOM     16  C   UNL     1      -1.740  -2.421  -1.175  0.00  0.00    +0.009 C 
BRANCH  15  18
ATOM     17  C   UNL     1      -1.729  -2.903   1.770  0.00  0.00    +0.004 C 
ATOM     18  C   UNL     1      -0.507  -3.133   0.878  0.00  0.00    +0.001 C 
ENDBRANCH  15  18
ENDBRANCH  14  15
ENDBRANCH   1  14
BRANCH   1  19
ATOM     19  C   UNL     1       1.404   0.049  -1.866  0.00  0.00    +0.205 C 
BRANCH  19  20
ATOM     20  C   UNL     1       2.867  -0.002  -2.222  0.00  0.00    +0.234 C 
ATOM     21  O   UNL     1       3.348  -1.024  -2.665  0.00  0.00    -0.274 OA
ATOM     22  N   UNL     1       3.642   1.087  -2.049  0.00  0.00    -0.291 N 
BRANCH  22  23
ATOM     23  C   UNL     1       5.064   1.037  -2.396  0.00  0.00    +0.143 C 
BRANCH  23  24
ATOM     24  C   UNL     1       5.245   1.448  -3.835  0.00  0.00    -0.030 A 
ATOM     25  C   UNL     1       5.199   0.496  -4.836  0.00  0.00    +0.005 A 
ATOM     26  C   UNL     1       5.365   0.872  -6.156  0.00  0.00    +0.000 A 
ATOM     27  C   UNL     1       5.577   2.201  -6.474  0.00  0.00    +0.000 A 
ATOM     28  C   UNL     1       5.622   3.153  -5.473  0.00  0.00    +0.000 A 
ATOM     29  C   UNL     1       5.451   2.777  -4.154  0.00  0.00    +0.005 A 
ENDBRANCH  23  24
ENDBRANCH  22  23
BRANCH  22  30
ATOM     30  C   UNL     1       3.061   2.321  -1.515  0.00  0.00    +0.150 C 
BRANCH  30  31
ATOM     31  C   UNL     1       3.168   2.317  -0.011  0.00  0.00    +0.007 A 
ATOM     32  C   UNL     1       4.166   2.790   0.774  0.00  0.00    +0.013 A 
ATOM     33  C   UNL     1       4.049   2.678   2.147  0.00  0.00    +0.008 A 
ATOM     34  C   UNL     1       2.940   2.098   2.667  0.00  0.00    +0.045 A 
ATOM     35  S   UNL     1       2.011   1.694   1.197  0.00  0.00    -0.100 S 
ENDBRANCH  30  31
ENDBRANCH  22  30
ENDBRANCH  19  20
ENDBRANCH   1  19
TORSDOF 10
