REMARK  Name = ZINC06725305
REMARK  8 active torsions:
REMARK  status: ('A' for Active; 'I' for Inactive)
REMARK    1  A    between atoms: C_1  and  C_2
REMARK    2  A    between atoms: C_5  and  C_8
REMARK    3  A    between atoms: N_10  and  C_11
REMARK    4  A    between atoms: C_11  and  C_13
REMARK    5  A    between atoms: C_11  and  C_24
REMARK    6  A    between atoms: C_13  and  C_14
REMARK    7  A    between atoms: N_26  and  C_27
REMARK    8  A    between atoms: C_30  and  C_33
REMARK                            x       y       z     vdW  Elec       q    Type
REMARK                         _______ _______ _______ _____ _____    ______ ____
ROOT
ATOM      1  C   UNL     1       4.174   0.620   1.404  0.00  0.00    +0.163 C 
ENDROOT
BRANCH   1   4
ATOM      2  C   UNL     1       2.646   2.151   2.524  0.00  0.00    +0.217 C 
ATOM      3  O   UNL     1       1.831   1.254   2.576  0.00  0.00    -0.275 OA
ATOM      4  N   UNL     1       3.849   1.937   1.957  0.00  0.00    -0.303 N 
ATOM      5  H   UNL     1       4.501   2.654   1.916  0.00  0.00    +0.149 HD
BRANCH   2  10
ATOM      6  C   UNL     1       1.732   1.724   6.994  0.00  0.00    +0.007 C 
ATOM      7  C   UNL     1       1.812   2.777   5.886  0.00  0.00    -0.014 C 
ATOM      8  C   UNL     1       0.815   2.429   4.779  0.00  0.00    +0.004 C 
ATOM      9  C   UNL     1       0.895   3.482   3.672  0.00  0.00    +0.013 C 
ATOM     10  C   UNL     1       2.312   3.506   3.093  0.00  0.00    +0.075 C 
ATOM     11  C   UNL     1       3.309   3.854   4.200  0.00  0.00    +0.013 C 
ATOM     12  C   UNL     1       3.229   2.802   5.308  0.00  0.00    +0.004 C 
ENDBRANCH   2  10
ENDBRANCH   1   4
BRANCH   1  13
ATOM     13  C   UNL     1       5.669   0.430   1.402  0.00  0.00    +0.234 C 
ATOM     14  O   UNL     1       6.392   1.309   1.821  0.00  0.00    -0.274 OA
ATOM     15  N   UNL     1       6.202  -0.716   0.934  0.00  0.00    -0.311 N 
ATOM     16  H   UNL     1       5.624  -1.418   0.598  0.00  0.00    +0.149 HD
BRANCH  15  17
ATOM     17  C   UNL     1       7.656  -0.900   0.932  0.00  0.00    +0.073 C 
ATOM     18  C   UNL     1       8.247  -0.279  -0.335  0.00  0.00    +0.022 C 
ATOM     19  C   UNL     1       7.645  -0.960  -1.566  0.00  0.00    +0.005 C 
ATOM     20  C   UNL     1       7.969  -2.455  -1.531  0.00  0.00    -0.014 C 
ATOM     21  C   UNL     1       7.378  -3.076  -0.264  0.00  0.00    +0.005 C 
ATOM     22  C   UNL     1       7.980  -2.395   0.967  0.00  0.00    +0.022 C 
ATOM     23  C   UNL     1       7.367  -3.136  -2.762  0.00  0.00    +0.007 C 
ENDBRANCH  15  17
ENDBRANCH   1  13
BRANCH   1  24
ATOM     24  C   UNL     1       3.646   0.524  -0.029  0.00  0.00    +0.069 C 
BRANCH  24  25
ATOM     25  C   UNL     1       2.140   0.591  -0.015  0.00  0.00    -0.020 A 
ATOM     26  C   UNL     1       1.295  -0.452  -0.013  0.00  0.00    +0.087 A 
ATOM     27  N   UNL     1       0.002  -0.004   0.002  0.00  0.00    -0.360 N 
ATOM     28  H   UNL     1      -0.784  -0.572   0.006  0.00  0.00    +0.165 HD
ATOM     29  C   UNL     1      -0.017   1.373   0.010  0.00  0.00    +0.047 A 
ATOM     30  C   UNL     1       1.322   1.806  -0.001  0.00  0.00    +0.003 A 
ATOM     31  C   UNL     1       1.612   3.171   0.004  0.00  0.00    +0.010 A 
ATOM     32  C   UNL     1       0.593   4.082   0.019  0.00  0.00    +0.001 A 
ATOM     33  C   UNL     1      -0.729   3.659   0.029  0.00  0.00    +0.002 A 
ATOM     34  C   UNL     1      -1.038   2.317   0.029  0.00  0.00    +0.026 A 
ENDBRANCH  24  25
ENDBRANCH   1  24
TORSDOF 6
