REMARK  Name = ZINC38915604
REMARK  6 active torsions:
REMARK  status: ('A' for Active; 'I' for Inactive)
REMARK    1  A    between atoms: C_1  and  C_2
REMARK    2  A    between atoms: C_5  and  N_9
REMARK    3  A    between atoms: C_7  and  C_8
REMARK    4  A    between atoms: N_9  and  C_10
REMARK    5  A    between atoms: C_10  and  C_11
REMARK    6  A    between atoms: C_23  and  C_25
REMARK                            x       y       z     vdW  Elec       q    Type
REMARK                         _______ _______ _______ _____ _____    ______ ____
ROOT
ATOM      1  N   UNL     1      -0.190  -3.813  -0.592  0.00  0.00    -0.266 N 
ATOM      2  C   UNL     1       0.345  -4.623   0.344  0.00  0.00    +0.251 C 
ATOM      3  O   UNL     1       0.909  -4.146   1.309  0.00  0.00    -0.270 OA
ENDROOT
BRANCH   1   8
ATOM      4  C   UNL     1      -0.236   1.802   0.208  0.00  0.00    +0.044 C 
ATOM      5  C   UNL     1      -0.224   0.310  -0.005  0.00  0.00    -0.047 A 
ATOM      6  C   UNL     1      -0.894  -0.239  -1.083  0.00  0.00    +0.005 A 
ATOM      7  C   UNL     1      -0.885  -1.605  -1.280  0.00  0.00    +0.024 A 
ATOM      8  C   UNL     1      -0.201  -2.429  -0.395  0.00  0.00    +0.037 A 
ATOM      9  C   UNL     1       0.471  -1.875   0.686  0.00  0.00    +0.027 A 
ATOM     10  C   UNL     1       0.463  -0.506   0.875  0.00  0.00    -0.046 A 
ATOM     11  C   UNL     1       1.198   0.097   2.044  0.00  0.00    +0.044 C 
ENDBRANCH   1   8
BRANCH   2  12
ATOM     12  C   UNL     1       0.245  -6.090   0.196  0.00  0.00    +0.037 A 
ATOM     13  C   UNL     1       0.100  -6.659  -1.070  0.00  0.00    +0.013 A 
ATOM     14  C   UNL     1       0.008  -8.029  -1.201  0.00  0.00    +0.001 A 
ATOM     15  C   UNL     1       0.058  -8.839  -0.081  0.00  0.00    +0.000 A 
ATOM     16  C   UNL     1       0.201  -8.282   1.178  0.00  0.00    +0.001 A 
ATOM     17  C   UNL     1       0.301  -6.913   1.322  0.00  0.00    +0.013 A 
ENDBRANCH   2  12
BRANCH   1  18
ATOM     18  C   UNL     1      -0.759  -4.384  -1.815  0.00  0.00    +0.131 C 
BRANCH  18  19
ATOM     19  C   UNL     1       0.302  -4.390  -2.917  0.00  0.00    +0.116 C 
ATOM     20  C   UNL     1      -0.248  -5.181  -4.088  0.00  0.00    -0.003 C 
ATOM     21  C   UNL     1      -0.334  -4.541  -5.289  0.00  0.00    -0.007 A 
ATOM     22  C   UNL     1      -0.853  -5.230  -6.471  0.00  0.00    +0.009 A 
ATOM     23  C   UNL     1      -0.920  -4.553  -7.646  0.00  0.00    +0.001 A 
ATOM     24  C   UNL     1      -0.505  -3.224  -7.745  0.00  0.00    +0.002 A 
ATOM     25  C   UNL     1      -0.015  -2.530  -6.685  0.00  0.00    +0.024 A 
ATOM     26  C   UNL     1       0.096  -3.138  -5.421  0.00  0.00    +0.040 A 
ATOM     27  N   UNL     1       0.578  -2.447  -4.389  0.00  0.00    -0.284 N 
ATOM     28  C   UNL     1       0.709  -2.958  -3.177  0.00  0.00    +0.226 C 
ATOM     29  O   UNL     1       1.156  -2.276  -2.273  0.00  0.00    -0.275 OA
ATOM     30  H   UNL     1       0.845  -1.526  -4.534  0.00  0.00    +0.155 HD
ENDBRANCH  18  19
ENDBRANCH   1  18
TORSDOF 4
