REMARK  Name = ZINC15805393
REMARK  8 active torsions:
REMARK  status: ('A' for Active; 'I' for Inactive)
REMARK    1  A    between atoms: C_1  and  C_2
REMARK    2  A    between atoms: C_2  and  C_3
REMARK    3  A    between atoms: C_3  and  C_4
REMARK    4  A    between atoms: C_8  and  S_10
REMARK    5  A    between atoms: S_10  and  C_11
REMARK    6  A    between atoms: C_11  and  C_12
REMARK    7  A    between atoms: C_11  and  C_13
REMARK    8  A    between atoms: N_15  and  C_16
REMARK                            x       y       z     vdW  Elec       q    Type
REMARK                         _______ _______ _______ _____ _____    ______ ____
ROOT
ATOM      1  C   UNL     1      -1.091  -4.044  -5.343  0.00  0.00    +0.230 C 
ATOM      2  O   UNL     1      -0.772  -5.200  -5.530  0.00  0.00    -0.274 OA
ATOM      3  N   UNL     1      -1.445  -3.266  -6.385  0.00  0.00    -0.285 N 
ATOM      4  H   UNL     1      -1.764  -2.363  -6.229  0.00  0.00    +0.155 HD
ENDROOT
BRANCH   3   5
ATOM      5  C   UNL     1      -1.351  -3.760  -7.692  0.00  0.00    +0.035 A 
ATOM      6  C   UNL     1      -0.986  -2.911  -8.731  0.00  0.00    +0.025 A 
ATOM      7  C   UNL     1      -0.893  -3.393 -10.021  0.00  0.00    +0.029 A 
ATOM      8  C   UNL     1      -1.163  -4.727 -10.283  0.00  0.00    +0.067 A 
ATOM      9  C   UNL     1      -1.530  -5.583  -9.242  0.00  0.00    +0.069 A 
ATOM     10  C   UNL     1      -1.617  -5.098  -7.947  0.00  0.00    +0.051 A 
ATOM     11  N   UNL     1      -1.733  -6.840  -9.807  0.00  0.00    -0.306 N 
ATOM     12  H   UNL     1      -1.997  -7.641  -9.328  0.00  0.00    +0.170 HD
ATOM     13  C   UNL     1      -1.501  -6.754 -11.130  0.00  0.00    +0.325 A 
ATOM     14  O   UNL     1      -1.591  -7.677 -11.918  0.00  0.00    -0.247 OA
ATOM     15  N   UNL     1      -1.155  -5.492 -11.449  0.00  0.00    -0.306 N 
ATOM     16  H   UNL     1      -0.938  -5.171 -12.338  0.00  0.00    +0.170 HD
ENDBRANCH   3   5
BRANCH   1  17
ATOM     17  C   UNL     1      -1.092  -3.479  -3.946  0.00  0.00    +0.137 C 
ATOM     18  C   UNL     1       0.185  -2.667  -3.723  0.00  0.00    +0.029 C 
BRANCH  17  19
ATOM     19  S   UNL     1      -1.162  -4.837  -2.745  0.00  0.00    -0.075 S 
BRANCH  19  24
ATOM     20  C   UNL     1      -1.442  -2.051   0.007  0.00  0.00    +0.049 A 
ATOM     21  C   UNL     1      -1.524  -2.742   1.181  0.00  0.00    +0.093 A 
ATOM     22  C   UNL     1      -1.493  -4.147   1.146  0.00  0.00    +0.252 A 
ATOM     23  N   UNL     1      -1.383  -4.765  -0.050  0.00  0.00    -0.302 N 
ATOM     24  C   UNL     1      -1.306  -4.023  -1.189  0.00  0.00    +0.170 A 
ATOM     25  N   UNL     1      -1.341  -2.705  -1.148  0.00  0.00    -0.228 NA
ATOM     26  O   UNL     1      -1.563  -4.796   2.177  0.00  0.00    -0.268 OA
ATOM     27  H   UNL     1      -1.360  -5.733  -0.097  0.00  0.00    +0.171 HD
BRANCH  20  28
ATOM     28  C   UNL     1      -1.473  -0.544   0.017  0.00  0.00    +0.055 C 
BRANCH  28  30
ATOM     29  C   UNL     1      -0.073   1.525   0.023  0.00  0.00    +0.004 C 
ATOM     30  C   UNL     1      -0.041  -0.005   0.012  0.00  0.00    +0.003 C 
ENDBRANCH  28  30
ENDBRANCH  20  28
ENDBRANCH  19  24
ENDBRANCH  17  19
ENDBRANCH   1  17
TORSDOF 6
