REMARK  Name = ZINC40552378
REMARK  7 active torsions:
REMARK  status: ('A' for Active; 'I' for Inactive)
REMARK    1  A    between atoms: C_1  and  C_2
REMARK    2  A    between atoms: C_5  and  C_22
REMARK    3  A    between atoms: N_12  and  CA_13
REMARK    4  A    between atoms: CA_13  and  CB_15
REMARK    5  A    between atoms: CA_13  and  C_19
REMARK    6  A    between atoms: CB_15  and  CG2_17
REMARK    7  A    between atoms: CB_15  and  OG1_18
REMARK                            x       y       z     vdW  Elec       q    Type
REMARK                         _______ _______ _______ _____ _____    ______ ____
ROOT
ATOM      1  C   UNK A   0      -0.017   1.530   0.020  0.00  0.00    +0.009 C 
ATOM      2  C   UNK A   0       0.005  -0.000   0.006  0.00  0.00    +0.004 C 
ATOM      3  C   UNK A   0      -1.431  -0.531   0.013  0.00  0.00    +0.009 C 
ATOM      4  C   UNK A   0      -1.411  -2.061  -0.033  0.00  0.00    +0.004 C 
ATOM      5  C   UNK A   0      -0.691  -2.596   1.209  0.00  0.00    +0.112 C 
ATOM      6  N   UNK A   0       0.639  -1.977   1.288  0.00  0.00    -0.285 N 
ATOM      7  C   UNK A   0       0.741  -0.512   1.248  0.00  0.00    +0.112 C 
ATOM      8  C   UNK A   0       1.746  -2.740   1.395  0.00  0.00    +0.303 C 
ATOM      9  O   UNK A   0       2.845  -2.222   1.364  0.00  0.00    -0.253 OA
ATOM     10  N   THR A   1       1.633  -4.075   1.536  0.00  0.00    -0.284 N 
ATOM     11  C   UNK A   0      -2.846  -2.589  -0.060  0.00  0.00    +0.009 C 
ATOM     12  H   THR A   1       0.760  -4.496   1.489  0.00  0.00    +0.151 HD
ENDROOT
BRANCH  10  13
ATOM     13  CA  THR A   1       2.828  -4.891   1.762  0.00  0.00    +0.216 C 
BRANCH  13  14
ATOM     14  C   THR A   1       3.462  -5.230   0.438  0.00  0.00    +0.378 C 
ATOM     15  O   THR A   1       4.668  -5.397   0.364  0.00  0.00    -0.244 OA
ATOM     16  OXT THR A   1       2.770  -5.338  -0.560  0.00  0.00    -0.244 OA
ENDBRANCH  13  14
BRANCH  13  17
ATOM     17  CB  THR A   1       2.436  -6.181   2.485  0.00  0.00    +0.143 C 
ATOM     18  CG2 THR A   1       1.681  -5.837   3.770  0.00  0.00    +0.040 C 
BRANCH  17  19
ATOM     19  OG1 THR A   1       1.597  -6.967   1.636  0.00  0.00    -0.390 OA
ATOM     20  HG1 THR A   1       1.309  -7.801   2.030  0.00  0.00    +0.210 HD
ENDBRANCH  17  19
ENDBRANCH  13  17
ENDBRANCH  10  13
TORSDOF 4
