REMARK  Name = ZINC63830772
REMARK  8 active torsions:
REMARK  status: ('A' for Active; 'I' for Inactive)
REMARK    1  A    between atoms: C_1  and  O_2
REMARK    2  A    between atoms: O_2  and  C_3
REMARK    3  A    between atoms: C_6  and  C_9
REMARK    4  A    between atoms: C_9  and  C_11
REMARK    5  A    between atoms: C_9  and  C_27
REMARK    6  A    between atoms: C_11  and  N_12
REMARK    7  A    between atoms: N_12  and  S_13
REMARK    8  A    between atoms: S_13  and  C_16
REMARK                            x       y       z     vdW  Elec       q    Type
REMARK                         _______ _______ _______ _____ _____    ______ ____
ROOT
ATOM      1  C   UNL     1       2.505  -2.503  -4.381  0.00  0.00    +0.063 C 
ENDROOT
BRANCH   1   2
ATOM      2  C   UNL     1       1.505  -3.369  -5.104  0.00  0.00    -0.033 C 
ATOM      3  C   UNL     1       1.118  -3.260  -6.396  0.00  0.00    -0.000 A 
ATOM      4  C   UNL     1       1.498  -2.337  -7.473  0.00  0.00    +0.010 A 
ATOM      5  C   UNL     1       0.925  -2.479  -8.690  0.00  0.00    +0.001 A 
ATOM      6  C   UNL     1      -0.019  -3.482  -8.948  0.00  0.00    +0.002 A 
ATOM      7  C   UNL     1      -0.418  -4.367  -8.010  0.00  0.00    +0.026 A 
ATOM      8  C   UNL     1       0.119  -4.311  -6.694  0.00  0.00    +0.043 A 
ATOM      9  N   UNL     1      -0.103  -5.041  -5.629  0.00  0.00    -0.380 N 
ATOM     10  C   UNL     1       0.735  -4.539  -4.534  0.00  0.00    +0.145 C 
ATOM     11  H   UNL     1      -0.716  -5.791  -5.574  0.00  0.00    +0.160 HD
ENDBRANCH   1   2
BRANCH   1  15
ATOM     12  C   UNL     1       0.606  -0.607  -1.056  0.00  0.00    +0.120 A 
ATOM     13  C   UNL     1       1.173   0.161  -2.062  0.00  0.00    +0.046 A 
ATOM     14  C   UNL     1       1.786  -0.455  -3.136  0.00  0.00    +0.008 A 
ATOM     15  C   UNL     1       1.835  -1.835  -3.209  0.00  0.00    -0.039 A 
ATOM     16  C   UNL     1       1.270  -2.602  -2.207  0.00  0.00    +0.008 A 
ATOM     17  C   UNL     1       0.661  -1.992  -1.128  0.00  0.00    +0.046 A 
BRANCH  12  19
ATOM     18  C   UNL     1      -0.017   1.425   0.010  0.00  0.00    +0.277 C 
ATOM     19  O   UNL     1       0.002  -0.004   0.002  0.00  0.00    -0.495 OA
ENDBRANCH  12  19
ENDBRANCH   1  15
BRANCH   1  20
ATOM     20  C   UNL     1       3.662  -3.370  -3.882  0.00  0.00    +0.118 C 
BRANCH  20  21
ATOM     21  N   UNL     1       4.387  -3.925  -5.028  0.00  0.00    -0.189 NA
ATOM     22  H   UNL     1       3.987  -3.904  -5.911  0.00  0.00    +0.148 HD
BRANCH  21  23
ATOM     23  S   UNL     1       5.889  -4.589  -4.815  0.00  0.00    +0.058 S 
ATOM     24  O   UNL     1       6.311  -5.056  -6.089  0.00  0.00    -0.153 OA
ATOM     25  O   UNL     1       6.644  -3.651  -4.059  0.00  0.00    -0.153 OA
BRANCH  23  26
ATOM     26  C   UNL     1       5.690  -6.013  -3.797  0.00  0.00    +0.106 A 
ATOM     27  C   UNL     1       5.767  -5.894  -2.421  0.00  0.00    +0.030 A 
ATOM     28  C   UNL     1       5.611  -7.008  -1.620  0.00  0.00    +0.025 A 
ATOM     29  C   UNL     1       5.377  -8.248  -2.197  0.00  0.00    +0.037 A 
ATOM     30  C   UNL     1       5.300  -8.365  -3.579  0.00  0.00    -0.024 A 
ATOM     31  C   UNL     1       5.452  -7.246  -4.375  0.00  0.00    +0.034 A 
ATOM     32  C   UNL     1       5.045  -9.711  -4.205  0.00  0.00    +0.046 C 
ATOM     33  C   UNL     1       5.711 -10.800  -3.364  0.00  0.00    +0.101 C 
ATOM     34  C   UNL     1       5.360 -10.613  -1.912  0.00  0.00    +0.218 C 
ATOM     35  O   UNL     1       5.205 -11.585  -1.203  0.00  0.00    -0.275 OA
ATOM     36  N   UNL     1       5.218  -9.380  -1.392  0.00  0.00    -0.285 N 
ATOM     37  H   UNL     1       5.003  -9.276  -0.452  0.00  0.00    +0.155 HD
ENDBRANCH  23  26
ENDBRANCH  21  23
ENDBRANCH  20  21
ENDBRANCH   1  20
TORSDOF 7
