REMARK  Name = ZINC22832459
REMARK  9 active torsions:
REMARK  status: ('A' for Active; 'I' for Inactive)
REMARK    1  A    between atoms: C_1  and  C_2
REMARK    2  A    between atoms: C_4  and  C_13
REMARK    3  A    between atoms: C_5  and  C_12
REMARK    4  A    between atoms: C_13  and  C_15
REMARK    5  A    between atoms: C_15  and  N_16
REMARK    6  A    between atoms: N_16  and  C_17
REMARK    7  A    between atoms: N_16  and  S_23
REMARK    8  A    between atoms: C_17  and  C_18
REMARK    9  A    between atoms: S_23  and  C_26
REMARK                            x       y       z     vdW  Elec       q    Type
REMARK                         _______ _______ _______ _____ _____    ______ ____
ROOT
ATOM      1  N   UNL     1      -1.939  -1.161  -1.569  0.00  0.00    -0.162 NA
ENDROOT
BRANCH   1   2
ATOM      2  S   UNL     1      -1.505  -0.916   0.011  0.00  0.00    +0.063 S 
ATOM      3  O   UNL     1      -1.203  -2.195   0.552  0.00  0.00    -0.153 OA
ATOM      4  O   UNL     1      -2.493  -0.064   0.575  0.00  0.00    -0.153 OA
BRANCH   2   5
ATOM      5  C   UNL     1       0.002  -0.004   0.002  0.00  0.00    +0.124 A 
ATOM      6  C   UNL     1      -0.017   1.383   0.010  0.00  0.00    +0.033 A 
ATOM      7  C   UNL     1       1.193   2.059   0.002  0.00  0.00    +0.042 A 
ATOM      8  C   UNL     1       2.371   1.333  -0.013  0.00  0.00    +0.129 A 
ATOM      9  N   UNL     1       2.350   0.014  -0.020  0.00  0.00    -0.242 NA
ATOM     10  C   UNL     1       1.217  -0.661  -0.013  0.00  0.00    +0.141 A 
ATOM     11 CL   UNL     1       3.893   2.168  -0.024  0.00  0.00    -0.062 Cl
ENDBRANCH   2   5
ENDBRANCH   1   2
BRANCH   1  12
ATOM     12  C   UNL     1      -2.787  -0.184  -2.255  0.00  0.00    +0.189 C 
BRANCH  12  13
ATOM     13  C   UNL     1      -1.921   0.784  -3.019  0.00  0.00    +0.180 C 
ATOM     14  O   UNL     1      -0.714   0.669  -2.992  0.00  0.00    -0.291 OA
BRANCH  13  18
ATOM     15  C   UNL     1      -5.363   3.875  -5.155  0.00  0.00    +0.064 C 
ATOM     16  C   UNL     1      -4.074   3.221  -4.730  0.00  0.00    +0.023 A 
ATOM     17  C   UNL     1      -3.973   2.141  -3.938  0.00  0.00    +0.034 A 
ATOM     18  C   UNL     1      -2.537   1.863  -3.793  0.00  0.00    +0.040 A 
ATOM     19  C   UNL     1      -1.887   2.826  -4.542  0.00  0.00    +0.033 A 
ATOM     20  N   UNL     1      -2.820   3.628  -5.094  0.00  0.00    -0.296 N 
ATOM     21  C   UNL     1      -2.545   4.717  -5.919  0.00  0.00    +0.178 A 
ATOM     22  N   UNL     1      -1.377   5.182  -6.316  0.00  0.00    -0.231 NA
ATOM     23  C   UNL     1      -1.292   6.231  -7.108  0.00  0.00    +0.121 A 
ATOM     24  C   UNL     1      -2.439   6.837  -7.504  0.00  0.00    +0.068 A 
ATOM     25  S   UNL     1      -3.653   5.814  -6.683  0.00  0.00    -0.058 S 
ATOM     26  C   UNL     1      -0.396   2.957  -4.711  0.00  0.00    +0.064 C 
ENDBRANCH  13  18
ENDBRANCH  12  13
ENDBRANCH   1  12
BRANCH   1  27
ATOM     27  C   UNL     1      -1.474  -2.355  -2.279  0.00  0.00    +0.184 C 
BRANCH  27  28
ATOM     28  C   UNL     1      -2.527  -3.430  -2.199  0.00  0.00    +0.120 A 
ATOM     29  C   UNL     1      -3.527  -3.618  -3.079  0.00  0.00    +0.046 A 
ATOM     30  C   UNL     1      -4.273  -4.728  -2.620  0.00  0.00    +0.041 A 
ATOM     31  C   UNL     1      -3.683  -5.152  -1.488  0.00  0.00    +0.195 A 
ATOM     32  O   UNL     1      -2.623  -4.366  -1.240  0.00  0.00    -0.466 OA
ENDBRANCH  27  28
ENDBRANCH   1  27
TORSDOF 7
