REMARK  Name = ZINC12329486
REMARK  8 active torsions:
REMARK  status: ('A' for Active; 'I' for Inactive)
REMARK    1  A    between atoms: C_1  and  C_2
REMARK    2  A    between atoms: C_5  and  C_9
REMARK    3  A    between atoms: C_7  and  C_8
REMARK    4  A    between atoms: C_9  and  C_11
REMARK    5  A    between atoms: C_9  and  O_29
REMARK    6  A    between atoms: C_11  and  N_57
REMARK    7  A    between atoms: C_18  and  O_28
REMARK    8  A    between atoms: C_22  and  O_27
REMARK                            x       y       z     vdW  Elec       q    Type
REMARK                         _______ _______ _______ _____ _____    ______ ____
ROOT
ATOM      1  C   UNL     1       1.397   1.508   2.423  0.00  0.00    -0.075 C 
ATOM      2  C   UNL     1       2.108   0.969   3.667  0.00  0.00    +0.029 C 
ATOM      3  C   UNL     1       1.498   1.608   4.916  0.00  0.00    +0.110 C 
ATOM      4  C   UNL     1      -0.004   1.321   4.953  0.00  0.00    +0.029 C 
ATOM      5  C   UNL     1      -0.652   1.850   3.671  0.00  0.00    -0.075 C 
ATOM      6  C   UNL     1       2.162   1.022   6.166  0.00  0.00    +0.084 C 
ATOM      7  C   UNL     1       3.675   1.225   6.048  0.00  0.00    +0.152 C 
ATOM      8  C   UNL     1       3.966   2.653   5.658  0.00  0.00    +0.026 A 
ATOM      9  C   UNL     1       5.243   3.149   5.857  0.00  0.00    +0.055 A 
ATOM     10  C   UNL     1       5.549   4.453   5.502  0.00  0.00    +0.117 A 
ATOM     11  C   UNL     1       4.572   5.264   4.944  0.00  0.00    +0.049 A 
ATOM     12  C   UNL     1       3.299   4.771   4.747  0.00  0.00    +0.049 A 
ATOM     13  C   UNL     1       2.990   3.462   5.105  0.00  0.00    +0.127 A 
ATOM     14  O   UNL     1       1.722   3.017   4.898  0.00  0.00    -0.485 OA
ATOM     15  N   UNL     1      -0.041   1.171   2.509  0.00  0.00    +0.382 N 
ATOM     16  H   UNL     1      -0.138   0.156   2.627  0.00  0.00    -0.082 HD
ENDROOT
BRANCH  10  17
ATOM     17  O   UNL     1       6.805   4.936   5.699  0.00  0.00    -0.507 OA
ATOM     18  H   UNL     1       6.936   5.350   6.563  0.00  0.00    +0.292 HD
ENDBRANCH  10  17
BRANCH   7  19
ATOM     19  O   UNL     1       4.292   0.941   7.305  0.00  0.00    -0.387 OA
ATOM     20  H   UNL     1       5.253   1.046   7.305  0.00  0.00    +0.210 HD
ENDBRANCH   7  19
BRANCH  15  21
ATOM     21  C   UNL     1      -0.729   1.579   1.267  0.00  0.00    -0.042 C 
BRANCH  21  22
ATOM     22  C   UNL     1      -2.152   1.017   1.285  0.00  0.00    +0.128 C 
BRANCH  22  27
ATOM     23  C   UNL     1      -4.853   2.453  -3.617  0.00  0.00    +0.044 C 
ATOM     24  C   UNL     1      -4.148   2.079  -2.339  0.00  0.00    -0.048 A 
ATOM     25  C   UNL     1      -3.349   0.952  -2.295  0.00  0.00    +0.004 A 
ATOM     26  C   UNL     1      -2.698   0.611  -1.124  0.00  0.00    +0.006 A 
ATOM     27  C   UNL     1      -2.856   1.391   0.007  0.00  0.00    -0.021 A 
ATOM     28  C   UNL     1      -3.656   2.518  -0.037  0.00  0.00    +0.009 A 
ATOM     29  C   UNL     1      -4.302   2.862  -1.210  0.00  0.00    -0.047 A 
ATOM     30  C   UNL     1      -5.173   4.090  -1.258  0.00  0.00    +0.044 C 
ENDBRANCH  22  27
BRANCH  22  31
ATOM     31  O   UNL     1      -2.100  -0.406   1.401  0.00  0.00    -0.389 OA
ATOM     32  H   UNL     1      -1.630  -0.843   0.677  0.00  0.00    +0.210 HD
ENDBRANCH  22  31
ENDBRANCH  21  22
ENDBRANCH  15  21
TORSDOF 6
