REMARK  Name = ZINC05713580
REMARK  11 active torsions:
REMARK  status: ('A' for Active; 'I' for Inactive)
REMARK    1  A    between atoms: C_1  and  C_2
REMARK    2  A    between atoms: C_2  and  C_3
REMARK    3  A    between atoms: C_2  and  C_4
REMARK    4  A    between atoms: C_2  and  C_5
REMARK    5  A    between atoms: C_5  and  O_7
REMARK    6  A    between atoms: O_7  and  C_8
REMARK    7  A    between atoms: C_8  and  C_9
REMARK    8  A    between atoms: C_11  and  O_27
REMARK    9  A    between atoms: C_13  and  O_26
REMARK   10  A    between atoms: C_15  and  N_18
REMARK   11  A    between atoms: C_24  and  O_25
REMARK                            x       y       z     vdW  Elec       q    Type
REMARK                         _______ _______ _______ _____ _____    ______ ____
ROOT
ATOM      1  C   UNL     1       1.351   1.878  -0.001  0.00  0.00    +0.189 C 
ATOM      2  C   UNL     1       2.183   0.767  -0.671  0.00  0.00    +0.179 C 
ATOM      3  C   UNL     1       1.151  -0.345  -0.981  0.00  0.00    +0.195 C 
ATOM      4  C   UNL     1       0.002  -0.004   0.002  0.00  0.00    +0.253 C 
ATOM      5  O   UNL     1      -0.018   1.440   0.010  0.00  0.00    -0.345 OA
ENDROOT
BRANCH   4   6
ATOM      6  N   UNL     1      -1.272  -0.535  -0.490  0.00  0.00    -0.290 N 
ATOM      7  C   UNL     1      -2.056   0.243  -1.282  0.00  0.00    +0.095 A 
ATOM      8  C   UNL     1      -3.231  -0.218  -1.754  0.00  0.00    +0.069 A 
ATOM      9  C   UNL     1      -3.655  -1.526  -1.410  0.00  0.00    +0.185 A 
ATOM     10  O   UNL     1      -4.720  -1.964  -1.822  0.00  0.00    -0.288 OA
ATOM     11  C   UNL     1      -2.828  -2.310  -0.584  0.00  0.00    +0.116 A 
ATOM     12  C   UNL     1      -1.649  -1.793  -0.140  0.00  0.00    +0.198 A 
BRANCH  12  13
ATOM     13  O   UNL     1      -0.846  -2.538   0.653  0.00  0.00    -0.493 OA
ATOM     14  H   UNL     1      -1.022  -2.434   1.599  0.00  0.00    +0.294 HD
ENDBRANCH  12  13
ENDBRANCH   4   6
BRANCH   3  15
ATOM     15  O   UNL     1       0.704  -0.263  -2.336  0.00  0.00    -0.385 OA
ATOM     16  H   UNL     1       1.388  -0.468  -2.988  0.00  0.00    +0.210 HD
ENDBRANCH   3  15
BRANCH   2  17
ATOM     17  O   UNL     1       3.186   0.284   0.224  0.00  0.00    -0.386 OA
ATOM     18  H   UNL     1       3.701  -0.456  -0.126  0.00  0.00    +0.210 HD
ENDBRANCH   2  17
BRANCH   1  19
ATOM     19  C   UNL     1       1.476   3.176  -0.801  0.00  0.00    +0.266 C 
BRANCH  19  20
ATOM     20  O   UNL     1       0.773   4.241  -0.108  0.00  0.00    -0.462 OA
BRANCH  20  21
ATOM     21  C   UNL     1       0.786   5.454  -0.682  0.00  0.00    +0.313 C 
ATOM     22  O   UNL     1       1.365   5.621  -1.729  0.00  0.00    -0.250 OA
BRANCH  21  24
ATOM     23  C   UNL     1       0.245   7.867  -0.875  0.00  0.00    +0.022 C 
ATOM     24  C   UNL     1       0.078   6.608  -0.021  0.00  0.00    +0.059 C 
ATOM     25  C   UNL     1      -1.410   6.281   0.119  0.00  0.00    +0.022 C 
ATOM     26  C   UNL     1       0.679   6.849   1.365  0.00  0.00    +0.022 C 
ENDBRANCH  21  24
ENDBRANCH  20  21
ENDBRANCH  19  20
ENDBRANCH   1  19
TORSDOF 8
