REMARK  Name = ZINC01069581
REMARK  2 active torsions:
REMARK  status: ('A' for Active; 'I' for Inactive)
REMARK    1  A    between atoms: C_9  and  C_19
REMARK    2  A    between atoms: C_24  and  C_25
REMARK                            x       y       z     vdW  Elec       q    Type
REMARK                         _______ _______ _______ _____ _____    ______ ____
ROOT
ATOM      1  C   UNL     1      -3.939   4.528   2.451  0.00  0.00    +0.020 A 
ATOM      2  C   UNL     1      -3.401   4.954   1.270  0.00  0.00    +0.012 A 
ATOM      3  C   UNL     1      -4.016   6.036   0.612  0.00  0.00    +0.006 A 
ATOM      4  C   UNL     1      -5.159   6.636   1.196  0.00  0.00    +0.071 A 
ATOM      5  C   UNL     1      -5.777   7.718   0.543  0.00  0.00    +0.030 A 
ATOM      6  C   UNL     1      -5.278   8.174  -0.636  0.00  0.00    +0.025 A 
ATOM      7  C   UNL     1      -4.150   7.582  -1.220  0.00  0.00    +0.036 A 
ATOM      8  C   UNL     1      -3.515   6.527  -0.607  0.00  0.00    -0.005 A 
ATOM      9  C   UNL     1      -2.302   5.896  -1.228  0.00  0.00    +0.090 C 
ATOM     10  C   UNL     1      -2.199   6.230  -2.694  0.00  0.00    +0.024 C 
ATOM     11  C   UNL     1      -2.869   7.278  -3.221  0.00  0.00    +0.016 C 
ATOM     12  N   UNL     1      -3.663   8.064  -2.436  0.00  0.00    -0.317 N 
ATOM     13  C   UNL     1      -2.768   7.609  -4.690  0.00  0.00    +0.051 C 
ATOM     14  C   UNL     1      -1.396   7.188  -5.220  0.00  0.00    +0.014 C 
ATOM     15  C   UNL     1      -1.218   5.687  -4.968  0.00  0.00    +0.080 C 
ATOM     16  C   UNL     1      -1.382   5.417  -3.498  0.00  0.00    +0.162 C 
ATOM     17  O   UNL     1      -0.798   4.477  -2.995  0.00  0.00    -0.292 OA
ATOM     18  N   UNL     1      -5.635   6.169   2.354  0.00  0.00    -0.255 NA
ATOM     19  C   UNL     1      -5.065   5.162   2.970  0.00  0.00    +0.111 A 
ATOM     20  H   UNL     1      -3.889   8.962  -2.724  0.00  0.00    +0.152 HD
ENDROOT
BRANCH   9  21
ATOM     21  C   UNL     1      -1.070   6.398  -0.521  0.00  0.00    +0.010 A 
ATOM     22  C   UNL     1      -0.058   5.636  -0.050  0.00  0.00    +0.110 A 
ATOM     23  N   UNL     1       0.853   6.457   0.516  0.00  0.00    -0.284 N 
ATOM     24  H   UNL     1       1.708   6.175   0.951  0.00  0.00    +0.188 HD
ATOM     25  N   UNL     1       0.393   7.774   0.387  0.00  0.00    -0.174 NA
ATOM     26  C   UNL     1      -0.768   7.743  -0.232  0.00  0.00    +0.097 A 
BRANCH  26  27
ATOM     27  C   UNL     1      -1.608   8.918  -0.573  0.00  0.00    +0.003 A 
ATOM     28  C   UNL     1      -2.541   9.399   0.344  0.00  0.00    +0.013 A 
ATOM     29  C   UNL     1      -3.319  10.493   0.023  0.00  0.00    +0.039 A 
ATOM     30  C   UNL     1      -3.175  11.112  -1.208  0.00  0.00    +0.123 A 
ATOM     31  C   UNL     1      -2.252  10.633  -2.124  0.00  0.00    +0.039 A 
ATOM     32  C   UNL     1      -1.466   9.544  -1.810  0.00  0.00    +0.013 A 
ATOM     33  F   UNL     1      -3.939  12.182  -1.517  0.00  0.00    -0.205 F 
ENDBRANCH  26  27
ENDBRANCH   9  21
TORSDOF 2
