REMARK  Name = ZINC04427622
REMARK  11 active torsions:
REMARK  status: ('A' for Active; 'I' for Inactive)
REMARK    1  A    between atoms: C_1  and  C_2
REMARK    2  A    between atoms: C_6  and  C_29
REMARK    3  A    between atoms: C_6  and  C_30
REMARK    4  A    between atoms: C_13  and  C_15
REMARK    5  A    between atoms: C_15  and  C_16
REMARK    6  A    between atoms: C_16  and  C_17
REMARK    7  A    between atoms: C_21  and  C_22
REMARK    8  A    between atoms: C_22  and  N_74
REMARK    9  A    between atoms: C_23  and  N_74
REMARK   10  A    between atoms: C_30  and  O_32
REMARK   11  A    between atoms: O_32  and  C_33
REMARK                            x       y       z     vdW  Elec       q    Type
REMARK                         _______ _______ _______ _____ _____    ______ ____
ROOT
ATOM      1  C   UNL     1       1.349  -1.977   1.060  0.00  0.00    +0.012 C 
ATOM      2  C   UNL     1       0.985  -0.484   1.153  0.00  0.00    -0.022 C 
ATOM      3  C   UNL     1       0.563  -0.174   2.590  0.00  0.00    +0.007 C 
ATOM      4  C   UNL     1      -0.726  -0.918   2.934  0.00  0.00    +0.002 C 
ATOM      5  C   UNL     1      -1.838  -0.484   1.986  0.00  0.00    +0.018 C 
ATOM      6  C   UNL     1      -1.468  -0.741   0.528  0.00  0.00    +0.068 C 
ATOM      7  C   UNL     1      -0.119  -0.115   0.174  0.00  0.00    +0.012 C 
ATOM      8  C   UNL     1      -0.304   1.406   0.105  0.00  0.00    +0.009 C 
ATOM      9  C   UNL     1       0.990   2.101  -0.337  0.00  0.00    +0.031 C 
ATOM     10  C   UNL     1       2.068   1.717   0.649  0.00  0.00    -0.073 C 
ATOM     11  C   UNL     1       2.765   2.629   1.280  0.00  0.00    +0.008 C 
ATOM     12  C   UNL     1       2.305   0.248   0.870  0.00  0.00    +0.021 C 
ATOM     13  C   UNL     1      -1.519  -2.242   0.228  0.00  0.00    +0.023 C 
ENDROOT
BRANCH   6  14
ATOM     14  C   UNL     1      -2.564  -0.123  -0.329  0.00  0.00    +0.313 C 
ATOM     15  O   UNL     1      -3.529   0.383   0.195  0.00  0.00    -0.250 OA
BRANCH  14  16
ATOM     16  O   UNL     1      -2.460  -0.140  -1.667  0.00  0.00    -0.468 OA
ATOM     17  C   UNL     1      -3.542   0.468  -2.421  0.00  0.00    +0.280 C 
ENDBRANCH  14  16
ENDBRANCH   6  14
BRANCH  12  18
ATOM     18  C   UNL     1       2.982  -0.371  -0.354  0.00  0.00    +0.013 C 
BRANCH  18  19
ATOM     19  C   UNL     1       4.347   0.285  -0.569  0.00  0.00    +0.039 C 
BRANCH  19  20
ATOM     20  C   UNL     1       5.014  -0.325  -1.775  0.00  0.00    -0.008 A 
ATOM     21  C   UNL     1       5.949  -1.385  -1.775  0.00  0.00    +0.045 A 
ATOM     22  C   UNL     1       6.281  -1.612  -3.058  0.00  0.00    +0.195 A 
ATOM     23  O   UNL     1       5.607  -0.744  -3.831  0.00  0.00    -0.469 OA
ATOM     24  C   UNL     1       4.837   0.039  -3.058  0.00  0.00    +0.091 A 
BRANCH  24  25
ATOM     25  C   UNL     1       3.929   1.138  -3.546  0.00  0.00    -0.006 C 
BRANCH  25  26
ATOM     26  N   UNL     1       4.683   2.406  -3.587  0.00  0.00    +0.386 N 
ATOM     27  H   UNL     1       5.481   2.304  -4.224  0.00  0.00    -0.085 HD
ATOM     28  H   UNL     1       5.023   2.627  -2.644  0.00  0.00    -0.085 HD
BRANCH  26  29
ATOM     29  C   UNL     1       3.816   3.501  -4.061  0.00  0.00    -0.071 C 
ATOM     30  C   UNL     1       3.815   3.525  -5.591  0.00  0.00    -0.016 C 
ATOM     31  C   UNL     1       2.924   4.667  -6.082  0.00  0.00    -0.002 C 
ATOM     32  C   UNL     1       3.461   5.998  -5.552  0.00  0.00    -0.000 C 
ATOM     33  C   UNL     1       3.462   5.974  -4.022  0.00  0.00    -0.002 C 
ATOM     34  C   UNL     1       4.354   4.832  -3.531  0.00  0.00    -0.016 C 
ENDBRANCH  26  29
ENDBRANCH  25  26
ENDBRANCH  24  25
ENDBRANCH  19  20
ENDBRANCH  18  19
ENDBRANCH  12  18
TORSDOF 8
