REMARK  Name = ZINC59272823
REMARK  7 active torsions:
REMARK  status: ('A' for Active; 'I' for Inactive)
REMARK    1  A    between atoms: C_1  and  C_2
REMARK    2  A    between atoms: C_5  and  C_8
REMARK    3  A    between atoms: C_8  and  C_10
REMARK    4  A    between atoms: C_10  and  C_11
REMARK    5  A    between atoms: C_11  and  O_30
REMARK    6  A    between atoms: N_18  and  C_21
REMARK    7  A    between atoms: C_21  and  C_22
REMARK                            x       y       z     vdW  Elec       q    Type
REMARK                         _______ _______ _______ _____ _____    ______ ____
ROOT
ATOM      1  C   UNL     1       0.093  -6.508   0.992  0.00  0.00    +0.175 C 
ATOM      2  C   UNL     1       0.205  -7.293   2.279  0.00  0.00    +0.016 A 
ATOM      3  C   UNL     1      -0.600  -7.388   3.391  0.00  0.00    +0.024 A 
ATOM      4  C   UNL     1      -0.231  -8.208   4.444  0.00  0.00    +0.018 A 
ATOM      5  C   UNL     1       0.949  -8.929   4.372  0.00  0.00    +0.017 A 
ATOM      6  C   UNL     1       1.757  -8.835   3.259  0.00  0.00    +0.025 A 
ATOM      7  C   UNL     1       1.391  -8.012   2.196  0.00  0.00    +0.043 A 
ATOM      8  N   UNL     1       2.029  -7.752   0.982  0.00  0.00    -0.264 N 
ATOM      9  C   UNL     1       1.339  -6.886   0.220  0.00  0.00    +0.257 C 
ATOM     10  O   UNL     1       1.656  -6.482  -0.879  0.00  0.00    -0.272 OA
ATOM     11 BR   UNL     1      -1.333  -8.341   5.974  0.00  0.00    -0.050 Br
ENDROOT
BRANCH   1  12
ATOM     12  O   UNL     1      -1.079  -6.893   0.269  0.00  0.00    -0.374 OA
ATOM     13  H   UNL     1      -1.183  -6.441  -0.579  0.00  0.00    +0.211 HD
ENDBRANCH   1  12
BRANCH   1  14
ATOM     14  C   UNL     1       0.075  -5.006   1.280  0.00  0.00    +0.129 C 
BRANCH  14  15
ATOM     15  C   UNL     1       0.058  -4.245  -0.021  0.00  0.00    +0.167 C 
ATOM     16  O   UNL     1       0.060  -4.846  -1.075  0.00  0.00    -0.292 OA
BRANCH  15  21
ATOM     17  C   UNL     1      -0.018   1.503   0.010  0.00  0.00    +0.044 C 
ATOM     18  C   UNL     1       0.002  -0.004   0.002  0.00  0.00    -0.050 A 
ATOM     19  C   UNL     1       0.006  -0.686  -1.202  0.00  0.00    +0.004 A 
ATOM     20  C   UNL     1       0.024  -2.064  -1.218  0.00  0.00    +0.011 A 
ATOM     21  C   UNL     1       0.039  -2.774  -0.013  0.00  0.00    +0.018 A 
ATOM     22  C   UNL     1       0.036  -2.078   1.200  0.00  0.00    +0.011 A 
ATOM     23  C   UNL     1       0.023  -0.699   1.199  0.00  0.00    +0.004 A 
ENDBRANCH  15  21
ENDBRANCH  14  15
ENDBRANCH   1  14
BRANCH   8  24
ATOM     24  C   UNL     1       3.304  -8.353   0.584  0.00  0.00    +0.150 C 
BRANCH  24  25
ATOM     25  C   UNL     1       3.044  -9.643  -0.151  0.00  0.00    -0.011 A 
ATOM     26  C   UNL     1       3.163 -10.851   0.510  0.00  0.00    +0.006 A 
ATOM     27  C   UNL     1       2.924 -12.034  -0.164  0.00  0.00    +0.000 A 
ATOM     28  C   UNL     1       2.566 -12.010  -1.499  0.00  0.00    +0.001 A 
ATOM     29  C   UNL     1       2.446 -10.802  -2.161  0.00  0.00    +0.020 A 
ATOM     30  C   UNL     1       2.679  -9.617  -1.485  0.00  0.00    +0.046 A 
ATOM     31 CL   UNL     1       2.522  -8.100  -2.313  0.00  0.00    -0.083 Cl
ENDBRANCH  24  25
ENDBRANCH   8  24
TORSDOF 6
