REMARK  Name = ZINC36586648
REMARK  21 active torsions:
REMARK  status: ('A' for Active; 'I' for Inactive)
REMARK    1  A    between atoms: C_1  and  C_2
REMARK    2  A    between atoms: C_2  and  C_3
REMARK    3  A    between atoms: C_2  and  C_4
REMARK    4  A    between atoms: C_2  and  C_5
REMARK    5  A    between atoms: C_5  and  C_6
REMARK    6  A    between atoms: C_6  and  C_7
REMARK    7  A    between atoms: C_6  and  C_8
REMARK    8  A    between atoms: C_6  and  N_9
REMARK    9  A    between atoms: C_10  and  C_12
REMARK   10  A    between atoms: C_12  and  C_14
REMARK   11  A    between atoms: C_12  and  N_23
REMARK   12  A    between atoms: C_15  and  O_22
REMARK   13  A    between atoms: C_17  and  O_21
REMARK   14  A    between atoms: C_19  and  O_20
REMARK   15  A    between atoms: N_23  and  C_34
REMARK   16  A    between atoms: C_24  and  C_26
REMARK   17  A    between atoms: C_27  and  O_33
REMARK   18  A    between atoms: C_31  and  O_32
REMARK   19  A    between atoms: C_34  and  C_35
REMARK   20  A    between atoms: C_34  and  C_36
REMARK   21  A    between atoms: C_34  and  C_37
REMARK                            x       y       z     vdW  Elec       q    Type
REMARK                         _______ _______ _______ _____ _____    ______ ____
ROOT
ATOM      1  C   UNL     1       4.225   0.695  -4.330  0.00  0.00    +0.200 C 
ENDROOT
BRANCH   1   2
ATOM      2  C   UNL     1       3.715  -0.722  -4.380  0.00  0.00    +0.065 A 
ATOM      3  C   UNL     1       4.450  -1.745  -3.800  0.00  0.00    +0.129 A 
ATOM      4  C   UNL     1       3.981  -3.049  -3.846  0.00  0.00    +0.091 A 
ATOM      5  C   UNL     1       2.775  -3.330  -4.471  0.00  0.00    +0.124 A 
ATOM      6  C   UNL     1       2.039  -2.307  -5.050  0.00  0.00    +0.091 A 
ATOM      7  C   UNL     1       2.507  -1.002  -5.001  0.00  0.00    +0.129 A 
BRANCH   7   8
ATOM      8  O   UNL     1       1.783   0.001  -5.564  0.00  0.00    -0.506 OA
ATOM      9  H   UNL     1       1.996   0.166  -6.493  0.00  0.00    +0.292 HD
ENDBRANCH   7   8
BRANCH   5  10
ATOM     10  O   UNL     1       2.315  -4.608  -4.517  0.00  0.00    -0.507 OA
ATOM     11  H   UNL     1       1.757  -4.852  -3.766  0.00  0.00    +0.292 HD
ENDBRANCH   5  10
BRANCH   3  12
ATOM     12  O   UNL     1       5.632  -1.469  -3.188  0.00  0.00    -0.506 OA
ATOM     13  H   UNL     1       5.559  -1.339  -2.232  0.00  0.00    +0.292 HD
ENDBRANCH   3  12
ENDBRANCH   1   2
BRANCH   1  15
ATOM     14  N   UNL     1       4.092   1.042  -1.885  0.00  0.00    -0.308 N 
ATOM     15  C   UNL     1       4.860   0.954  -2.989  0.00  0.00    +0.239 C 
ATOM     16  O   UNL     1       6.063   1.082  -2.902  0.00  0.00    -0.273 OA
ATOM     17  H   UNL     1       3.130   0.939  -1.954  0.00  0.00    +0.149 HD
BRANCH  14  18
ATOM     18  C   UNL     1       4.709   1.293  -0.580  0.00  0.00    +0.030 C 
ATOM     19  C   UNL     1       5.669   2.479  -0.690  0.00  0.00    +0.031 C 
ATOM     20  C   UNL     1       5.483   0.050  -0.135  0.00  0.00    +0.031 C 
BRANCH  18  21
ATOM     21  C   UNL     1       3.620   1.611   0.446  0.00  0.00    +0.031 C 
BRANCH  21  23
ATOM     22  C   UNL     1       1.587   1.769  -0.997  0.00  0.00    +0.010 C 
ATOM     23  C   UNL     1       2.599   2.568  -0.173  0.00  0.00    -0.036 C 
ATOM     24  C   UNL     1       3.321   3.567  -1.080  0.00  0.00    +0.010 C 
ATOM     25  C   UNL     1       1.869   3.323   0.939  0.00  0.00    +0.010 C 
ENDBRANCH  21  23
ENDBRANCH  18  21
ENDBRANCH  14  18
ENDBRANCH   1  15
BRANCH   1  26
ATOM     26  N   UNL     1       5.220   0.893  -5.388  0.00  0.00    -0.276 N 
ATOM     27  C   UNL     1       5.567  -0.135  -6.187  0.00  0.00    +0.255 C 
ATOM     28  O   UNL     1       5.019  -1.213  -6.064  0.00  0.00    -0.270 OA
BRANCH  27  29
ATOM     29  C   UNL     1       6.612   0.048  -7.209  0.00  0.00    +0.119 A 
ATOM     30  C   UNL     1       7.961  -0.158  -6.885  0.00  0.00    +0.133 A 
ATOM     31  C   UNL     1       8.935   0.016  -7.854  0.00  0.00    +0.046 A 
ATOM     32  C   UNL     1       8.582   0.392  -9.137  0.00  0.00    +0.007 A 
ATOM     33  C   UNL     1       7.255   0.598  -9.467  0.00  0.00    +0.046 A 
ATOM     34  C   UNL     1       6.264   0.423  -8.515  0.00  0.00    +0.133 A 
BRANCH  34  35
ATOM     35  O   UNL     1       4.963   0.621  -8.843  0.00  0.00    -0.506 OA
ATOM     36  H   UNL     1       4.657   1.529  -8.712  0.00  0.00    +0.292 HD
ENDBRANCH  34  35
BRANCH  30  37
ATOM     37  O   UNL     1       8.310  -0.526  -5.627  0.00  0.00    -0.506 OA
ATOM     38  H   UNL     1       8.336  -1.483  -5.490  0.00  0.00    +0.292 HD
ENDBRANCH  30  37
ENDBRANCH  27  29
BRANCH  26  39
ATOM     39  C   UNL     1       5.836   2.209  -5.576  0.00  0.00    +0.030 C 
ATOM     40  C   UNL     1       5.138   3.233  -4.679  0.00  0.00    +0.031 C 
ATOM     41  C   UNL     1       7.319   2.135  -5.207  0.00  0.00    +0.031 C 
ATOM     42  C   UNL     1       5.696   2.633  -7.040  0.00  0.00    +0.031 C 
ENDBRANCH  26  39
ENDBRANCH   1  26
TORSDOF 13
