REMARK  Name = ZINC43213495
REMARK  14 active torsions:
REMARK  status: ('A' for Active; 'I' for Inactive)
REMARK    1  A    between atoms: C_1  and  C_2
REMARK    2  A    between atoms: C_2  and  C_3
REMARK    3  A    between atoms: C_3  and  C_5
REMARK    4  A    between atoms: C_3  and  C_6
REMARK    5  A    between atoms: C_6  and  C_8
REMARK    6  A    between atoms: C_6  and  N_37
REMARK    7  A    between atoms: C_10  and  C_13
REMARK    8  A    between atoms: N_15  and  C_16
REMARK    9  A    between atoms: C_16  and  C_17
REMARK   10  A    between atoms: C_17  and  C_36
REMARK   11  A    between atoms: C_21  and  C_35
REMARK   12  A    between atoms: C_30  and  C_32
REMARK   13  A    between atoms: C_32  and  C_33
REMARK   14  A    between atoms: C_32  and  C_34
REMARK                            x       y       z     vdW  Elec       q    Type
REMARK                         _______ _______ _______ _____ _____    ______ ____
ROOT
ATOM      1  C   UNL     1       6.348  -5.559   3.943  0.00  0.00    +0.111 C 
ENDROOT
BRANCH   1   2
ATOM      2  C   UNL     1       7.238  -5.834   2.729  0.00  0.00    -0.013 C 
ATOM      3  C   UNL     1       7.241  -4.608   1.815  0.00  0.00    +0.008 C 
ATOM      4  C   UNL     1       7.801  -3.410   2.587  0.00  0.00    +0.001 C 
ATOM      5  C   UNL     1       9.238  -3.713   3.010  0.00  0.00    +0.011 C 
ATOM      6  C   UNL     1       9.265  -4.944   3.922  0.00  0.00    -0.003 C 
ATOM      7  C   UNL     1       8.654  -6.140   3.200  0.00  0.00    +0.007 C 
ATOM      8  C   UNL     1       9.550  -6.506   2.015  0.00  0.00    +0.009 C 
ATOM      9  C   UNL     1      10.844  -7.106   2.563  0.00  0.00    +0.036 C 
ATOM     10  C   UNL     1      11.424  -6.233   3.645  0.00  0.00    -0.043 A 
ATOM     11  C   UNL     1      10.703  -5.244   4.274  0.00  0.00    -0.038 A 
ATOM     12  C   UNL     1      11.296  -4.482   5.270  0.00  0.00    +0.005 A 
ATOM     13  C   UNL     1      12.610  -4.704   5.632  0.00  0.00    +0.004 A 
ATOM     14  C   UNL     1      13.337  -5.693   4.998  0.00  0.00    -0.045 A 
ATOM     15  C   UNL     1      12.746  -6.453   4.010  0.00  0.00    +0.007 A 
ATOM     16  C   UNL     1       8.475  -4.651   5.199  0.00  0.00    +0.016 C 
ATOM     17  C   UNL     1       6.688  -7.036   1.959  0.00  0.00    +0.013 C 
BRANCH  14  18
ATOM     18  C   UNL     1      14.773  -5.940   5.384  0.00  0.00    +0.013 C 
ATOM     19  C   UNL     1      15.591  -4.670   5.145  0.00  0.00    +0.012 C 
ATOM     20  C   UNL     1      14.844  -6.322   6.864  0.00  0.00    +0.012 C 
ENDBRANCH  14  18
ENDBRANCH   1   2
BRANCH   1  23
ATOM     21  C   UNL     1       3.986  -5.186   4.413  0.00  0.00    +0.266 C 
ATOM     22  O   UNL     1       4.269  -5.071   5.590  0.00  0.00    -0.268 OA
ATOM     23  N   UNL     1       4.955  -5.431   3.508  0.00  0.00    -0.309 N 
ATOM     24  H   UNL     1       4.729  -5.522   2.569  0.00  0.00    +0.149 HD
BRANCH  21  27
ATOM     25  C   UNL     1       0.835  -4.988   2.712  0.00  0.00    +0.182 A 
ATOM     26  N   UNL     1       2.123  -5.160   2.700  0.00  0.00    -0.210 NA
ATOM     27  C   UNL     1       2.584  -5.056   3.975  0.00  0.00    +0.163 A 
ATOM     28  C   UNL     1       1.508  -4.811   4.771  0.00  0.00    +0.230 A 
ATOM     29  O   UNL     1       0.431  -4.767   3.971  0.00  0.00    -0.449 OA
BRANCH  25  30
ATOM     30  C   UNL     1      -0.062  -5.025   1.502  0.00  0.00    +0.016 C 
BRANCH  30  31
ATOM     31  N   UNL     1      -1.260  -5.819   1.805  0.00  0.00    +0.386 N 
ATOM     32  H   UNL     1      -0.988  -6.759   2.050  0.00  0.00    -0.089 HD
ATOM     33  H   UNL     1      -1.755  -5.399   2.577  0.00  0.00    -0.089 HD
ATOM     34  H   UNL     1      -1.861  -5.844   0.994  0.00  0.00    -0.089 HD
ENDBRANCH  30  31
BRANCH  30  35
ATOM     35  C   UNL     1      -0.475  -3.600   1.129  0.00  0.00    -0.020 C 
ATOM     36  C   UNL     1       0.773  -2.773   0.814  0.00  0.00    +0.006 C 
BRANCH  35  38
ATOM     37  C   UNL     1      -1.899  -2.227  -0.397  0.00  0.00    +0.004 C 
ATOM     38  C   UNL     1      -1.386  -3.638  -0.100  0.00  0.00    -0.001 C 
ENDBRANCH  35  38
ENDBRANCH  30  35
ENDBRANCH  25  30
ENDBRANCH  21  27
ENDBRANCH   1  23
TORSDOF 8
