REMARK  Name = ZINC50928097
REMARK  4 active torsions:
REMARK  status: ('A' for Active; 'I' for Inactive)
REMARK    1  A    between atoms: C_3  and  C_8
REMARK    2  A    between atoms: C_10  and  C_13
REMARK    3  A    between atoms: C_13  and  C_14
REMARK    4  A    between atoms: C_14  and  C_15
REMARK                            x       y       z     vdW  Elec       q    Type
REMARK                         _______ _______ _______ _____ _____    ______ ____
ROOT
ATOM      1  C   UNL     1       3.660   2.166  -0.022  0.00  0.00    +0.202 A 
ATOM      2  N   UNL     1       4.892   1.627  -0.042  0.00  0.00    -0.191 NA
ATOM      3  C   UNL     1       5.791   2.570  -0.044  0.00  0.00    +0.228 A 
ATOM      4  O   UNL     1       5.165   3.753  -0.026  0.00  0.00    -0.338 OA
ATOM      5  N   UNL     1       3.774   3.471  -0.017  0.00  0.00    -0.056 NA
ENDROOT
BRANCH   1   8
ATOM      6  C   UNL     1      -0.017   1.379   0.010  0.00  0.00    +0.002 A 
ATOM      7  C   UNL     1       1.168   2.088   0.002  0.00  0.00    +0.012 A 
ATOM      8  C   UNL     1       2.384   1.408  -0.013  0.00  0.00    +0.023 A 
ATOM      9  C   UNL     1       2.398   0.015  -0.021  0.00  0.00    +0.027 A 
ATOM     10  C   UNL     1       1.207  -0.685  -0.013  0.00  0.00    +0.019 A 
ATOM     11  C   UNL     1       0.002  -0.004   0.002  0.00  0.00    +0.015 A 
ATOM     12 BR   UNL     1       1.224  -2.576  -0.024  0.00  0.00    -0.050 Br
ENDBRANCH   1   8
BRANCH   3  13
ATOM     13  C   UNL     1       7.284   2.363  -0.064  0.00  0.00    +0.097 C 
BRANCH  13  14
ATOM     14  C   UNL     1       7.771   2.305  -1.514  0.00  0.00    -0.006 C 
BRANCH  14  15
ATOM     15  C   UNL     1       9.287   2.095  -1.534  0.00  0.00    -0.071 C 
ATOM     16  C   UNL     1       9.791   2.164  -2.977  0.00  0.00    -0.016 C 
ATOM     17  C   UNL     1      11.308   1.953  -2.992  0.00  0.00    -0.003 C 
ATOM     18  C   UNL     1      11.635   0.614  -2.326  0.00  0.00    -0.019 C 
ATOM     19  C   UNL     1      11.062   0.602  -0.907  0.00  0.00    -0.082 C 
ATOM     20  N   UNL     1       9.606   0.781  -0.963  0.00  0.00    +0.381 N 
ATOM     21  H   UNL     1       9.225   0.719  -0.030  0.00  0.00    -0.086 HD
ATOM     22  H   UNL     1       9.200   0.058  -1.538  0.00  0.00    -0.086 HD
ENDBRANCH  14  15
ENDBRANCH  13  14
ENDBRANCH   3  13
TORSDOF 4
