REMARK  Name = ZINC00855747
REMARK  4 active torsions:
REMARK  status: ('A' for Active; 'I' for Inactive)
REMARK    1  A    between atoms: C_3  and  C_9
REMARK    2  A    between atoms: C_12  and  C_14
REMARK    3  A    between atoms: N_15  and  N_16
REMARK    4  A    between atoms: C_17  and  C_19
REMARK                            x       y       z     vdW  Elec       q    Type
REMARK                         _______ _______ _______ _____ _____    ______ ____
ROOT
ATOM      1  C   UNL     1       8.998   0.840  -0.077  0.00  0.00    +0.137 A 
ATOM      2  C   UNL     1       9.482   2.115  -0.074  0.00  0.00    +0.050 A 
ATOM      3  C   UNL     1       8.376   2.975  -0.066  0.00  0.00    +0.051 A 
ATOM      4  C   UNL     1       7.252   2.177  -0.054  0.00  0.00    +0.148 A 
ATOM      5  O   UNL     1       7.652   0.889  -0.064  0.00  0.00    -0.454 OA
ENDROOT
BRANCH   1   8
ATOM      6  C   UNL     1      11.600  -1.692  -1.033  0.00  0.00    +0.002 A 
ATOM      7  C   UNL     1      10.837  -0.543  -1.029  0.00  0.00    +0.013 A 
ATOM      8  C   UNL     1       9.814  -0.390  -0.091  0.00  0.00    +0.037 A 
ATOM      9  C   UNL     1       9.562  -1.410   0.832  0.00  0.00    +0.070 A 
ATOM     10  C   UNL     1      10.331  -2.558   0.812  0.00  0.00    +0.060 A 
ATOM     11  C   UNL     1      11.347  -2.699  -0.118  0.00  0.00    +0.021 A 
ATOM     12 CL   UNL     1      10.022  -3.827   1.956  0.00  0.00    -0.082 Cl
ATOM     13 CL   UNL     1       8.290  -1.234   1.999  0.00  0.00    -0.081 Cl
ENDBRANCH   1   8
BRANCH   4  14
ATOM     14  C   UNL     1       5.865   2.646  -0.039  0.00  0.00    +0.176 C 
ATOM     15  N   UNL     1       4.888   1.787  -0.034  0.00  0.00    -0.184 NA
BRANCH  15  16
ATOM     16  N   UNL     1       3.560   2.236  -0.019  0.00  0.00    -0.202 N 
ATOM     17  C   UNL     1       2.548   1.346  -0.014  0.00  0.00    +0.270 C 
ATOM     18  O   UNL     1       2.787   0.152  -0.022  0.00  0.00    -0.268 OA
ATOM     19  H   UNL     1       3.370   3.187  -0.013  0.00  0.00    +0.178 HD
BRANCH  17  20
ATOM     20  C   UNL     1       1.160   1.815   0.001  0.00  0.00    +0.075 A 
ATOM     21  C   UNL     1      -0.013   1.076   0.008  0.00  0.00    +0.021 A 
ATOM     22  C   UNL     1      -1.193   1.776   0.017  0.00  0.00    +0.008 A 
ATOM     23  C   UNL     1      -1.159   3.135   0.030  0.00  0.00    +0.046 A 
ATOM     24  S   UNL     1       0.539   3.488   0.016  0.00  0.00    -0.092 S 
ENDBRANCH  17  20
ENDBRANCH  15  16
ENDBRANCH   4  14
TORSDOF 4
