REMARK  Name = ZINC12035464
REMARK  11 active torsions:
REMARK  status: ('A' for Active; 'I' for Inactive)
REMARK    1  A    between atoms: C_1  and  N_2
REMARK    2  A    between atoms: C_5  and  C_9
REMARK    3  A    between atoms: C_5  and  C_18
REMARK    4  A    between atoms: C_9  and  C_10
REMARK    5  A    between atoms: C_14  and  O_16
REMARK    6  A    between atoms: O_16  and  C_17
REMARK    7  A    between atoms: C_23  and  C_24
REMARK    8  A    between atoms: C_23  and  N_67
REMARK    9  A    between atoms: C_25  and  C_26
REMARK   10  A    between atoms: C_31  and  O_32
REMARK   11  A    between atoms: O_32  and  C_33
REMARK                            x       y       z     vdW  Elec       q    Type
REMARK                         _______ _______ _______ _____ _____    ______ ____
ROOT
ATOM      1  C   UNL     1       6.351  -0.062   2.701  0.00  0.00    +0.143 C 
ATOM      2  N   UNL     1       5.363   0.652   1.887  0.00  0.00    -0.227 N 
ATOM      3  C   UNL     1       4.378   1.419   2.393  0.00  0.00    +0.247 C 
ATOM      4  O   UNL     1       4.150   1.641   3.563  0.00  0.00    -0.273 OA
ATOM      5  C   UNL     1       3.613   1.947   1.195  0.00  0.00    +0.119 C 
ATOM      6  N   UNL     1       4.324   1.361   0.046  0.00  0.00    -0.284 N 
ATOM      7  C   UNL     1       5.328   0.622   0.550  0.00  0.00    +0.309 C 
ATOM      8  O   UNL     1       6.116  -0.003  -0.133  0.00  0.00    -0.252 OA
ATOM      9  H   UNL     1       4.109   1.484  -0.892  0.00  0.00    +0.151 HD
ENDROOT
BRANCH   5  10
ATOM     10  C   UNL     1       2.160   1.470   1.231  0.00  0.00    +0.018 C 
ATOM     11  C   UNL     1       1.417   1.995  -0.001  0.00  0.00    -0.013 C 
ATOM     12  C   UNL     1      -0.018   1.464   0.010  0.00  0.00    -0.078 C 
ATOM     13  C   UNL     1       0.669  -0.533   1.199  0.00  0.00    -0.078 C 
ATOM     14  C   UNL     1       2.125  -0.061   1.224  0.00  0.00    -0.013 C 
ATOM     15  N   UNL     1       0.017  -0.013  -0.022  0.00  0.00    +0.382 N 
ATOM     16  H   UNL     1       0.556  -0.316  -0.842  0.00  0.00    -0.081 HD
BRANCH  15  17
ATOM     17  C   UNL     1      -1.356  -0.548  -0.128  0.00  0.00    -0.051 C 
BRANCH  17  18
ATOM     18  C   UNL     1      -1.281  -2.032  -0.378  0.00  0.00    -0.045 C 
ATOM     19  C   UNL     1      -1.931  -2.873   0.416  0.00  0.00    +0.005 C 
BRANCH  19  20
ATOM     20  C   UNL     1      -1.857  -4.328   0.170  0.00  0.00    +0.016 A 
ATOM     21  C   UNL     1      -1.109  -4.821  -0.900  0.00  0.00    +0.011 A 
ATOM     22  C   UNL     1      -1.040  -6.181  -1.122  0.00  0.00    +0.001 A 
ATOM     23  C   UNL     1      -1.718  -7.058  -0.293  0.00  0.00    +0.004 A 
ATOM     24  C   UNL     1      -2.466  -6.581   0.767  0.00  0.00    +0.046 A 
ATOM     25  C   UNL     1      -2.541  -5.218   1.006  0.00  0.00    +0.127 A 
BRANCH  25  26
ATOM     26  O   UNL     1      -3.276  -4.748   2.047  0.00  0.00    -0.495 OA
ATOM     27  C   UNL     1      -3.947  -5.715   2.857  0.00  0.00    +0.277 C 
ENDBRANCH  25  26
ENDBRANCH  19  20
ENDBRANCH  17  18
ENDBRANCH  15  17
ENDBRANCH   5  10
BRANCH   5  28
ATOM     28  C   UNL     1       3.675   3.475   1.149  0.00  0.00    +0.070 C 
BRANCH  28  29
ATOM     29  C   UNL     1       5.107   3.916   0.991  0.00  0.00    -0.041 A 
ATOM     30  C   UNL     1       5.884   4.155   2.110  0.00  0.00    +0.004 A 
ATOM     31  C   UNL     1       7.200   4.553   1.969  0.00  0.00    +0.004 A 
ATOM     32  C   UNL     1       7.740   4.725   0.708  0.00  0.00    +0.045 A 
ATOM     33  C   UNL     1       6.961   4.492  -0.416  0.00  0.00    +0.120 A 
ATOM     34  C   UNL     1       5.642   4.086  -0.271  0.00  0.00    +0.049 A 
BRANCH  33  35
ATOM     35  O   UNL     1       7.489   4.660  -1.656  0.00  0.00    -0.495 OA
ATOM     36  C   UNL     1       8.854   5.079  -1.729  0.00  0.00    +0.277 C 
ENDBRANCH  33  35
ENDBRANCH  28  29
ENDBRANCH   5  28
TORSDOF 8
