REMARK  Name = ZINC35465357
REMARK  9 active torsions:
REMARK  status: ('A' for Active; 'I' for Inactive)
REMARK    1  A    between atoms: C_1  and  C_2
REMARK    2  A    between atoms: C_5  and  O_30
REMARK    3  A    between atoms: C_9  and  C_29
REMARK    4  A    between atoms: C_11  and  O_28
REMARK    5  A    between atoms: C_14  and  C_27
REMARK    6  A    between atoms: C_20  and  O_26
REMARK    7  A    between atoms: C_23  and  C_24
REMARK    8  A    between atoms: C_23  and  C_25
REMARK    9  A    between atoms: O_30  and  C_31
REMARK                            x       y       z     vdW  Elec       q    Type
REMARK                         _______ _______ _______ _____ _____    ______ ____
ROOT
ATOM      1  C   UNL     1      -0.040   1.507   0.254  0.00  0.00    +0.048 C 
ATOM      2  C   UNL     1      -0.039  -0.002   0.160  0.00  0.00    -0.001 A 
ATOM      3  C   UNL     1      -0.004  -0.637  -1.054  0.00  0.00    +0.014 A 
ATOM      4  C   UNL     1      -0.015  -2.044  -1.153  0.00  0.00    +0.108 A 
ATOM      5  C   UNL     1      -0.091  -2.841   0.008  0.00  0.00    +0.141 A 
ATOM      6  C   UNL     1      -0.091  -2.178   1.224  0.00  0.00    +0.037 A 
ATOM      7  C   UNL     1      -0.034  -0.794   1.313  0.00  0.00    +0.131 A 
ATOM      8  O   UNL     1       0.136  -0.236   2.528  0.00  0.00    -0.485 OA
ATOM      9  C   UNL     1      -0.328  -0.801   3.750  0.00  0.00    +0.114 C 
ATOM     10  C   UNL     1       0.816  -0.811   4.766  0.00  0.00    +0.082 C 
ATOM     11  C   UNL     1       0.318  -1.395   6.082  0.00  0.00    +0.154 C 
ATOM     12  C   UNL     1      -0.013  -2.861   5.911  0.00  0.00    +0.135 C 
ATOM     13  C   UNL     1      -1.086  -3.004   4.835  0.00  0.00    +0.009 C 
ATOM     14  C   UNL     1      -0.894  -2.195   3.573  0.00  0.00    +0.046 C 
ATOM     15  C   UNL     1      -0.098  -2.962   2.520  0.00  0.00    +0.050 C 
ATOM     16  C   UNL     1      -1.359  -4.486   4.534  0.00  0.00    +0.018 C 
ATOM     17  C   UNL     1      -1.763  -5.153   5.863  0.00  0.00    +0.098 C 
ATOM     18  C   UNL     1      -0.739  -4.747   6.930  0.00  0.00    +0.284 C 
ATOM     19  O   UNL     1      -0.739  -3.315   7.108  0.00  0.00    -0.314 OA
ATOM     20  O   UNL     1       0.556  -5.099   6.418  0.00  0.00    -0.318 OA
ATOM     21  C   UNL     1       1.139  -3.844   5.926  0.00  0.00    +0.101 C 
ATOM     22  C   UNL     1       1.831  -4.129   4.599  0.00  0.00    +0.044 C 
ATOM     23  C   UNL     1       2.230  -3.499   6.959  0.00  0.00    +0.044 C 
ATOM     24  C   UNL     1      -2.432  -2.499   5.472  0.00  0.00    +0.014 C 
ATOM     25  C   UNL     1      -1.416   0.179   4.242  0.00  0.00    +0.056 C 
ATOM     26  C   UNL     1       0.073  -2.399  -2.565  0.00  0.00    +0.343 C 
ATOM     27  O   UNL     1       0.086  -3.538  -3.000  0.00  0.00    -0.245 OA
ATOM     28  O   UNL     1       0.143  -1.283  -3.320  0.00  0.00    -0.456 OA
ATOM     29  C   UNL     1       0.052  -0.133  -2.463  0.00  0.00    +0.269 C 
ENDROOT
BRANCH  18  30
ATOM     30  O   UNL     1      -1.004  -5.409   8.177  0.00  0.00    -0.343 OA
ATOM     31  H   UNL     1      -0.382  -5.184   8.882  0.00  0.00    +0.215 HD
ENDBRANCH  18  30
BRANCH  11  32
ATOM     32  O   UNL     1       1.182  -1.097   7.161  0.00  0.00    -0.389 OA
ATOM     33  H   UNL     1       1.296  -0.150   7.323  0.00  0.00    +0.210 HD
ENDBRANCH  11  32
BRANCH   5  34
ATOM     34  O   UNL     1      -0.137  -4.194  -0.088  0.00  0.00    -0.494 OA
ATOM     35  C   UNL     1       1.113  -4.888  -0.083  0.00  0.00    +0.277 C 
ENDBRANCH   5  34
TORSDOF 3
