REMARK  Name = ZINC31047184
REMARK  8 active torsions:
REMARK  status: ('A' for Active; 'I' for Inactive)
REMARK    1  A    between atoms: C_1  and  C_2
REMARK    2  A    between atoms: C_8  and  N_15
REMARK    3  A    between atoms: C_11  and  C_13
REMARK    4  A    between atoms: C_11  and  C_14
REMARK    5  A    between atoms: C_16  and  C_18
REMARK    6  A    between atoms: N_23  and  C_25
REMARK    7  A    between atoms: C_25  and  C_26
REMARK    8  A    between atoms: C_28  and  C_31
REMARK                            x       y       z     vdW  Elec       q    Type
REMARK                         _______ _______ _______ _____ _____    ______ ____
ROOT
ATOM      1  C   UNL     1       1.280   1.980   0.001  0.00  0.00    +0.058 C 
ATOM      2  C   UNL     1       1.363   2.853   1.255  0.00  0.00    +0.009 C 
ATOM      3  C   UNL     1       2.707   3.587   1.269  0.00  0.00    -0.018 C 
ATOM      4  C   UNL     1       3.843   2.563   1.219  0.00  0.00    -0.078 C 
ATOM      5  N   UNL     1       3.719   1.753   0.000  0.00  0.00    +0.386 N 
ATOM      6  C   UNL     1       2.457   1.002  -0.014  0.00  0.00    -0.065 C 
ATOM      7  H   UNL     1       3.710   2.440  -0.859  0.00  0.00    -0.081 HD
ENDROOT
BRANCH   1   9
ATOM      8  N   UNL     1      -1.191   1.867   0.018  0.00  0.00    -0.308 N 
ATOM      9  C   UNL     1      -0.014   1.209   0.009  0.00  0.00    +0.215 C 
ATOM     10  O   UNL     1       0.002  -0.004   0.002  0.00  0.00    -0.276 OA
ATOM     11  H   UNL     1      -1.206   2.966   0.024  0.00  0.00    +0.149 HD
BRANCH   8  19
ATOM     12  C   UNL     1      -1.052  -0.503  -4.488  0.00  0.00    +0.044 C 
ATOM     13  C   UNL     1      -2.137  -0.022  -3.559  0.00  0.00    -0.050 A 
ATOM     14  C   UNL     1      -3.440   0.080  -4.011  0.00  0.00    +0.007 A 
ATOM     15  C   UNL     1      -4.431   0.519  -3.161  0.00  0.00    +0.046 A 
ATOM     16  C   UNL     1      -4.126   0.864  -1.847  0.00  0.00    +0.126 A 
ATOM     17  C   UNL     1      -2.823   0.760  -1.397  0.00  0.00    +0.015 A 
ATOM     18  C   UNL     1      -1.831   0.317  -2.256  0.00  0.00    +0.012 A 
ATOM     19  C   UNL     1      -2.449   1.117   0.020  0.00  0.00    +0.110 C 
ATOM     20  C   UNL     1      -3.553   1.976   0.641  0.00  0.00    +0.074 C 
ATOM     21  C   UNL     1      -4.902   1.298   0.368  0.00  0.00    +0.107 C 
ATOM     22  O   UNL     1      -5.129   1.300  -1.042  0.00  0.00    -0.486 OA
ATOM     23  C   UNL     1      -4.869  -0.142   0.883  0.00  0.00    +0.055 C 
ATOM     24  C   UNL     1      -6.019   2.071   1.072  0.00  0.00    +0.055 C 
ENDBRANCH   8  19
ENDBRANCH   1   9
BRANCH   5  25
ATOM     25  C   UNL     1       4.870   0.852  -0.152  0.00  0.00    +0.022 C 
BRANCH  25  26
ATOM     26  C   UNL     1       6.117   1.665  -0.386  0.00  0.00    +0.211 A 
ATOM     27  N   UNL     1       6.927   2.129   0.533  0.00  0.00    -0.193 NA
ATOM     28  C   UNL     1       7.898   2.788  -0.139  0.00  0.00    +0.202 A 
ATOM     29  N   UNL     1       7.619   2.693  -1.413  0.00  0.00    -0.056 NA
ATOM     30  O   UNL     1       6.601   2.052  -1.570  0.00  0.00    -0.340 OA
BRANCH  28  31
ATOM     31  C   UNL     1       9.060   3.492   0.458  0.00  0.00    +0.023 A 
ATOM     32  C   UNL     1       9.227   3.516   1.841  0.00  0.00    +0.013 A 
ATOM     33  C   UNL     1      10.313   4.166   2.392  0.00  0.00    +0.021 A 
ATOM     34  C   UNL     1      11.228   4.805   1.573  0.00  0.00    +0.041 A 
ATOM     35  C   UNL     1      11.062   4.790   0.198  0.00  0.00    +0.021 A 
ATOM     36  C   UNL     1       9.983   4.137  -0.362  0.00  0.00    +0.013 A 
ATOM     37 CL   UNL     1      12.587   5.628   2.271  0.00  0.00    -0.084 Cl
ENDBRANCH  28  31
ENDBRANCH  25  26
ENDBRANCH   5  25
TORSDOF 5
