REMARK  Name = ZINC52909344
REMARK  13 active torsions:
REMARK  status: ('A' for Active; 'I' for Inactive)
REMARK    1  A    between atoms: C_1  and  C_2
REMARK    2  A    between atoms: C_2  and  C_3
REMARK    3  A    between atoms: C_3  and  C_4
REMARK    4  A    between atoms: C_4  and  C_6
REMARK    5  A    between atoms: C_4  and  N_12
REMARK    6  A    between atoms: C_13  and  C_15
REMARK    7  A    between atoms: C_15  and  N_16
REMARK    8  A    between atoms: C_19  and  N_22
REMARK    9  A    between atoms: C_23  and  O_25
REMARK   10  A    between atoms: O_25  and  C_26
REMARK   11  A    between atoms: C_26  and  C_27
REMARK   12  A    between atoms: C_26  and  C_28
REMARK   13  A    between atoms: C_26  and  C_29
REMARK                            x       y       z     vdW  Elec       q    Type
REMARK                         _______ _______ _______ _____ _____    ______ ____
ROOT
ATOM      1  N   UNL     1      -3.421  -3.255  -0.920  0.00  0.00    +0.385 N 
ATOM      2  C   UNL     1      -3.553  -1.892  -1.450  0.00  0.00    -0.076 C 
ATOM      3  C   UNL     1      -4.136  -1.945  -2.864  0.00  0.00    +0.004 C 
ATOM      4  C   UNL     1      -5.514  -2.611  -2.817  0.00  0.00    +0.073 C 
ATOM      5  C   UNL     1      -5.376  -4.003  -2.193  0.00  0.00    +0.004 C 
ATOM      6  C   UNL     1      -4.747  -3.874  -0.805  0.00  0.00    -0.076 C 
ATOM      7  H   UNL     1      -2.848  -3.802  -1.544  0.00  0.00    -0.081 HD
ENDROOT
BRANCH   4   8
ATOM      8  N   UNL     1      -6.046  -2.734  -4.176  0.00  0.00    -0.278 N 
ATOM      9  C   UNL     1      -7.377  -2.804  -4.376  0.00  0.00    +0.401 C 
ATOM     10  O   UNL     1      -8.136  -2.766  -3.428  0.00  0.00    -0.226 OA
ATOM     11  H   UNL     1      -5.440  -2.764  -4.933  0.00  0.00    +0.152 HD
BRANCH   9  12
ATOM     12  O   UNL     1      -7.866  -2.917  -5.625  0.00  0.00    -0.445 OA
BRANCH  12  13
ATOM     13  C   UNL     1      -9.286  -2.986  -5.763  0.00  0.00    +0.107 C 
ATOM     14  C   UNL     1      -9.917  -1.717  -5.188  0.00  0.00    +0.055 C 
ATOM     15  C   UNL     1      -9.650  -3.111  -7.243  0.00  0.00    +0.055 C 
ATOM     16  C   UNL     1      -9.813  -4.206  -5.004  0.00  0.00    +0.055 C 
ENDBRANCH  12  13
ENDBRANCH   9  12
ENDBRANCH   4   8
BRANCH   1  17
ATOM     17  C   UNL     1      -2.789  -3.204   0.405  0.00  0.00    +0.019 C 
BRANCH  17  19
ATOM     18  N   UNL     1      -0.605  -2.548   1.364  0.00  0.00    -0.310 N 
ATOM     19  C   UNL     1      -1.382  -2.682   0.271  0.00  0.00    +0.197 C 
ATOM     20  O   UNL     1      -0.948  -2.381  -0.822  0.00  0.00    -0.278 OA
ATOM     21  H   UNL     1      -0.952  -2.789   2.237  0.00  0.00    +0.149 HD
BRANCH  18  22
ATOM     22  C   UNL     1       0.763  -2.041   1.233  0.00  0.00    +0.103 C 
BRANCH  22  23
ATOM     23  C   UNL     1       1.596  -2.538   2.386  0.00  0.00    -0.027 A 
ATOM     24  C   UNL     1       1.054  -2.592   3.657  0.00  0.00    +0.005 A 
ATOM     25  C   UNL     1       1.818  -3.049   4.715  0.00  0.00    +0.000 A 
ATOM     26  C   UNL     1       3.123  -3.451   4.502  0.00  0.00    +0.000 A 
ATOM     27  C   UNL     1       3.664  -3.398   3.231  0.00  0.00    +0.000 A 
ATOM     28  C   UNL     1       2.899  -2.946   2.173  0.00  0.00    +0.005 A 
ENDBRANCH  22  23
BRANCH  22  29
ATOM     29  C   UNL     1       0.742  -0.511   1.242  0.00  0.00    +0.027 C 
BRANCH  29  31
ATOM     30  C   UNL     1      -0.019   1.526   0.010  0.00  0.00    +0.004 C 
ATOM     31  C   UNL     1       0.002  -0.004   0.002  0.00  0.00    -0.001 C 
ENDBRANCH  29  31
ENDBRANCH  22  29
ENDBRANCH  18  22
ENDBRANCH  17  19
ENDBRANCH   1  17
TORSDOF 9
