REMARK  Name = ZINC06015183
REMARK  13 active torsions:
REMARK  status: ('A' for Active; 'I' for Inactive)
REMARK    1  A    between atoms: C_1  and  C_2
REMARK    2  A    between atoms: C_2  and  C_3
REMARK    3  A    between atoms: C_2  and  C_4
REMARK    4  A    between atoms: C_7  and  C_10
REMARK    5  A    between atoms: C_13  and  C_24
REMARK    6  A    between atoms: C_19  and  N_23
REMARK    7  A    between atoms: C_20  and  C_21
REMARK    8  A    between atoms: C_26  and  O_34
REMARK    9  A    between atoms: C_27  and  O_32
REMARK   10  A    between atoms: C_28  and  O_30
REMARK   11  A    between atoms: O_30  and  C_31
REMARK   12  A    between atoms: O_32  and  C_33
REMARK   13  A    between atoms: O_34  and  C_35
REMARK                            x       y       z     vdW  Elec       q    Type
REMARK                         _______ _______ _______ _____ _____    ______ ____
ROOT
ATOM      1  C   UNL     1      -5.520  -1.994   0.088  0.00  0.00    +0.102 C 
ATOM      2  C   UNL     1      -5.443  -3.489  -0.084  0.00  0.00    +0.054 A 
ATOM      3  C   UNL     1      -5.018  -4.463   0.825  0.00  0.00    +0.101 A 
ATOM      4  N   UNL     1      -5.122  -5.640   0.237  0.00  0.00    -0.171 NA
ATOM      5  N   UNL     1      -5.617  -5.443  -1.062  0.00  0.00    -0.246 N 
ATOM      6  H   UNL     1      -5.791  -6.136  -1.717  0.00  0.00    +0.192 HD
ATOM      7  C   UNL     1      -5.808  -4.119  -1.238  0.00  0.00    +0.223 A 
ATOM      8  O   UNL     1      -6.271  -3.449  -2.323  0.00  0.00    -0.423 OA
ATOM      9  C   UNL     1      -6.628  -2.159  -2.155  0.00  0.00    +0.200 C 
ATOM     10  C   UNL     1      -6.315  -1.427  -1.062  0.00  0.00    +0.098 C 
ENDROOT
BRANCH   1  14
ATOM     11  C   UNL     1      -1.581  -0.339   0.072  0.00  0.00    -0.045 A 
ATOM     12  C   UNL     1      -2.436  -0.078   1.126  0.00  0.00    +0.004 A 
ATOM     13  C   UNL     1      -3.711  -0.614   1.131  0.00  0.00    +0.005 A 
ATOM     14  C   UNL     1      -4.130  -1.409   0.082  0.00  0.00    -0.035 A 
ATOM     15  C   UNL     1      -3.276  -1.670  -0.973  0.00  0.00    +0.005 A 
ATOM     16  C   UNL     1      -2.003  -1.131  -0.980  0.00  0.00    +0.004 A 
BRANCH  11  18
ATOM     17  C   UNL     1      -0.280   1.771   0.108  0.00  0.00    +0.012 C 
ATOM     18  C   UNL     1      -0.192   0.244   0.066  0.00  0.00    +0.013 C 
ATOM     19  C   UNL     1       0.576  -0.256   1.291  0.00  0.00    +0.012 C 
ENDBRANCH  11  18
ENDBRANCH   1  14
BRANCH   3  20
ATOM     20  C   UNL     1      -4.535  -4.217   2.207  0.00  0.00    +0.010 A 
ATOM     21  C   UNL     1      -5.193  -3.298   3.022  0.00  0.00    +0.059 A 
ATOM     22  C   UNL     1      -4.741  -3.069   4.311  0.00  0.00    +0.166 A 
ATOM     23  C   UNL     1      -3.631  -3.756   4.791  0.00  0.00    +0.204 A 
ATOM     24  C   UNL     1      -2.974  -4.673   3.978  0.00  0.00    +0.166 A 
ATOM     25  C   UNL     1      -3.427  -4.909   2.692  0.00  0.00    +0.059 A 
BRANCH  24  26
ATOM     26  O   UNL     1      -1.889  -5.344   4.450  0.00  0.00    -0.491 OA
ATOM     27  C   UNL     1      -1.262  -6.271   3.561  0.00  0.00    +0.277 C 
ENDBRANCH  24  26
BRANCH  23  28
ATOM     28  O   UNL     1      -3.188  -3.530   6.058  0.00  0.00    -0.488 OA
ATOM     29  C   UNL     1      -3.737  -4.349   7.093  0.00  0.00    +0.277 C 
ENDBRANCH  23  28
BRANCH  22  30
ATOM     30  O   UNL     1      -5.382  -2.172   5.106  0.00  0.00    -0.491 OA
ATOM     31  C   UNL     1      -6.581  -1.590   4.592  0.00  0.00    +0.277 C 
ENDBRANCH  22  30
ENDBRANCH   3  20
BRANCH   9  32
ATOM     32  N   UNL     1      -7.352  -1.554  -3.152  0.00  0.00    -0.328 N 
ATOM     33  H   UNL     1      -7.592  -2.053  -3.949  0.00  0.00    +0.145 HD
ATOM     34  H   UNL     1      -7.624  -0.627  -3.060  0.00  0.00    +0.145 HD
ENDBRANCH   9  32
BRANCH  10  35
ATOM     35  C   UNL     1      -6.754  -0.066  -0.992  0.00  0.00    +0.101 C 
ATOM     36  N   UNL     1      -7.102   1.014  -0.937  0.00  0.00    -0.191 NA
ENDBRANCH  10  35
TORSDOF 8
