REMARK  Name = ZINC38003282
REMARK  6 active torsions:
REMARK  status: ('A' for Active; 'I' for Inactive)
REMARK    1  A    between atoms: C_1  and  C_2
REMARK    2  A    between atoms: C_2  and  C_4
REMARK    3  A    between atoms: C_2  and  N_16
REMARK    4  A    between atoms: N_16  and  C_17
REMARK    5  A    between atoms: C_17  and  C_19
REMARK    6  A    between atoms: C_17  and  C_20
REMARK                            x       y       z     vdW  Elec       q    Type
REMARK                         _______ _______ _______ _____ _____    ______ ____
ROOT
ATOM      1  C   UNL     1      -0.156   1.611   0.320  0.00  0.00    -0.009 C 
ATOM      2  C   UNL     1      -0.031   0.105   0.081  0.00  0.00    -0.043 C 
ENDROOT
BRANCH   2   3
ATOM      3  C   UNL     1      -1.399  -0.526   0.122  0.00  0.00    -0.060 A 
ATOM      4  C   UNL     1      -1.996  -0.797   1.341  0.00  0.00    +0.004 A 
ATOM      5  C   UNL     1      -3.250  -1.375   1.389  0.00  0.00    +0.028 A 
ATOM      6  C   UNL     1      -3.912  -1.685   0.211  0.00  0.00    +0.067 A 
ATOM      7  C   UNL     1      -3.310  -1.411  -1.018  0.00  0.00    +0.067 A 
ATOM      8  C   UNL     1      -2.053  -0.826  -1.056  0.00  0.00    +0.029 A 
ATOM      9  N   UNL     1      -4.202  -1.825  -2.005  0.00  0.00    -0.306 N 
ATOM     10  H   UNL     1      -4.058  -1.763  -2.962  0.00  0.00    +0.170 HD
ATOM     11  C   UNL     1      -5.296  -2.328  -1.403  0.00  0.00    +0.325 A 
ATOM     12  O   UNL     1      -6.269  -2.778  -1.980  0.00  0.00    -0.247 OA
ATOM     13  N   UNL     1      -5.152  -2.257  -0.067  0.00  0.00    -0.306 N 
ATOM     14  H   UNL     1      -5.800  -2.554   0.591  0.00  0.00    +0.170 HD
ENDBRANCH   2   3
BRANCH   2  15
ATOM     15  N   UNL     1       0.814  -0.488   1.127  0.00  0.00    +0.388 N 
ATOM     16  H   UNL     1       0.449  -0.240   2.034  0.00  0.00    -0.084 HD
ATOM     17  H   UNL     1       0.816  -1.492   1.028  0.00  0.00    -0.084 HD
BRANCH  15  18
ATOM     18  C   UNL     1       2.186   0.020   0.995  0.00  0.00    -0.036 C 
ATOM     19  C   UNL     1       3.031  -0.485   2.166  0.00  0.00    -0.008 C 
BRANCH  18  20
ATOM     20  C   UNL     1       2.780  -0.468  -0.301  0.00  0.00    -0.023 A 
ATOM     21  C   UNL     1       3.573   0.194  -1.178  0.00  0.00    +0.010 A 
ATOM     22  C   UNL     1       4.006  -0.461  -2.317  0.00  0.00    +0.023 A 
ATOM     23  C   UNL     1       3.623  -1.746  -2.521  0.00  0.00    +0.055 A 
ATOM     24  S   UNL     1       2.628  -2.070  -1.074  0.00  0.00    -0.088 S 
ATOM     25 BR   UNL     1       4.042  -2.899  -3.960  0.00  0.00    -0.043 Br
ENDBRANCH  18  20
ENDBRANCH  15  18
ENDBRANCH   2  15
TORSDOF 4
