REMARK  Name = ZINC59014767
REMARK  6 active torsions:
REMARK  status: ('A' for Active; 'I' for Inactive)
REMARK    1  A    between atoms: C_6  and  C_7
REMARK    2  A    between atoms: N_8  and  N_9
REMARK    3  A    between atoms: C_12  and  S_15
REMARK    4  A    between atoms: S_15  and  C_16
REMARK    5  A    between atoms: C_16  and  C_17
REMARK    6  A    between atoms: N_19  and  C_20
REMARK                            x       y       z     vdW  Elec       q    Type
REMARK                         _______ _______ _______ _____ _____    ______ ____
ROOT
ATOM      1  N   UNL     1      -2.444  -2.779   0.011  0.00  0.00    -0.205 N 
ATOM      2  C   UNL     1      -2.422  -4.162   0.004  0.00  0.00    +0.232 A 
ATOM      3  N   UNL     1      -1.345  -4.919  -0.005  0.00  0.00    -0.186 NA
ATOM      4  C   UNL     1      -1.701  -6.208  -0.010  0.00  0.00    +0.211 A 
ATOM      5  N   UNL     1      -3.011  -6.288  -0.004  0.00  0.00    -0.144 NA
ATOM      6  N   UNL     1      -3.502  -4.973   0.010  0.00  0.00    -0.245 N 
ATOM      7  H   UNL     1      -3.292  -2.308   0.022  0.00  0.00    +0.177 HD
ATOM      8  H   UNL     1      -4.433  -4.700   0.021  0.00  0.00    +0.192 HD
ENDROOT
BRANCH   1  10
ATOM      9  C   UNL     1      -1.263  -0.761   0.011  0.00  0.00    +0.138 C 
ATOM     10  N   UNL     1      -1.242  -2.059   0.003  0.00  0.00    -0.188 NA
BRANCH   9  16
ATOM     11  C   UNL     1      -0.017   1.393   0.010  0.00  0.00    +0.012 A 
ATOM     12  C   UNL     1       1.169   2.096   0.002  0.00  0.00    +0.039 A 
ATOM     13  C   UNL     1       2.379   1.419  -0.013  0.00  0.00    +0.123 A 
ATOM     14  C   UNL     1       2.404   0.033  -0.021  0.00  0.00    +0.039 A 
ATOM     15  C   UNL     1       1.224  -0.680  -0.014  0.00  0.00    +0.012 A 
ATOM     16  C   UNL     1       0.002  -0.004   0.002  0.00  0.00    -0.005 A 
ATOM     17  F   UNL     1       3.538   2.113  -0.020  0.00  0.00    -0.205 F 
ENDBRANCH   9  16
ENDBRANCH   1  10
BRANCH   4  18
ATOM     18  S   UNL     1      -0.592  -7.576  -0.023  0.00  0.00    -0.075 S 
BRANCH  18  19
ATOM     19  C   UNL     1      -1.683  -9.026  -0.025  0.00  0.00    +0.173 C 
BRANCH  19  20
ATOM     20  C   UNL     1      -0.849 -10.281  -0.036  0.00  0.00    +0.224 C 
ATOM     21  O   UNL     1       0.361 -10.206  -0.042  0.00  0.00    -0.275 OA
ATOM     22  N   UNL     1      -1.449 -11.488  -0.039  0.00  0.00    -0.311 N 
ATOM     23  H   UNL     1      -2.417 -11.549  -0.035  0.00  0.00    +0.149 HD
BRANCH  22  24
ATOM     24  C   UNL     1      -0.639 -12.709  -0.050  0.00  0.00    +0.079 C 
ATOM     25  C   UNL     1      -0.260 -13.057  -1.490  0.00  0.00    +0.010 C 
ATOM     26  C   UNL     1       0.586 -14.332  -1.501  0.00  0.00    +0.009 C 
ATOM     27  C   UNL     1      -0.218 -15.483  -0.894  0.00  0.00    -0.010 C 
ATOM     28  C   UNL     1      -1.489 -15.707  -1.716  0.00  0.00    +0.007 C 
ATOM     29  C   UNL     1      -2.335 -14.432  -1.705  0.00  0.00    -0.010 C 
ATOM     30  C   UNL     1      -1.531 -13.281  -2.312  0.00  0.00    +0.009 C 
ATOM     31  C   UNL     1      -2.715 -14.084  -0.264  0.00  0.00    +0.009 C 
ATOM     32  C   UNL     1      -1.444 -13.860   0.558  0.00  0.00    +0.010 C 
ATOM     33  C   UNL     1      -0.598 -15.135   0.547  0.00  0.00    +0.009 C 
ENDBRANCH  22  24
ENDBRANCH  19  20
ENDBRANCH  18  19
ENDBRANCH   4  18
TORSDOF 6
