REMARK  Name = ZINC09041474
REMARK  8 active torsions:
REMARK  status: ('A' for Active; 'I' for Inactive)
REMARK    1  A    between atoms: C_1  and  C_2
REMARK    2  A    between atoms: C_2  and  N_58
REMARK    3  A    between atoms: C_15  and  C_17
REMARK    4  A    between atoms: C_18  and  O_33
REMARK    5  A    between atoms: C_20  and  O_32
REMARK    6  A    between atoms: N_21  and  C_24
REMARK    7  A    between atoms: C_26  and  C_31
REMARK    8  A    between atoms: C_28  and  C_30
REMARK                            x       y       z     vdW  Elec       q    Type
REMARK                         _______ _______ _______ _____ _____    ______ ____
ROOT
ATOM      1  C   UNL     1       4.984   4.191  -0.967  0.00  0.00    +0.071 A 
ATOM      2  C   UNL     1       6.044   4.992  -0.579  0.00  0.00    +0.224 A 
ATOM      3  N   UNL     1       6.809   5.576  -1.506  0.00  0.00    -0.161 NA
ATOM      4  C   UNL     1       6.570   5.414  -2.788  0.00  0.00    +0.306 A 
ATOM      5  N   UNL     1       5.538   4.642  -3.224  0.00  0.00    -0.231 N 
ATOM      6  C   UNL     1       4.734   4.022  -2.334  0.00  0.00    +0.267 A 
ATOM      7  O   UNL     1       3.805   3.328  -2.715  0.00  0.00    -0.267 OA
ENDROOT
BRANCH   1  20
ATOM      8  C   UNL     1       1.800   3.093   0.681  0.00  0.00    -0.073 C 
ATOM      9  C   UNL     1       1.764   1.643   0.178  0.00  0.00    +0.019 C 
ATOM     10  C   UNL     1       3.187   1.183  -0.011  0.00  0.00    -0.022 A 
ATOM     11  C   UNL     1       3.693  -0.174  -0.167  0.00  0.00    +0.003 A 
ATOM     12  C   UNL     1       3.105  -1.441  -0.200  0.00  0.00    +0.010 A 
ATOM     13  C   UNL     1       3.886  -2.550  -0.363  0.00  0.00    +0.001 A 
ATOM     14  C   UNL     1       5.263  -2.430  -0.497  0.00  0.00    +0.002 A 
ATOM     15  C   UNL     1       5.865  -1.191  -0.469  0.00  0.00    +0.026 A 
ATOM     16  C   UNL     1       5.090  -0.048  -0.303  0.00  0.00    +0.047 A 
ATOM     17  N   UNL     1       5.389   1.296  -0.236  0.00  0.00    -0.359 N 
ATOM     18  H   UNL     1       6.280   1.673  -0.302  0.00  0.00    +0.166 HD
ATOM     19  C   UNL     1       4.244   2.018  -0.062  0.00  0.00    +0.011 A 
ATOM     20  C   UNL     1       4.113   3.518   0.062  0.00  0.00    +0.021 C 
ATOM     21  N   UNL     1       2.697   3.877  -0.197  0.00  0.00    +0.388 N 
ATOM     22  H   UNL     1       2.474   3.663  -1.176  0.00  0.00    -0.080 HD
BRANCH  21  24
ATOM     23  C   UNL     1       1.099   5.707  -0.462  0.00  0.00    -0.017 C 
ATOM     24  C   UNL     1       2.494   5.322   0.036  0.00  0.00    -0.081 C 
ENDBRANCH  21  24
ENDBRANCH   1  20
BRANCH   5  25
ATOM     25  C   UNL     1       5.309   4.490  -4.598  0.00  0.00    +0.055 A 
ATOM     26  C   UNL     1       4.469   5.372  -5.265  0.00  0.00    +0.029 A 
ATOM     27  C   UNL     1       4.250   5.223  -6.620  0.00  0.00    -0.048 A 
ATOM     28  C   UNL     1       4.857   4.189  -7.311  0.00  0.00    +0.006 A 
ATOM     29  C   UNL     1       5.689   3.306  -6.648  0.00  0.00    -0.048 A 
ATOM     30  C   UNL     1       5.917   3.454  -5.294  0.00  0.00    +0.029 A 
ATOM     31  C   UNL     1       6.348   2.181  -7.404  0.00  0.00    +0.044 C 
ATOM     32  C   UNL     1       3.344   6.183  -7.347  0.00  0.00    +0.044 C 
ENDBRANCH   5  25
BRANCH   4  33
ATOM     33  O   UNL     1       7.363   6.027  -3.691  0.00  0.00    -0.479 OA
ATOM     34  H   UNL     1       8.086   6.567  -3.345  0.00  0.00    +0.295 HD
ENDBRANCH   4  33
BRANCH   2  35
ATOM     35  O   UNL     1       6.308   5.179   0.736  0.00  0.00    -0.492 OA
ATOM     36  H   UNL     1       7.067   5.753   0.906  0.00  0.00    +0.294 HD
ENDBRANCH   2  35
TORSDOF 5
