REMARK  Name = ZINC32106807
REMARK  8 active torsions:
REMARK  status: ('A' for Active; 'I' for Inactive)
REMARK    1  A    between atoms: C_1  and  C_2
REMARK    2  A    between atoms: C_2  and  C_39
REMARK    3  A    between atoms: C_6  and  C_14
REMARK    4  A    between atoms: C_7  and  N_11
REMARK    5  A    between atoms: C_15  and  C_16
REMARK    6  A    between atoms: C_16  and  C_18
REMARK    7  A    between atoms: C_20  and  C_33
REMARK    8  A    between atoms: C_23  and  N_30
REMARK                            x       y       z     vdW  Elec       q    Type
REMARK                         _______ _______ _______ _____ _____    ______ ____
ROOT
ATOM      1  C   UNL     1      -5.951  -5.816   1.413  0.00  0.00    +0.177 C 
ATOM      2  C   UNL     1      -6.526  -7.170   1.043  0.00  0.00    -0.012 C 
ATOM      3  C   UNL     1      -7.811  -7.462   1.507  0.00  0.00    +0.003 A 
ATOM      4  C   UNL     1      -8.421  -8.699   1.209  0.00  0.00    +0.042 A 
ATOM      5  C   UNL     1      -9.673  -8.957   1.674  0.00  0.00    +0.127 A 
ATOM      6  C   UNL     1     -10.369  -8.025   2.439  0.00  0.00    +0.034 A 
ATOM      7  C   UNL     1      -9.833  -6.814   2.759  0.00  0.00    +0.026 A 
ATOM      8  C   UNL     1      -8.542  -6.479   2.314  0.00  0.00    +0.041 A 
ATOM      9  N   UNL     1      -8.017  -5.290   2.629  0.00  0.00    -0.284 N 
ATOM     10  C   UNL     1      -6.816  -4.902   2.251  0.00  0.00    +0.232 C 
ATOM     11  O   UNL     1      -6.402  -3.804   2.576  0.00  0.00    -0.274 OA
ATOM     12  H   UNL     1      -8.548  -4.681   3.166  0.00  0.00    +0.155 HD
ENDROOT
BRANCH   2  13
ATOM     13  C   UNL     1      -5.792  -8.097   0.261  0.00  0.00    -0.020 A 
ATOM     14  C   UNL     1      -5.397  -9.328   0.809  0.00  0.00    +0.008 A 
ATOM     15  C   UNL     1      -4.684 -10.222   0.041  0.00  0.00    +0.001 A 
ATOM     16  C   UNL     1      -4.357  -9.910  -1.268  0.00  0.00    +0.000 A 
ATOM     17  C   UNL     1      -4.742  -8.698  -1.819  0.00  0.00    +0.001 A 
ATOM     18  C   UNL     1      -5.460  -7.793  -1.070  0.00  0.00    +0.008 A 
ENDBRANCH   2  13
BRANCH   5  19
ATOM     19  N   UNL     1     -10.310 -10.256   1.359  0.00  0.00    +0.056 N 
ATOM     20  O   UNL     1      -9.717 -11.075   0.695  0.00  0.00    -0.126 OA
ATOM     21  O   UNL     1     -11.422 -10.499   1.765  0.00  0.00    -0.126 OA
ENDBRANCH   5  19
BRANCH   1  22
ATOM     22  C   UNL     1      -4.664  -6.049   2.161  0.00  0.00    +0.172 C 
ATOM     23  O   UNL     1      -4.514  -7.064   2.811  0.00  0.00    -0.292 OA
BRANCH  22  25
ATOM     24  C   UNL     1      -2.477  -5.299   2.780  0.00  0.00    +0.014 C 
ATOM     25  C   UNL     1      -3.635  -5.090   2.107  0.00  0.00    +0.048 C 
BRANCH  24  31
ATOM     26  C   UNL     1       0.997   1.027   1.973  0.00  0.00    +0.104 C 
ATOM     27  C   UNL     1       0.725  -0.430   1.595  0.00  0.00    +0.248 C 
ATOM     28  O   UNL     1      -0.659  -0.761   1.818  0.00  0.00    -0.448 OA
ATOM     29  C   UNL     1      -0.661  -2.067   2.215  0.00  0.00    +0.168 A 
ATOM     30  C   UNL     1      -1.674  -3.003   2.266  0.00  0.00    +0.059 A 
ATOM     31  C   UNL     1      -1.404  -4.299   2.724  0.00  0.00    +0.009 A 
ATOM     32  C   UNL     1      -0.106  -4.637   3.128  0.00  0.00    +0.137 A 
ATOM     33  C   UNL     1       0.898  -3.697   3.074  0.00  0.00    +0.083 A 
ATOM     34  C   UNL     1       0.630  -2.412   2.620  0.00  0.00    +0.169 A 
ATOM     35  O   UNL     1       1.436  -1.321   2.475  0.00  0.00    -0.448 OA
ATOM     36  C   UNL     1       1.115  -0.688   0.139  0.00  0.00    +0.104 C 
BRANCH  32  37
ATOM     37  N   UNL     1       0.186  -6.005   3.613  0.00  0.00    +0.057 N 
ATOM     38  O   UNL     1       0.960  -6.170   4.527  0.00  0.00    -0.126 OA
ATOM     39  O   UNL     1      -0.349  -6.957   3.095  0.00  0.00    -0.126 OA
ENDBRANCH  32  37
ENDBRANCH  24  31
ENDBRANCH  22  25
ENDBRANCH   1  22
TORSDOF 6
