REMARK  Name = ZINC35971763
REMARK  8 active torsions:
REMARK  status: ('A' for Active; 'I' for Inactive)
REMARK    1  A    between atoms: C_1  and  C_2
REMARK    2  A    between atoms: C_5  and  C_8
REMARK    3  A    between atoms: N_13  and  C_16
REMARK    4  A    between atoms: C_16  and  C_18
REMARK    5  A    between atoms: C_16  and  C_19
REMARK    6  A    between atoms: N_21  and  C_22
REMARK    7  A    between atoms: N_29  and  C_33
REMARK    8  A    between atoms: C_33  and  C_34
REMARK                            x       y       z     vdW  Elec       q    Type
REMARK                         _______ _______ _______ _____ _____    ______ ____
ROOT
ATOM      1  C   UNL     1       0.055  -4.261  -0.018  0.00  0.00    +0.142 C 
ATOM      2  C   UNL     1      -1.369  -4.755   0.146  0.00  0.00    +0.058 C 
ATOM      3  C   UNL     1      -1.634  -5.565   1.191  0.00  0.00    +0.043 C 
ATOM      4  C   UNL     1      -3.107  -5.897   1.108  0.00  0.00    +0.160 C 
ATOM      5  N   UNL     1      -3.590  -5.183  -0.083  0.00  0.00    -0.281 N 
ATOM      6  C   UNL     1      -2.537  -4.531  -0.610  0.00  0.00    +0.247 C 
ATOM      7  O   UNL     1      -2.588  -3.837  -1.609  0.00  0.00    -0.270 OA
ATOM      8  N   UNL     1      -0.656  -5.928   2.072  0.00  0.00    -0.253 N 
ATOM      9  C   UNL     1       0.617  -5.522   1.974  0.00  0.00    +0.307 C 
ATOM     10  O   UNL     1       1.420  -5.898   2.806  0.00  0.00    -0.252 OA
ATOM     11  N   UNL     1       1.035  -4.709   0.985  0.00  0.00    -0.288 N 
ATOM     12  H   UNL     1       1.962  -4.427   0.934  0.00  0.00    +0.151 HD
ENDROOT
BRANCH   1  17
ATOM     13  C   UNL     1      -0.050   1.516   0.045  0.00  0.00    +0.044 C 
ATOM     14  C   UNL     1      -0.023   0.010   0.029  0.00  0.00    -0.050 A 
ATOM     15  C   UNL     1      -0.017  -0.668  -1.176  0.00  0.00    +0.004 A 
ATOM     16  C   UNL     1       0.008  -2.050  -1.191  0.00  0.00    +0.006 A 
ATOM     17  C   UNL     1       0.028  -2.755  -0.002  0.00  0.00    -0.023 A 
ATOM     18  C   UNL     1       0.023  -2.076   1.203  0.00  0.00    +0.006 A 
ATOM     19  C   UNL     1       0.002  -0.694   1.218  0.00  0.00    +0.004 A 
ENDBRANCH   1  17
BRANCH   5  20
ATOM     20  C   UNL     1      -4.960  -5.181  -0.600  0.00  0.00    +0.160 C 
ATOM     21  C   UNL     1      -5.498  -3.749  -0.613  0.00  0.00    +0.038 C 
BRANCH  20  22
ATOM     22  C   UNL     1      -4.970  -5.734  -2.002  0.00  0.00    +0.237 C 
ATOM     23  O   UNL     1      -3.933  -6.094  -2.518  0.00  0.00    -0.273 OA
ATOM     24  N   UNL     1      -6.130  -5.829  -2.681  0.00  0.00    -0.284 N 
ATOM     25  H   UNL     1      -6.967  -5.604  -2.245  0.00  0.00    +0.155 HD
BRANCH  24  26
ATOM     26  C   UNL     1      -6.126  -6.251  -4.016  0.00  0.00    +0.034 A 
ATOM     27  C   UNL     1      -7.032  -5.709  -4.919  0.00  0.00    +0.026 A 
ATOM     28  C   UNL     1      -7.027  -6.127  -6.235  0.00  0.00    +0.040 A 
ATOM     29  C   UNL     1      -6.121  -7.086  -6.655  0.00  0.00    +0.124 A 
ATOM     30  C   UNL     1      -5.217  -7.628  -5.756  0.00  0.00    +0.040 A 
ATOM     31  C   UNL     1      -5.214  -7.208  -4.441  0.00  0.00    +0.026 A 
ATOM     32  F   UNL     1      -6.118  -7.494  -7.943  0.00  0.00    -0.205 F 
ENDBRANCH  24  26
ENDBRANCH  20  22
ENDBRANCH   5  20
BRANCH   8  33
ATOM     33  C   UNL     1      -1.018  -6.810   3.184  0.00  0.00    +0.141 C 
BRANCH  33  34
ATOM     34  C   UNL     1      -0.841  -8.246   2.764  0.00  0.00    -0.015 C 
ATOM     35  C   UNL     1      -0.083  -9.047   3.471  0.00  0.00    +0.005 C 
ENDBRANCH  33  34
ENDBRANCH   8  33
TORSDOF 6
