REMARK  Name = ZINC66971232
REMARK  6 active torsions:
REMARK  status: ('A' for Active; 'I' for Inactive)
REMARK    1  A    between atoms: C_1  and  C_2
REMARK    2  A    between atoms: C_2  and  C_4
REMARK    3  A    between atoms: C_2  and  N_15
REMARK    4  A    between atoms: N_15  and  C_16
REMARK    5  A    between atoms: C_16  and  C_17
REMARK    6  A    between atoms: C_20  and  C_22
REMARK                            x       y       z     vdW  Elec       q    Type
REMARK                         _______ _______ _______ _____ _____    ______ ____
ROOT
ATOM      1  C   UNL     1      -0.019   1.526   0.010  0.00  0.00    +0.029 C 
ATOM      2  C   UNL     1       0.002  -0.004   0.002  0.00  0.00    +0.081 C 
ENDROOT
BRANCH   2   3
ATOM      3  C   UNL     1      -1.412  -0.526   0.013  0.00  0.00    -0.029 A 
ATOM      4  C   UNL     1      -2.140  -0.568  -1.162  0.00  0.00    +0.009 A 
ATOM      5  C   UNL     1      -3.438  -1.046  -1.161  0.00  0.00    +0.048 A 
ATOM      6  C   UNL     1      -4.010  -1.484   0.021  0.00  0.00    +0.142 A 
ATOM      7  C   UNL     1      -3.276  -1.440   1.205  0.00  0.00    +0.076 A 
ATOM      8  C   UNL     1      -1.975  -0.966   1.196  0.00  0.00    +0.032 A 
ATOM      9  N   UNL     1      -3.869  -1.884   2.396  0.00  0.00    -0.280 N 
ATOM     10  C   UNL     1      -4.996  -2.626   2.329  0.00  0.00    +0.255 C 
ATOM     11  O   UNL     1      -5.544  -2.995   3.346  0.00  0.00    -0.272 OA
ATOM     12  C   UNL     1      -5.571  -2.994   0.984  0.00  0.00    +0.325 C 
ATOM     13  O   UNL     1      -5.284  -1.958   0.040  0.00  0.00    -0.481 OA
ATOM     14  H   UNL     1      -3.476  -1.663   3.254  0.00  0.00    +0.155 HD
ENDBRANCH   2   3
BRANCH   2  15
ATOM     15  N   UNL     1       0.690  -0.478  -1.207  0.00  0.00    -0.305 NA
ATOM     16  H   UNL     1       0.337  -1.379  -1.493  0.00  0.00    +0.123 HD
BRANCH  15  17
ATOM     17  C   UNL     1       2.144  -0.522  -1.002  0.00  0.00    +0.125 C 
BRANCH  17  18
ATOM     18  C   UNL     1       2.813  -1.012  -2.260  0.00  0.00    +0.024 A 
ATOM     19  C   UNL     1       3.282  -0.307  -3.324  0.00  0.00    +0.124 A 
ATOM     20  N   UNL     1       3.840  -0.938  -4.331  0.00  0.00    -0.247 NA
ATOM     21  C   UNL     1       3.958  -2.258  -4.336  0.00  0.00    +0.108 A 
ATOM     22  S   UNL     1       3.219  -2.679  -2.764  0.00  0.00    -0.071 S 
BRANCH  21  23
ATOM     23  C   UNL     1       4.548  -3.144  -5.363  0.00  0.00    +0.007 A 
ATOM     24  C   UNL     1       4.565  -4.526  -5.170  0.00  0.00    +0.010 A 
ATOM     25  C   UNL     1       5.117  -5.346  -6.132  0.00  0.00    +0.001 A 
ATOM     26  C   UNL     1       5.652  -4.802  -7.286  0.00  0.00    +0.000 A 
ATOM     27  C   UNL     1       5.637  -3.433  -7.484  0.00  0.00    +0.001 A 
ATOM     28  C   UNL     1       5.083  -2.602  -6.532  0.00  0.00    +0.010 A 
ENDBRANCH  21  23
ENDBRANCH  17  18
ENDBRANCH  15  17
ENDBRANCH   2  15
TORSDOF 5
