REMARK  Name = ZINC57915209
REMARK  5 active torsions:
REMARK  status: ('A' for Active; 'I' for Inactive)
REMARK    1  A    between atoms: C_1  and  N_2
REMARK    2  A    between atoms: N_2  and  C_3
REMARK    3  A    between atoms: C_10  and  C_12
REMARK    4  A    between atoms: N_14  and  C_15
REMARK    5  A    between atoms: C_21  and  C_23
REMARK                            x       y       z     vdW  Elec       q    Type
REMARK                         _______ _______ _______ _____ _____    ______ ____
ROOT
ATOM      1  C   UNL     1      -1.125   0.408  -2.156  0.00  0.00    +0.300 C 
ATOM      2  O   UNL     1      -0.367   1.322  -2.409  0.00  0.00    -0.265 OA
ATOM      3  N   UNL     1      -2.054   0.035  -3.058  0.00  0.00    -0.304 N 
ATOM      4  H   UNL     1      -2.660  -0.696  -2.856  0.00  0.00    +0.149 HD
ENDROOT
BRANCH   3   5
ATOM      5  C   UNL     1      -2.149   0.731  -4.344  0.00  0.00    +0.085 C 
ATOM      6  C   UNL     1      -1.155   0.117  -5.332  0.00  0.00    +0.023 C 
ATOM      7  C   UNL     1      -1.482  -1.365  -5.529  0.00  0.00    +0.002 C 
ATOM      8  C   UNL     1      -2.902  -1.504  -6.081  0.00  0.00    +0.001 C 
ATOM      9  C   UNL     1      -3.896  -0.890  -5.093  0.00  0.00    +0.014 C 
ATOM     10  C   UNL     1      -3.569   0.591  -4.896  0.00  0.00    +0.113 C 
BRANCH  10  11
ATOM     11  C   UNL     1      -4.563   1.206  -3.908  0.00  0.00    +0.395 C 
ATOM     12  F   UNL     1      -4.264   2.561  -3.727  0.00  0.00    -0.170 F 
ATOM     13  F   UNL     1      -5.861   1.078  -4.412  0.00  0.00    -0.170 F 
ATOM     14  F   UNL     1      -4.472   0.541  -2.680  0.00  0.00    -0.170 F 
ENDBRANCH  10  11
ENDBRANCH   3   5
BRANCH   1  17
ATOM     15  C   UNL     1       0.775   1.216  -0.224  0.00  0.00    +0.139 C 
ATOM     16  N   UNL     1      -0.118   0.092   0.068  0.00  0.00    -0.267 N 
ATOM     17  C   UNL     1      -1.028  -0.302  -0.846  0.00  0.00    +0.305 C 
ATOM     18  O   UNL     1      -1.767  -1.233  -0.605  0.00  0.00    -0.265 OA
BRANCH  16  19
ATOM     19  C   UNL     1      -0.028  -0.573   1.294  0.00  0.00    +0.037 A 
ATOM     20  C   UNL     1       0.164  -1.948   1.328  0.00  0.00    +0.026 A 
ATOM     21  C   UNL     1       0.254  -2.602   2.541  0.00  0.00    +0.040 A 
ATOM     22  C   UNL     1       0.152  -1.888   3.723  0.00  0.00    +0.124 A 
ATOM     23  C   UNL     1      -0.040  -0.517   3.692  0.00  0.00    +0.040 A 
ATOM     24  C   UNL     1      -0.124   0.142   2.482  0.00  0.00    +0.026 A 
ATOM     25  F   UNL     1       0.239  -2.530   4.909  0.00  0.00    -0.205 F 
ENDBRANCH  16  19
ENDBRANCH   1  17
TORSDOF 4
