REMARK  Name = ZINC14720389
REMARK  18 active torsions:
REMARK  status: ('A' for Active; 'I' for Inactive)
REMARK    1  A    between atoms: C_1  and  C_2
REMARK    2  A    between atoms: C_2  and  C_3
REMARK    3  A    between atoms: C_3  and  C_4
REMARK    4  A    between atoms: C_4  and  N_5
REMARK    5  A    between atoms: N_5  and  C_6
REMARK    6  A    between atoms: C_7  and  N_19
REMARK    7  A    between atoms: N_8  and  C_15
REMARK    8  A    between atoms: C_15  and  C_16
REMARK    9  A    between atoms: C_16  and  C_17
REMARK   10  A    between atoms: C_16  and  C_18
REMARK   11  A    between atoms: C_20  and  C_22
REMARK   12  A    between atoms: C_24  and  O_33
REMARK   13  A    between atoms: C_25  and  O_29
REMARK   14  A    between atoms: O_29  and  C_30
REMARK   15  A    between atoms: C_30  and  C_31
REMARK   16  A    between atoms: C_31  and  C_32
REMARK   17  A    between atoms: O_33  and  C_34
REMARK   18  A    between atoms: C_34  and  C_35
REMARK                            x       y       z     vdW  Elec       q    Type
REMARK                         _______ _______ _______ _____ _____    ______ ____
ROOT
ATOM      1  N   UNL     1       0.746  -3.098   2.389  0.00  0.00    -0.260 N 
ATOM      2  C   UNL     1       0.279  -2.609   3.555  0.00  0.00    +0.251 C 
ATOM      3  O   UNL     1      -0.110  -3.370   4.421  0.00  0.00    -0.270 OA
ENDROOT
BRANCH   1   4
ATOM      4  C   UNL     1       1.114  -2.216   1.352  0.00  0.00    +0.140 A 
ATOM      5  C   UNL     1       0.438  -2.227   0.149  0.00  0.00    +0.127 A 
ATOM      6  N   UNL     1       0.820  -1.354  -0.844  0.00  0.00    -0.280 N 
ATOM      7  C   UNL     1       1.843  -0.504  -0.646  0.00  0.00    +0.331 A 
ATOM      8  O   UNL     1       2.169   0.256  -1.538  0.00  0.00    -0.246 OA
ATOM      9  N   UNL     1       2.510  -0.475   0.521  0.00  0.00    -0.273 N 
ATOM     10  H   UNL     1       3.262   0.172   0.645  0.00  0.00    +0.173 HD
ATOM     11  C   UNL     1       2.176  -1.309   1.526  0.00  0.00    +0.277 A 
ATOM     12  O   UNL     1       2.790  -1.278   2.579  0.00  0.00    -0.266 OA
BRANCH   5  13
ATOM     13  N   UNL     1      -0.604  -3.100  -0.056  0.00  0.00    -0.343 N 
ATOM     14  H   UNL     1      -1.040  -3.140  -0.921  0.00  0.00    +0.144 HD
ATOM     15  H   UNL     1      -0.903  -3.675   0.666  0.00  0.00    +0.144 HD
ENDBRANCH   5  13
BRANCH   6  16
ATOM     16  C   UNL     1       0.111  -1.355  -2.126  0.00  0.00    +0.131 C 
BRANCH  16  17
ATOM     17  C   UNL     1      -1.059  -0.371  -2.063  0.00  0.00    +0.003 C 
ATOM     18  C   UNL     1      -1.723  -0.279  -3.438  0.00  0.00    +0.009 C 
ATOM     19  C   UNL     1      -2.082  -0.861  -1.035  0.00  0.00    +0.009 C 
ENDBRANCH  16  17
ENDBRANCH   6  16
ENDBRANCH   1   4
BRANCH   2  20
ATOM     20  C   UNL     1       0.238  -1.151   3.781  0.00  0.00    +0.042 A 
ATOM     21  C   UNL     1       0.361  -0.639   5.076  0.00  0.00    +0.062 A 
ATOM     22  C   UNL     1       0.323   0.726   5.282  0.00  0.00    +0.164 A 
ATOM     23  C   UNL     1       0.161   1.590   4.201  0.00  0.00    +0.180 A 
ATOM     24  C   UNL     1       0.039   1.082   2.914  0.00  0.00    +0.087 A 
ATOM     25  C   UNL     1       0.082  -0.280   2.701  0.00  0.00    +0.037 A 
ATOM     26 CL   UNL     1      -0.163   2.164   1.571  0.00  0.00    -0.080 Cl
BRANCH  23  27
ATOM     27  O   UNL     1       0.123   2.933   4.406  0.00  0.00    -0.487 OA
BRANCH  27  28
ATOM     28  C   UNL     1       1.369   3.631   4.361  0.00  0.00    +0.229 C 
BRANCH  28  29
ATOM     29  C   UNL     1       1.127   5.121   4.613  0.00  0.00    +0.038 C 
ATOM     30  C   UNL     1       2.461   5.869   4.565  0.00  0.00    +0.007 C 
ENDBRANCH  28  29
ENDBRANCH  27  28
ENDBRANCH  23  27
BRANCH  22  31
ATOM     31  O   UNL     1       0.443   1.226   6.541  0.00  0.00    -0.489 OA
BRANCH  31  32
ATOM     32  C   UNL     1       0.606   0.283   7.602  0.00  0.00    +0.226 C 
ATOM     33  C   UNL     1       0.723   1.028   8.933  0.00  0.00    +0.048 C 
ENDBRANCH  31  32
ENDBRANCH  22  31
ENDBRANCH   2  20
BRANCH   1  34
ATOM     34  C   UNL     1       0.872  -4.545   2.200  0.00  0.00    +0.114 C 
BRANCH  34  35
ATOM     35  C   UNL     1       2.196  -5.024   2.797  0.00  0.00    +0.019 C 
BRANCH  35  37
ATOM     36  C   UNL     1       3.652  -7.015   3.196  0.00  0.00    +0.004 C 
ATOM     37  C   UNL     1       2.328  -6.536   2.599  0.00  0.00    -0.002 C 
ENDBRANCH  35  37
ENDBRANCH  34  35
ENDBRANCH   1  34
TORSDOF 13
