REMARK  Name = ZINC18068136
REMARK  7 active torsions:
REMARK  status: ('A' for Active; 'I' for Inactive)
REMARK    1  A    between atoms: C_1  and  C_2
REMARK    2  A    between atoms: C_2  and  O_3
REMARK    3  A    between atoms: O_3  and  C_4
REMARK    4  A    between atoms: C_6  and  C_11
REMARK    5  A    between atoms: C_9  and  O_10
REMARK    6  A    between atoms: N_19  and  C_22
REMARK    7  A    between atoms: N_29  and  C_30
REMARK                            x       y       z     vdW  Elec       q    Type
REMARK                         _______ _______ _______ _____ _____    ______ ____
ROOT
ATOM      1  C   UNL     1       0.654  -4.954  -0.018  0.00  0.00    +0.157 C 
ATOM      2  C   UNL     1       0.825  -5.606  -1.385  0.00  0.00    +0.145 C 
ATOM      3  C   UNL     1      -0.086  -6.865  -1.121  0.00  0.00    +0.249 C 
ATOM      4  C   UNL     1      -0.351  -7.319  -2.471  0.00  0.00    +0.259 C 
ATOM      5  O   UNL     1      -0.503  -8.462  -2.846  0.00  0.00    -0.272 OA
ATOM      6  N   UNL     1      -0.395  -6.181  -3.234  0.00  0.00    -0.208 N 
ATOM      7  C   UNL     1       0.099  -5.073  -2.580  0.00  0.00    +0.235 C 
ATOM      8  O   UNL     1      -0.030  -3.909  -2.895  0.00  0.00    -0.274 OA
ATOM      9  O   UNL     1       0.370  -7.322   0.084  0.00  0.00    -0.257 OA
ATOM     10  N   UNL     1       0.453  -6.111   0.902  0.00  0.00    -0.244 N 
ENDROOT
BRANCH   1  13
ATOM     11  C   UNL     1      -1.513  -1.866  -0.222  0.00  0.00    +0.162 A 
ATOM     12  C   UNL     1      -0.404  -2.696  -0.231  0.00  0.00    +0.055 A 
ATOM     13  C   UNL     1      -0.553  -4.052  -0.008  0.00  0.00    -0.018 A 
ATOM     14  C   UNL     1      -1.809  -4.583   0.224  0.00  0.00    +0.009 A 
ATOM     15  C   UNL     1      -2.920  -3.760   0.233  0.00  0.00    +0.049 A 
ATOM     16  C   UNL     1      -2.776  -2.399   0.017  0.00  0.00    +0.158 A 
BRANCH  16  17
ATOM     17  O   UNL     1      -3.866  -1.587   0.032  0.00  0.00    -0.503 OA
ATOM     18  H   UNL     1      -4.291  -1.483  -0.831  0.00  0.00    +0.292 HD
ENDBRANCH  16  17
BRANCH  11  19
ATOM     19  O   UNL     1      -1.367  -0.531  -0.441  0.00  0.00    -0.489 OA
BRANCH  19  21
ATOM     20  C   UNL     1      -0.076   1.459  -0.902  0.00  0.00    +0.048 C 
ATOM     21  C   UNL     1      -0.041  -0.054  -0.679  0.00  0.00    +0.226 C 
ENDBRANCH  19  21
ENDBRANCH  11  19
ENDBRANCH   1  13
BRANCH   6  22
ATOM     22  C   UNL     1      -0.878  -6.147  -4.550  0.00  0.00    +0.044 A 
ATOM     23  C   UNL     1      -0.882  -4.953  -5.258  0.00  0.00    +0.024 A 
ATOM     24  C   UNL     1      -1.359  -4.922  -6.554  0.00  0.00    +0.002 A 
ATOM     25  C   UNL     1      -1.831  -6.079  -7.146  0.00  0.00    +0.000 A 
ATOM     26  C   UNL     1      -1.828  -7.270  -6.443  0.00  0.00    +0.002 A 
ATOM     27  C   UNL     1      -1.348  -7.308  -5.149  0.00  0.00    +0.024 A 
ENDBRANCH   6  22
BRANCH  10  28
ATOM     28  C   UNL     1       0.369  -6.047   2.295  0.00  0.00    +0.065 A 
ATOM     29  C   UNL     1       0.469  -4.823   2.943  0.00  0.00    +0.028 A 
ATOM     30  C   UNL     1       0.385  -4.763   4.320  0.00  0.00    +0.002 A 
ATOM     31  C   UNL     1       0.203  -5.921   5.054  0.00  0.00    +0.000 A 
ATOM     32  C   UNL     1       0.102  -7.142   4.412  0.00  0.00    +0.002 A 
ATOM     33  C   UNL     1       0.180  -7.208   3.034  0.00  0.00    +0.028 A 
ENDBRANCH  10  28
TORSDOF 6
