REMARK  Name = ZINC38740530
REMARK  7 active torsions:
REMARK  status: ('A' for Active; 'I' for Inactive)
REMARK    1  A    between atoms: C_13  and  C_15
REMARK    2  A    between atoms: C_21  and  C_23
REMARK    3  A    between atoms: N_25  and  C_26
REMARK    4  A    between atoms: C_26  and  C_27
REMARK    5  A    between atoms: C_27  and  C_28
REMARK    6  A    between atoms: C_31  and  S_34
REMARK    7  A    between atoms: S_34  and  N_37
REMARK                            x       y       z     vdW  Elec       q    Type
REMARK                         _______ _______ _______ _____ _____    ______ ____
ROOT
ATOM      1  C   UNL     1       0.164  -6.629   1.195  0.00  0.00    +0.091 C 
ATOM      2  C   UNL     1      -0.695  -6.206   2.388  0.00  0.00    +0.040 C 
ATOM      3  C   UNL     1      -0.077  -6.689   3.667  0.00  0.00    -0.030 C 
ATOM      4  C   UNL     1       0.825  -7.614   3.732  0.00  0.00    -0.030 C 
ATOM      5  C   UNL     1       1.387  -8.327   2.537  0.00  0.00    +0.040 C 
ATOM      6  C   UNL     1       0.474  -8.126   1.321  0.00  0.00    +0.091 C 
ENDROOT
BRANCH   1  19
ATOM      7  C   UNL     1       4.377  -1.887  -4.394  0.00  0.00    +0.005 A 
ATOM      8  C   UNL     1       3.432  -1.757  -5.403  0.00  0.00    +0.018 A 
ATOM      9  C   UNL     1       2.267  -2.494  -5.337  0.00  0.00    +0.084 A 
ATOM     10  N   UNL     1       2.042  -3.317  -4.330  0.00  0.00    -0.350 N 
ATOM     11  C   UNL     1       2.918  -3.469  -3.349  0.00  0.00    +0.099 A 
ATOM     12  C   UNL     1       4.114  -2.757  -3.352  0.00  0.00    +0.042 A 
ATOM     13  N   UNL     1       2.641  -4.346  -2.308  0.00  0.00    -0.314 N 
ATOM     14  C   UNL     1       3.644  -4.613  -1.267  0.00  0.00    +0.125 C 
ATOM     15  C   UNL     1       3.021  -4.316   0.102  0.00  0.00    +0.126 C 
ATOM     16  N   UNL     1       1.720  -4.993   0.183  0.00  0.00    -0.298 N 
ATOM     17  C   UNL     1       0.716  -4.726  -0.857  0.00  0.00    +0.126 C 
ATOM     18  C   UNL     1       1.338  -5.020  -2.224  0.00  0.00    +0.125 C 
ATOM     19  C   UNL     1       1.451  -5.844   1.193  0.00  0.00    +0.220 C 
ATOM     20  O   UNL     1       2.244  -5.978   2.100  0.00  0.00    -0.275 OA
ATOM     21  H   UNL     1       1.215  -3.823  -4.308  0.00  0.00    +0.166 HD
ENDBRANCH   1  19
BRANCH   6  22
ATOM     22  C   UNL     1       1.167  -8.607   0.072  0.00  0.00    +0.217 C 
ATOM     23  O   UNL     1       1.393  -7.832  -0.833  0.00  0.00    -0.275 OA
ATOM     24  N   UNL     1       1.535  -9.899  -0.039  0.00  0.00    -0.315 N 
ATOM     25  H   UNL     1       1.354 -10.519   0.685  0.00  0.00    +0.149 HD
BRANCH  24  26
ATOM     26  C   UNL     1       2.209 -10.367  -1.253  0.00  0.00    +0.109 C 
BRANCH  26  27
ATOM     27  C   UNL     1       2.516 -11.860  -1.123  0.00  0.00    +0.054 C 
BRANCH  27  28
ATOM     28  C   UNL     1       3.209 -12.341  -2.371  0.00  0.00    -0.046 A 
ATOM     29  C   UNL     1       2.466 -12.817  -3.435  0.00  0.00    +0.005 A 
ATOM     30  C   UNL     1       3.102 -13.258  -4.580  0.00  0.00    +0.029 A 
ATOM     31  C   UNL     1       4.481 -13.223  -4.662  0.00  0.00    +0.105 A 
ATOM     32  C   UNL     1       5.225 -12.746  -3.599  0.00  0.00    +0.029 A 
ATOM     33  C   UNL     1       4.589 -12.301  -2.455  0.00  0.00    +0.005 A 
BRANCH  31  34
ATOM     34  S   UNL     1       5.292 -13.787  -6.122  0.00  0.00    +0.056 S 
ATOM     35  O   UNL     1       6.608 -14.158  -5.737  0.00  0.00    -0.153 OA
ATOM     36  O   UNL     1       4.400 -14.691  -6.758  0.00  0.00    -0.153 OA
BRANCH  34  37
ATOM     37  N   UNL     1       5.444 -12.483  -7.132  0.00  0.00    -0.204 NA
ATOM     38  H   UNL     1       5.108 -11.615  -6.858  0.00  0.00    +0.144 HD
ATOM     39  H   UNL     1       5.869 -12.587  -7.997  0.00  0.00    +0.144 HD
ENDBRANCH  34  37
ENDBRANCH  31  34
ENDBRANCH  27  28
ENDBRANCH  26  27
ENDBRANCH  24  26
ENDBRANCH   6  22
TORSDOF 7
