REMARK  Name = ZINC01563394
REMARK  6 active torsions:
REMARK  status: ('A' for Active; 'I' for Inactive)
REMARK    1  A    between atoms: C_1  and  C_2
REMARK    2  A    between atoms: C_2  and  C_3
REMARK    3  A    between atoms: C_3  and  S_4
REMARK    4  A    between atoms: S_4  and  C_5
REMARK    5  A    between atoms: C_11  and  N_21
REMARK    6  A    between atoms: C_13  and  C_15
REMARK                            x       y       z     vdW  Elec       q    Type
REMARK                         _______ _______ _______ _____ _____    ______ ____
ROOT
ATOM      1  C   UNL     1      -1.138   3.415   0.031  0.00  0.00    +0.137 A 
ATOM      2  C   UNL     1       0.098   4.105   0.023  0.00  0.00    +0.151 A 
ATOM      3  N   UNL     1       1.236   3.438   0.009  0.00  0.00    -0.209 NA
ATOM      4  C   UNL     1       1.220   2.099   0.002  0.00  0.00    +0.186 A 
ATOM      5  C   UNL     1      -0.017   1.412   0.010  0.00  0.00    +0.149 A 
ATOM      6  N   UNL     1      -1.164   2.096   0.030  0.00  0.00    -0.230 NA
ATOM      7  C   UNL     1       0.002  -0.004   0.002  0.00  0.00    +0.148 A 
ATOM      8  N   UNL     1       1.175  -0.619  -0.012  0.00  0.00    -0.211 NA
ATOM      9  C   UNL     1       2.316   0.067  -0.020  0.00  0.00    +0.164 A 
ATOM     10  N   UNL     1       2.353   1.387  -0.013  0.00  0.00    -0.206 NA
ATOM     11  N   UNL     1       0.113   5.489   0.031  0.00  0.00    -0.341 N 
ATOM     12  H   UNL     1       0.958   5.965   0.025  0.00  0.00    +0.144 HD
ATOM     13  H   UNL     1      -0.722   5.983   0.041  0.00  0.00    +0.144 HD
ENDROOT
BRANCH   9  14
ATOM     14  C   UNL     1       3.596  -0.681  -0.036  0.00  0.00    +0.019 A 
ATOM     15  C   UNL     1       4.808   0.007  -0.049  0.00  0.00    +0.011 A 
ATOM     16  C   UNL     1       5.996  -0.695  -0.059  0.00  0.00    +0.001 A 
ATOM     17  C   UNL     1       5.986  -2.078  -0.067  0.00  0.00    +0.000 A 
ATOM     18  C   UNL     1       4.786  -2.766  -0.059  0.00  0.00    +0.001 A 
ATOM     19  C   UNL     1       3.591  -2.075  -0.043  0.00  0.00    +0.011 A 
ENDBRANCH   9  14
BRANCH   7  20
ATOM     20  N   UNL     1      -1.174  -0.727   0.010  0.00  0.00    -0.341 N 
ATOM     21  H   UNL     1      -2.027  -0.265   0.021  0.00  0.00    +0.144 HD
ATOM     22  H   UNL     1      -1.148  -1.696   0.004  0.00  0.00    +0.144 HD
ENDBRANCH   7  20
BRANCH   1  23
ATOM     23  S   UNL     1      -2.648   4.322   0.051  0.00  0.00    -0.103 S 
BRANCH  23  24
ATOM     24  C   UNL     1      -3.835   2.956   0.055  0.00  0.00    +0.076 C 
BRANCH  24  26
ATOM     25  C   UNL     1      -6.262   2.362   0.075  0.00  0.00    +0.004 C 
ATOM     26  C   UNL     1      -5.259   3.517   0.071  0.00  0.00    +0.008 C 
ENDBRANCH  24  26
ENDBRANCH  23  24
ENDBRANCH   1  23
TORSDOF 5
