REMARK  Name = ZINC10233102
REMARK  8 active torsions:
REMARK  status: ('A' for Active; 'I' for Inactive)
REMARK    1  A    between atoms: C_1  and  C_2
REMARK    2  A    between atoms: C_7  and  C_8
REMARK    3  A    between atoms: C_14  and  C_23
REMARK    4  A    between atoms: N_16  and  C_19
REMARK    5  A    between atoms: C_19  and  C_20
REMARK    6  A    between atoms: C_20  and  N_52
REMARK    7  A    between atoms: C_21  and  N_52
REMARK    8  A    between atoms: C_22  and  N_52
REMARK                            x       y       z     vdW  Elec       q    Type
REMARK                         _______ _______ _______ _____ _____    ______ ____
ROOT
ATOM      1  C   UNL     1       2.881  -4.094  -0.046  0.00  0.00    +0.044 C 
ATOM      2  C   UNL     1       2.724  -2.595  -0.037  0.00  0.00    -0.047 A 
ATOM      3  C   UNL     1       1.465  -2.035  -0.022  0.00  0.00    +0.019 A 
ATOM      4  C   UNL     1       1.330  -0.649  -0.014  0.00  0.00    +0.065 A 
ATOM      5  C   UNL     1       2.467   0.178  -0.021  0.00  0.00    +0.140 A 
ATOM      6  C   UNL     1       3.728  -0.410  -0.036  0.00  0.00    +0.050 A 
ATOM      7  C   UNL     1       3.849  -1.782  -0.043  0.00  0.00    -0.044 A 
ATOM      8  C   UNL     1       5.220  -2.409  -0.059  0.00  0.00    +0.044 C 
ATOM      9  O   UNL     1       2.337   1.517  -0.012  0.00  0.00    -0.450 OA
ATOM     10  C   UNL     1       1.148   2.152   0.003  0.00  0.00    +0.199 A 
ATOM     11  C   UNL     1      -0.018   1.462   0.010  0.00  0.00    +0.072 A 
ATOM     12  C   UNL     1       0.002  -0.004   0.002  0.00  0.00    +0.199 A 
ATOM     13  O   UNL     1      -1.026  -0.658   0.008  0.00  0.00    -0.287 OA
ATOM     14  C   UNL     1      -1.139   2.467   0.032  0.00  0.00    +0.144 C 
ATOM     15  N   UNL     1      -0.499   3.788   0.028  0.00  0.00    -0.285 N 
ATOM     16  C   UNL     1       0.833   3.603   0.014  0.00  0.00    +0.283 C 
ATOM     17  O   UNL     1       1.658   4.494   0.011  0.00  0.00    -0.267 OA
ENDROOT
BRANCH  14  18
ATOM     18  C   UNL     1      -1.967   2.294   1.280  0.00  0.00    -0.021 A 
ATOM     19  C   UNL     1      -1.511   2.790   2.486  0.00  0.00    +0.007 A 
ATOM     20  C   UNL     1      -2.272   2.637   3.630  0.00  0.00    +0.022 A 
ATOM     21  C   UNL     1      -3.486   1.976   3.569  0.00  0.00    +0.059 A 
ATOM     22  C   UNL     1      -3.940   1.474   2.362  0.00  0.00    +0.060 A 
ATOM     23  C   UNL     1      -3.180   1.633   1.217  0.00  0.00    +0.027 A 
ATOM     24 CL   UNL     1      -5.463   0.645   2.284  0.00  0.00    -0.082 Cl
ATOM     25 CL   UNL     1      -4.439   1.778   5.007  0.00  0.00    -0.082 Cl
ENDBRANCH  14  18
BRANCH  15  26
ATOM     26  C   UNL     1      -1.189   5.080   0.043  0.00  0.00    +0.090 C 
BRANCH  26  27
ATOM     27  C   UNL     1      -1.443   5.539  -1.395  0.00  0.00    -0.060 C 
BRANCH  27  30
ATOM     28  C   UNL     1      -2.186   7.420  -2.726  0.00  0.00    -0.097 C 
ATOM     29  C   UNL     1      -3.483   6.705  -0.810  0.00  0.00    -0.097 C 
ATOM     30  N   UNL     1      -2.120   6.853  -1.363  0.00  0.00    +0.377 N 
ATOM     31  H   UNL     1      -1.583   7.490  -0.762  0.00  0.00    -0.083 HD
ENDBRANCH  27  30
ENDBRANCH  26  27
ENDBRANCH  15  26
TORSDOF 4
