REMARK  Name = ZINC35778314
REMARK  14 active torsions:
REMARK  status: ('A' for Active; 'I' for Inactive)
REMARK    1  A    between atoms: C_1  and  N_2
REMARK    2  A    between atoms: C_3  and  O_31
REMARK    3  A    between atoms: C_4  and  C_13
REMARK    4  A    between atoms: C_5  and  C_7
REMARK    5  A    between atoms: C_13  and  N_14
REMARK    6  A    between atoms: N_14  and  C_15
REMARK    7  A    between atoms: N_14  and  C_28
REMARK    8  A    between atoms: C_15  and  C_16
REMARK    9  A    between atoms: C_16  and  C_18
REMARK   10  A    between atoms: C_16  and  O_27
REMARK   11  A    between atoms: C_18  and  O_19
REMARK   12  A    between atoms: O_19  and  C_20
REMARK   13  A    between atoms: C_20  and  C_21
REMARK   14  A    between atoms: O_31  and  C_32
REMARK                            x       y       z     vdW  Elec       q    Type
REMARK                         _______ _______ _______ _____ _____    ______ ____
ROOT
ATOM      1  C   UNL     1      -0.121   1.539  -1.495  0.00  0.00    +0.176 C 
ATOM      2  N   UNL     1      -0.313   0.123  -1.175  0.00  0.00    -0.235 N 
ATOM      3  C   UNL     1      -0.141  -0.918  -2.030  0.00  0.00    +0.221 A 
ATOM      4  C   UNL     1      -0.418  -2.061  -1.350  0.00  0.00    +0.025 A 
ATOM      5  C   UNL     1      -0.771  -1.705  -0.035  0.00  0.00    +0.098 A 
ATOM      6  N   UNL     1      -0.701  -0.395   0.067  0.00  0.00    -0.168 NA
ENDROOT
BRANCH   5   7
ATOM      7  C   UNL     1      -1.150  -2.645   1.050  0.00  0.00    +0.002 A 
ATOM      8  C   UNL     1      -0.670  -2.450   2.343  0.00  0.00    +0.010 A 
ATOM      9  C   UNL     1      -1.026  -3.326   3.348  0.00  0.00    +0.001 A 
ATOM     10  C   UNL     1      -1.857  -4.397   3.073  0.00  0.00    +0.000 A 
ATOM     11  C   UNL     1      -2.337  -4.595   1.791  0.00  0.00    +0.001 A 
ATOM     12  C   UNL     1      -1.992  -3.721   0.780  0.00  0.00    +0.010 A 
ENDBRANCH   5   7
BRANCH   4  13
ATOM     13  C   UNL     1      -0.358  -3.461  -1.906  0.00  0.00    -0.035 C 
BRANCH  13  14
ATOM     14  N   UNL     1       1.022  -3.960  -1.828  0.00  0.00    +0.386 N 
ATOM     15  H   UNL     1       1.640  -3.314  -2.296  0.00  0.00    -0.081 HD
BRANCH  14  16
ATOM     16  C   UNL     1       1.419  -4.083  -0.419  0.00  0.00    -0.068 C 
ATOM     17  C   UNL     1       2.433  -3.072   0.120  0.00  0.00    -0.017 C 
ATOM     18  C   UNL     1       2.855  -4.522  -0.126  0.00  0.00    -0.017 C 
ENDBRANCH  14  16
BRANCH  14  19
ATOM     19  C   UNL     1       1.104  -5.275  -2.477  0.00  0.00    -0.044 C 
BRANCH  19  20
ATOM     20  C   UNL     1       0.087  -6.223  -1.839  0.00  0.00    +0.124 C 
BRANCH  20  21
ATOM     21  O   UNL     1       0.457  -6.475  -0.482  0.00  0.00    -0.391 OA
ATOM     22  H   UNL     1       1.328  -6.881  -0.381  0.00  0.00    +0.210 HD
ENDBRANCH  20  21
BRANCH  20  23
ATOM     23  C   UNL     1       0.063  -7.542  -2.614  0.00  0.00    +0.189 C 
BRANCH  23  24
ATOM     24  O   UNL     1      -0.967  -8.383  -2.091  0.00  0.00    -0.373 OA
BRANCH  24  25
ATOM     25  C   UNL     1      -1.075  -9.647  -2.749  0.00  0.00    +0.195 C 
BRANCH  25  26
ATOM     26  C   UNL     1      -2.186 -10.448  -2.120  0.00  0.00    -0.022 A 
ATOM     27  C   UNL     1      -1.918 -11.281  -1.051  0.00  0.00    +0.006 A 
ATOM     28  C   UNL     1      -2.937 -12.015  -0.474  0.00  0.00    +0.000 A 
ATOM     29  C   UNL     1      -4.225 -11.915  -0.966  0.00  0.00    +0.000 A 
ATOM     30  C   UNL     1      -4.494 -11.081  -2.035  0.00  0.00    +0.000 A 
ATOM     31  C   UNL     1      -3.475 -10.344  -2.609  0.00  0.00    +0.006 A 
ENDBRANCH  25  26
ENDBRANCH  24  25
ENDBRANCH  23  24
ENDBRANCH  20  23
ENDBRANCH  19  20
ENDBRANCH  14  19
ENDBRANCH  13  14
ENDBRANCH   4  13
BRANCH   3  32
ATOM     32  O   UNL     1       0.239  -0.832  -3.330  0.00  0.00    -0.438 OA
BRANCH  32  33
ATOM     33  C   UNL     1      -0.725  -0.614  -4.263  0.00  0.00    +0.133 A 
ATOM     34  C   UNL     1      -2.034  -0.376  -3.867  0.00  0.00    +0.046 A 
ATOM     35  C   UNL     1      -3.012  -0.154  -4.817  0.00  0.00    +0.006 A 
ATOM     36  C   UNL     1      -2.689  -0.168  -6.161  0.00  0.00    +0.038 A 
ATOM     37  C   UNL     1      -1.385  -0.406  -6.559  0.00  0.00    +0.127 A 
ATOM     38  C   UNL     1      -0.400  -0.623  -5.611  0.00  0.00    +0.084 A 
ATOM     39  F   UNL     1      -1.072  -0.421  -7.873  0.00  0.00    -0.205 F 
ENDBRANCH  32  33
ENDBRANCH   3  32
TORSDOF 13
