REMARK  Name = ZINC01059290
REMARK  7 active torsions:
REMARK  status: ('A' for Active; 'I' for Inactive)
REMARK    1  A    between atoms: C_1  and  O_2
REMARK    2  A    between atoms: O_2  and  C_3
REMARK    3  A    between atoms: C_3  and  C_5
REMARK    4  A    between atoms: C_6  and  N_36
REMARK    5  A    between atoms: N_7  and  C_26
REMARK    6  A    between atoms: C_10  and  C_12
REMARK    7  A    between atoms: C_31  and  C_32
REMARK                            x       y       z     vdW  Elec       q    Type
REMARK                         _______ _______ _______ _____ _____    ______ ____
ROOT
ATOM      1  C   UNL     1       0.687  -2.022   1.128  0.00  0.00    +0.084 C 
ATOM      2  C   UNL     1       1.375  -2.667   2.109  0.00  0.00    +0.103 C 
ATOM      3  N   UNL     1       1.450  -4.039   2.109  0.00  0.00    -0.260 N 
ATOM      4  C   UNL     1       1.202  -4.751   0.964  0.00  0.00    +0.024 C 
ATOM      5  C   UNL     1       0.518  -4.195  -0.057  0.00  0.00    +0.025 C 
ATOM      6  C   UNL     1      -0.010  -2.785   0.040  0.00  0.00    +0.094 C 
ATOM      7  C   UNL     1       0.274  -4.913  -1.242  0.00  0.00    +0.162 C 
ATOM      8  O   UNL     1      -0.353  -4.386  -2.140  0.00  0.00    -0.292 OA
ATOM      9  C   UNL     1       0.774  -6.320  -1.419  0.00  0.00    +0.080 C 
ATOM     10  C   UNL     1       2.040  -6.510  -0.577  0.00  0.00    +0.014 C 
ATOM     11  C   UNL     1       1.709  -6.170   0.878  0.00  0.00    +0.052 C 
ENDROOT
BRANCH   6  12
ATOM     12  C   UNL     1      -1.488  -2.825   0.334  0.00  0.00    -0.031 A 
ATOM     13  C   UNL     1      -1.942  -3.401   1.506  0.00  0.00    +0.008 A 
ATOM     14  C   UNL     1      -3.297  -3.440   1.780  0.00  0.00    +0.050 A 
ATOM     15  C   UNL     1      -4.202  -2.901   0.880  0.00  0.00    +0.166 A 
ATOM     16  C   UNL     1      -3.744  -2.321  -0.300  0.00  0.00    +0.167 A 
ATOM     17  C   UNL     1      -2.385  -2.280  -0.566  0.00  0.00    +0.054 A 
ATOM     18  O   UNL     1      -4.819  -1.868  -1.010  0.00  0.00    -0.453 OA
ATOM     19  C   UNL     1      -5.961  -2.540  -0.447  0.00  0.00    +0.466 C 
ATOM     20  O   UNL     1      -5.564  -2.812   0.910  0.00  0.00    -0.453 OA
ENDBRANCH   6  12
BRANCH   3  21
ATOM     21  C   UNL     1       1.783  -4.716   3.289  0.00  0.00    +0.051 A 
ATOM     22  C   UNL     1       0.781  -5.189   4.126  0.00  0.00    +0.024 A 
ATOM     23  C   UNL     1       1.113  -5.856   5.289  0.00  0.00    +0.002 A 
ATOM     24  C   UNL     1       2.441  -6.053   5.620  0.00  0.00    +0.001 A 
ATOM     25  C   UNL     1       3.441  -5.584   4.788  0.00  0.00    +0.014 A 
ATOM     26  C   UNL     1       3.116  -4.921   3.621  0.00  0.00    +0.076 A 
BRANCH  26  27
ATOM     27  C   UNL     1       4.206  -4.416   2.712  0.00  0.00    +0.419 C 
ATOM     28  F   UNL     1       5.452  -4.641   3.307  0.00  0.00    -0.166 F 
ATOM     29  F   UNL     1       4.145  -5.092   1.489  0.00  0.00    -0.166 F 
ATOM     30  F   UNL     1       4.035  -3.044   2.495  0.00  0.00    -0.166 F 
ENDBRANCH  26  27
ENDBRANCH   3  21
BRANCH   2  31
ATOM     31  N   UNL     1       1.994  -1.948   3.098  0.00  0.00    -0.346 N 
ATOM     32  H   UNL     1       1.885  -0.985   3.138  0.00  0.00    +0.143 HD
ATOM     33  H   UNL     1       2.540  -2.401   3.759  0.00  0.00    +0.143 HD
ENDBRANCH   2  31
BRANCH   1  34
ATOM     34  C   UNL     1       0.625  -0.621   1.136  0.00  0.00    +0.339 C 
ATOM     35  O   UNL     1       1.358   0.026   0.410  0.00  0.00    -0.245 OA
BRANCH  34  37
ATOM     36  C   UNL     1      -0.258   1.440   1.907  0.00  0.00    +0.280 C 
ATOM     37  O   UNL     1      -0.249   0.011   1.950  0.00  0.00    -0.465 OA
ENDBRANCH  34  37
ENDBRANCH   1  34
TORSDOF 6
