REMARK  Name = ZINC09685695
REMARK  3 active torsions:
REMARK  status: ('A' for Active; 'I' for Inactive)
REMARK    1  A    between atoms: C_1  and  C_2
REMARK    2  A    between atoms: C_7  and  S_8
REMARK    3  A    between atoms: S_8  and  N_11
REMARK                            x       y       z     vdW  Elec       q    Type
REMARK                         _______ _______ _______ _____ _____    ______ ____
ROOT
ATOM      1  C   UNL     1      -0.018   1.503   0.010  0.00  0.00    +0.046 C 
ATOM      2  C   UNL     1       0.002  -0.004   0.002  0.00  0.00    -0.023 A 
ATOM      3  C   UNL     1       0.006  -0.683  -1.197  0.00  0.00    +0.016 A 
ATOM      4  C   UNL     1       0.025  -2.075  -1.205  0.00  0.00    +0.011 A 
ATOM      5  C   UNL     1       0.040  -2.783   0.012  0.00  0.00    +0.049 A 
ATOM      6  C   UNL     1       0.035  -2.079   1.210  0.00  0.00    +0.055 A 
ATOM      7  C   UNL     1       0.023  -0.701   1.201  0.00  0.00    +0.110 A 
ATOM      8  N   UNL     1       0.058  -4.134  -0.284  0.00  0.00    -0.357 N 
ATOM      9  H   UNL     1       0.068  -4.844   0.377  0.00  0.00    +0.166 HD
ATOM     10  C   UNL     1       0.057  -4.328  -1.609  0.00  0.00    +0.028 A 
ATOM     11  C   UNL     1       0.033  -3.099  -2.252  0.00  0.00    +0.046 A 
ATOM     12  C   UNL     1       0.021  -2.974  -3.663  0.00  0.00    +0.165 C 
ATOM     13  O   UNL     1       0.038  -1.885  -4.198  0.00  0.00    -0.292 OA
ATOM     14  C   UNL     1      -0.011  -4.248  -4.479  0.00  0.00    +0.080 C 
ATOM     15  C   UNL     1       0.732  -5.362  -3.741  0.00  0.00    +0.014 C 
ATOM     16  C   UNL     1       0.085  -5.629  -2.377  0.00  0.00    +0.054 C 
ENDROOT
BRANCH   7  17
ATOM     17  S   UNL     1       0.026   0.183   2.725  0.00  0.00    +0.061 S 
ATOM     18  O   UNL     1      -1.014   1.148   2.637  0.00  0.00    -0.153 OA
ATOM     19  O   UNL     1       0.076  -0.790   3.759  0.00  0.00    -0.153 OA
BRANCH  17  20
ATOM     20  N   UNL     1       1.449   1.026   2.799  0.00  0.00    -0.176 NA
ATOM     21  C   UNL     1       2.647   0.421   3.397  0.00  0.00    +0.114 C 
ATOM     22  C   UNL     1       3.184   1.359   4.483  0.00  0.00    +0.082 C 
ATOM     23  C   UNL     1       3.409   2.750   3.886  0.00  0.00    +0.173 C 
ATOM     24  C   UNL     1       2.085   3.313   3.365  0.00  0.00    +0.082 C 
ATOM     25  C   UNL     1       1.540   2.392   2.263  0.00  0.00    +0.114 C 
ATOM     26  O   UNL     1       3.942   3.623   4.889  0.00  0.00    -0.346 OA
ATOM     27  C   UNL     1       5.221   4.090   4.415  0.00  0.00    +0.191 C 
ATOM     28  C   UNL     1       5.126   3.878   2.883  0.00  0.00    +0.191 C 
ATOM     29  O   UNL     1       4.348   2.659   2.803  0.00  0.00    -0.346 OA
ENDBRANCH  17  20
ENDBRANCH   7  17
TORSDOF 2
