REMARK  Name = ZINC39912409
REMARK  13 active torsions:
REMARK  status: ('A' for Active; 'I' for Inactive)
REMARK    1  A    between atoms: C_1  and  C_2
REMARK    2  A    between atoms: C_5  and  C_8
REMARK    3  A    between atoms: C_8  and  N_9
REMARK    4  A    between atoms: C_10  and  C_29
REMARK    5  A    between atoms: C_13  and  C_20
REMARK    6  A    between atoms: C_22  and  C_28
REMARK    7  A    between atoms: C_24  and  C_27
REMARK    8  A    between atoms: C_25  and  O_26
REMARK    9  A    between atoms: C_32  and  O_37
REMARK   10  A    between atoms: C_33  and  O_35
REMARK   11  A    between atoms: O_35  and  C_36
REMARK   12  A    between atoms: O_37  and  C_38
REMARK   13  A    between atoms: C_38  and  C_39
REMARK                            x       y       z     vdW  Elec       q    Type
REMARK                         _______ _______ _______ _____ _____    ______ ____
ROOT
ATOM      1  N   UNL     1       1.619  -4.371  -0.074  0.00  0.00    -0.281 N 
ATOM      2  C   UNL     1       2.489  -4.622  -1.231  0.00  0.00    +0.142 C 
ATOM      3  C   UNL     1       3.725  -5.283  -0.687  0.00  0.00    +0.035 A 
ATOM      4  C   UNL     1       4.980  -5.841  -0.955  0.00  0.00    +0.102 A 
ATOM      5  N   UNL     1       5.487  -6.242   0.194  0.00  0.00    -0.173 NA
ATOM      6  N   UNL     1       4.678  -5.992   1.161  0.00  0.00    -0.272 N 
ATOM      7  H   UNL     1       4.844  -6.200   2.094  0.00  0.00    +0.189 HD
ATOM      8  C   UNL     1       3.550  -5.391   0.680  0.00  0.00    +0.126 A 
ATOM      9  C   UNL     1       2.246  -4.816   1.030  0.00  0.00    +0.266 C 
ATOM     10  O   UNL     1       1.795  -4.753   2.157  0.00  0.00    -0.268 OA
ENDROOT
BRANCH   4  11
ATOM     11  C   UNL     1       5.621  -5.960  -2.288  0.00  0.00    +0.044 A 
ATOM     12  C   UNL     1       4.920  -5.598  -3.436  0.00  0.00    +0.017 A 
ATOM     13  C   UNL     1       5.521  -5.710  -4.674  0.00  0.00    -0.049 A 
ATOM     14  C   UNL     1       6.818  -6.182  -4.779  0.00  0.00    +0.010 A 
ATOM     15  C   UNL     1       7.522  -6.544  -3.646  0.00  0.00    -0.008 A 
ATOM     16  C   UNL     1       6.933  -6.431  -2.397  0.00  0.00    +0.129 A 
ATOM     17  C   UNL     1       8.934  -7.057  -3.768  0.00  0.00    +0.047 C 
ATOM     18  C   UNL     1       4.762  -5.319  -5.915  0.00  0.00    +0.044 C 
BRANCH  16  19
ATOM     19  O   UNL     1       7.625  -6.781  -1.282  0.00  0.00    -0.506 OA
ATOM     20  H   UNL     1       7.523  -7.710  -1.031  0.00  0.00    +0.292 HD
ENDBRANCH  16  19
ENDBRANCH   4  11
BRANCH   2  21
ATOM     21  C   UNL     1       2.847  -3.321  -1.902  0.00  0.00    -0.019 A 
ATOM     22  C   UNL     1       2.527  -3.120  -3.232  0.00  0.00    +0.009 A 
ATOM     23  C   UNL     1       2.854  -1.928  -3.852  0.00  0.00    +0.050 A 
ATOM     24  C   UNL     1       3.504  -0.932  -3.141  0.00  0.00    +0.162 A 
ATOM     25  C   UNL     1       3.826  -1.135  -1.802  0.00  0.00    +0.162 A 
ATOM     26  C   UNL     1       3.491  -2.330  -1.185  0.00  0.00    +0.055 A 
BRANCH  25  27
ATOM     27  O   UNL     1       4.463  -0.160  -1.100  0.00  0.00    -0.491 OA
ATOM     28  C   UNL     1       4.652  -0.387   0.299  0.00  0.00    +0.277 C 
ENDBRANCH  25  27
BRANCH  24  29
ATOM     29  O   UNL     1       3.826   0.240  -3.749  0.00  0.00    -0.484 OA
BRANCH  29  30
ATOM     30  C   UNL     1       3.466   0.378  -5.125  0.00  0.00    +0.256 C 
BRANCH  30  31
ATOM     31  C   UNL     1       3.900   1.731  -5.626  0.00  0.00    +0.006 C 
ATOM     32  C   UNL     1       4.500   1.839  -6.785  0.00  0.00    +0.007 C 
ENDBRANCH  30  31
ENDBRANCH  29  30
ENDBRANCH  24  29
ENDBRANCH   2  21
BRANCH   1  33
ATOM     33  C   UNL     1       0.298  -3.738  -0.115  0.00  0.00    +0.144 C 
BRANCH  33  38
ATOM     34  C   UNL     1       0.877   1.980   0.487  0.00  0.00    +0.044 C 
ATOM     35  C   UNL     1       0.727   0.488   0.330  0.00  0.00    -0.050 A 
ATOM     36  C   UNL     1       0.750  -0.080  -0.930  0.00  0.00    +0.003 A 
ATOM     37  C   UNL     1       0.612  -1.448  -1.074  0.00  0.00    +0.005 A 
ATOM     38  C   UNL     1       0.450  -2.247   0.042  0.00  0.00    -0.030 A 
ATOM     39  C   UNL     1       0.427  -1.679   1.302  0.00  0.00    +0.005 A 
ATOM     40  C   UNL     1       0.570  -0.312   1.446  0.00  0.00    +0.003 A 
ENDBRANCH  33  38
ENDBRANCH   1  33
TORSDOF 9
