REMARK  Name = ZINC39231541
REMARK  9 active torsions:
REMARK  status: ('A' for Active; 'I' for Inactive)
REMARK    1  A    between atoms: C_1  and  O_2
REMARK    2  A    between atoms: O_2  and  C_3
REMARK    3  A    between atoms: C_6  and  C_13
REMARK    4  A    between atoms: C_7  and  O_11
REMARK    5  A    between atoms: C_8  and  O_9
REMARK    6  A    between atoms: O_9  and  C_10
REMARK    7  A    between atoms: O_11  and  C_12
REMARK    8  A    between atoms: C_28  and  N_32
REMARK    9  A    between atoms: C_29  and  C_30
REMARK                            x       y       z     vdW  Elec       q    Type
REMARK                         _______ _______ _______ _____ _____    ______ ____
ROOT
ATOM      1  C   UNL     1       2.347  -2.021   4.112  0.00  0.00    +0.087 C 
ATOM      2  C   UNL     1       1.595  -1.350   5.266  0.00  0.00    +0.154 C 
ATOM      3  C   UNL     1       2.007   0.112   5.219  0.00  0.00    +0.129 C 
ATOM      4  C   UNL     1       1.013   1.064   5.049  0.00  0.00    +0.035 A 
ATOM      5  C   UNL     1       1.315   2.441   5.015  0.00  0.00    +0.013 A 
ATOM      6  C   UNL     1       0.312   3.346   4.853  0.00  0.00    +0.001 A 
ATOM      7  C   UNL     1      -1.013   2.941   4.718  0.00  0.00    +0.002 A 
ATOM      8  C   UNL     1      -1.367   1.625   4.740  0.00  0.00    +0.024 A 
ATOM      9  C   UNL     1      -0.384   0.635   4.902  0.00  0.00    +0.044 A 
ATOM     10  N   UNL     1      -0.731  -0.657   4.915  0.00  0.00    -0.284 N 
ATOM     11  C   UNL     1       0.127  -1.664   5.087  0.00  0.00    +0.229 C 
ATOM     12  O   UNL     1      -0.255  -2.821   5.092  0.00  0.00    -0.275 OA
ATOM     13  O   UNL     1       3.302   0.413   5.329  0.00  0.00    -0.444 OA
ATOM     14  C   UNL     1       4.170  -0.390   4.668  0.00  0.00    +0.198 C 
ATOM     15  C   UNL     1       3.773  -1.542   4.089  0.00  0.00    +0.095 C 
ATOM     16  H   UNL     1      -1.668  -0.879   4.799  0.00  0.00    +0.155 HD
ENDROOT
BRANCH   1  20
ATOM     17  C   UNL     1       0.453  -1.017   0.408  0.00  0.00    +0.165 A 
ATOM     18  C   UNL     1       0.853  -0.017   1.282  0.00  0.00    +0.050 A 
ATOM     19  C   UNL     1       1.464  -0.344   2.477  0.00  0.00    +0.012 A 
ATOM     20  C   UNL     1       1.679  -1.670   2.807  0.00  0.00    +0.008 A 
ATOM     21  C   UNL     1       1.283  -2.675   1.939  0.00  0.00    +0.169 A 
ATOM     22  C   UNL     1       0.662  -2.350   0.739  0.00  0.00    +0.204 A 
BRANCH  17  24
ATOM     23  C   UNL     1      -0.331   0.697  -1.042  0.00  0.00    +0.277 C 
ATOM     24  O   UNL     1      -0.148  -0.693  -0.768  0.00  0.00    -0.491 OA
ENDBRANCH  17  24
BRANCH  22  25
ATOM     25  O   UNL     1       0.266  -3.335  -0.113  0.00  0.00    -0.488 OA
ATOM     26  C   UNL     1       1.214  -3.768  -1.090  0.00  0.00    +0.277 C 
ENDBRANCH  22  25
BRANCH  21  27
ATOM     27  O   UNL     1       1.496  -3.979   2.264  0.00  0.00    -0.491 OA
ATOM     28  C   UNL     1       0.402  -4.689   2.849  0.00  0.00    +0.277 C 
ENDBRANCH  21  27
ENDBRANCH   1  20
BRANCH  14  29
ATOM     29  N   UNL     1       5.489  -0.020   4.583  0.00  0.00    -0.328 N 
ATOM     30  H   UNL     1       5.788   0.806   4.994  0.00  0.00    +0.145 HD
ATOM     31  H   UNL     1       6.122  -0.585   4.112  0.00  0.00    +0.145 HD
ENDBRANCH  14  29
BRANCH  15  32
ATOM     32  C   UNL     1       4.754  -2.345   3.423  0.00  0.00    +0.100 C 
ATOM     33  N   UNL     1       5.532  -2.982   2.895  0.00  0.00    -0.191 NA
ENDBRANCH  15  32
TORSDOF 6
