REMARK  Name = ZINC17958547
REMARK  8 active torsions:
REMARK  status: ('A' for Active; 'I' for Inactive)
REMARK    1  A    between atoms: C_1  and  C_2
REMARK    2  A    between atoms: C_7  and  N_8
REMARK    3  A    between atoms: C_9  and  C_11
REMARK    4  A    between atoms: C_11  and  N_12
REMARK    5  A    between atoms: C_13  and  C_15
REMARK    6  A    between atoms: C_18  and  C_20
REMARK    7  A    between atoms: C_20  and  S_21
REMARK    8  A    between atoms: S_21  and  C_24
REMARK                            x       y       z     vdW  Elec       q    Type
REMARK                         _______ _______ _______ _____ _____    ______ ____
ROOT
ATOM      1  N   UNL     1      -0.011   0.967  -0.009  0.00  0.00    -0.300 N 
ATOM      2  C   UNL     1       1.147   1.657  -0.026  0.00  0.00    +0.280 C 
ATOM      3  O   UNL     1       1.130   2.873  -0.028  0.00  0.00    -0.267 OA
ATOM      4  H   UNL     1       0.002  -0.003  -0.008  0.00  0.00    +0.150 HD
ENDROOT
BRANCH   2   5
ATOM      5  C   UNL     1       2.426   0.941  -0.044  0.00  0.00    +0.189 A 
ATOM      6  C   UNL     1       3.666   1.514  -0.062  0.00  0.00    +0.055 A 
ATOM      7  C   UNL     1       4.596   0.463  -0.074  0.00  0.00    +0.047 A 
ATOM      8  C   UNL     1       3.893  -0.691  -0.062  0.00  0.00    +0.127 A 
ATOM      9  O   UNL     1       2.586  -0.399  -0.039  0.00  0.00    -0.453 OA
BRANCH   8  10
ATOM     10  C   UNL     1       4.482  -2.078  -0.068  0.00  0.00    +0.245 C 
BRANCH  10  11
ATOM     11  S   UNL     1       4.741  -2.632   1.640  0.00  0.00    +0.004 S 
ATOM     12  O   UNL     1       5.764  -1.859   2.255  0.00  0.00    -0.169 OA
ATOM     13  O   UNL     1       3.491  -2.825   2.288  0.00  0.00    -0.169 OA
BRANCH  11  14
ATOM     14  C   UNL     1       5.426  -4.248   1.493  0.00  0.00    +0.089 A 
ATOM     15  C   UNL     1       4.593  -5.351   1.457  0.00  0.00    +0.027 A 
ATOM     16  C   UNL     1       5.130  -6.619   1.336  0.00  0.00    +0.002 A 
ATOM     17  C   UNL     1       6.500  -6.785   1.263  0.00  0.00    +0.000 A 
ATOM     18  C   UNL     1       7.333  -5.683   1.305  0.00  0.00    +0.002 A 
ATOM     19  C   UNL     1       6.796  -4.415   1.420  0.00  0.00    +0.027 A 
ENDBRANCH  11  14
ENDBRANCH  10  11
ENDBRANCH   8  10
ENDBRANCH   2   5
BRANCH   1  20
ATOM     20  C   UNL     1      -1.290   1.682   0.002  0.00  0.00    +0.200 C 
BRANCH  20  22
ATOM     21  N   UNL     1      -3.698   1.118   0.026  0.00  0.00    -0.284 N 
ATOM     22  C   UNL     1      -2.422   0.686   0.014  0.00  0.00    +0.234 C 
ATOM     23  O   UNL     1      -2.183  -0.503   0.013  0.00  0.00    -0.274 OA
ATOM     24  H   UNL     1      -3.889   2.066   0.107  0.00  0.00    +0.155 HD
BRANCH  21  31
ATOM     25  C   UNL     1      -6.229   1.841   1.106  0.00  0.00    +0.046 C 
ATOM     26  C   UNL     1      -6.000   0.511   0.434  0.00  0.00    -0.028 A 
ATOM     27  C   UNL     1      -7.037  -0.395   0.323  0.00  0.00    +0.020 A 
ATOM     28  C   UNL     1      -6.825  -1.618  -0.288  0.00  0.00    +0.018 A 
ATOM     29  C   UNL     1      -5.577  -1.934  -0.796  0.00  0.00    +0.017 A 
ATOM     30  C   UNL     1      -4.539  -1.029  -0.694  0.00  0.00    +0.024 A 
ATOM     31  C   UNL     1      -4.749   0.199  -0.080  0.00  0.00    +0.036 A 
ATOM     32 BR   UNL     1      -8.244  -2.860  -0.430  0.00  0.00    -0.050 Br
ENDBRANCH  21  31
ENDBRANCH  20  22
ENDBRANCH   1  20
TORSDOF 7
