REMARK  Name = ZINC19893315
REMARK  6 active torsions:
REMARK  status: ('A' for Active; 'I' for Inactive)
REMARK    1  A    between atoms: C_1  and  C_2
REMARK    2  A    between atoms: C_10  and  C_20
REMARK    3  A    between atoms: C_11  and  N_12
REMARK    4  A    between atoms: N_13  and  C_14
REMARK    5  A    between atoms: C_14  and  C_15
REMARK    6  A    between atoms: C_23  and  N_26
REMARK                            x       y       z     vdW  Elec       q    Type
REMARK                         _______ _______ _______ _____ _____    ______ ____
ROOT
ATOM      1  C   UNL     1       2.471   1.014  -0.016  0.00  0.00    +0.045 C 
ATOM      2  C   UNL     1       1.162   1.760   0.000  0.00  0.00    -0.034 A 
ATOM      3  C   UNL     1       1.152   3.155   0.008  0.00  0.00    +0.008 A 
ATOM      4  C   UNL     1      -0.058   3.823   0.023  0.00  0.00    +0.047 A 
ATOM      5  C   UNL     1      -1.256   3.091   0.031  0.00  0.00    +0.143 A 
ATOM      6  N   UNL     1      -2.407   3.777   0.045  0.00  0.00    -0.211 NA
ATOM      7  C   UNL     1      -3.584   3.189   0.053  0.00  0.00    +0.150 A 
ATOM      8  C   UNL     1      -3.634   1.718   0.046  0.00  0.00    +0.083 A 
ATOM      9  C   UNL     1      -4.840   1.056   0.053  0.00  0.00    +0.028 A 
ATOM     10  C   UNL     1      -6.040   1.808   0.068  0.00  0.00    +0.021 A 
ATOM     11  C   UNL     1      -5.968   3.284   0.076  0.00  0.00    +0.106 A 
ATOM     12  N   UNL     1      -4.744   3.918   0.068  0.00  0.00    -0.306 N 
ATOM     13  C   UNL     1      -2.342   0.990   0.030  0.00  0.00    +0.268 A 
ATOM     14  O   UNL     1      -2.304  -0.223   0.022  0.00  0.00    -0.267 OA
ATOM     15  N   UNL     1      -1.206   1.728   0.017  0.00  0.00    -0.267 N 
ATOM     16  C   UNL     1      -0.013   1.076   0.008  0.00  0.00    +0.099 A 
ENDROOT
BRANCH  10  17
ATOM     17  C   UNL     1      -7.337   1.131   0.076  0.00  0.00    -0.015 A 
ATOM     18  C   UNL     1      -8.316   1.487   1.022  0.00  0.00    +0.011 A 
ATOM     19  C   UNL     1      -9.526   0.852   1.016  0.00  0.00    +0.033 A 
ATOM     20  C   UNL     1      -9.786  -0.147   0.090  0.00  0.00    +0.126 A 
ATOM     21  C   UNL     1      -8.826  -0.510  -0.843  0.00  0.00    +0.033 A 
ATOM     22  C   UNL     1      -7.611   0.116  -0.859  0.00  0.00    +0.011 A 
BRANCH  20  23
ATOM     23  N   UNL     1     -11.099  -0.833   0.098  0.00  0.00    +0.056 N 
ATOM     24  O   UNL     1     -11.351  -1.783  -0.779  0.00  0.00    -0.126 OA
ATOM     25  O   UNL     1     -12.014  -0.492   0.981  0.00  0.00    -0.126 OA
ENDBRANCH  20  23
ENDBRANCH  10  17
BRANCH  11  26
ATOM     26  N   UNL     1      -7.066   3.988   0.089  0.00  0.00    -0.344 N 
ATOM     27  H   UNL     1      -7.015   5.086   0.095  0.00  0.00    +0.144 HD
ATOM     28  H   UNL     1      -8.043   3.483   0.096  0.00  0.00    +0.144 HD
ENDBRANCH  11  26
BRANCH  12  29
ATOM     29  C   UNL     1      -4.683   5.382   0.076  0.00  0.00    +0.199 C 
BRANCH  29  30
ATOM     30  C   UNL     1      -4.675   5.892  -1.342  0.00  0.00    +0.125 A 
ATOM     31  C   UNL     1      -5.761   6.199  -2.074  0.00  0.00    +0.046 A 
ATOM     32  C   UNL     1      -5.295   6.637  -3.335  0.00  0.00    +0.041 A 
ATOM     33  C   UNL     1      -3.952   6.564  -3.301  0.00  0.00    +0.195 A 
ATOM     34  O   UNL     1      -3.582   6.112  -2.091  0.00  0.00    -0.466 OA
ENDBRANCH  29  30
ENDBRANCH  12  29
TORSDOF 5
