REMARK  Name = ZINC02261897
REMARK  5 active torsions:
REMARK  status: ('A' for Active; 'I' for Inactive)
REMARK    1  A    between atoms: C_4  and  O_28
REMARK    2  A    between atoms: C_5  and  C_7
REMARK    3  A    between atoms: N_9  and  N_10
REMARK    4  A    between atoms: N_10  and  C_11
REMARK    5  A    between atoms: N_18  and  C_21
REMARK                            x       y       z     vdW  Elec       q    Type
REMARK                         _______ _______ _______ _____ _____    ______ ____
ROOT
ATOM      1  C   UNL     1       5.979   3.342  -0.035  0.00  0.00    +0.106 C 
ATOM      2  C   UNL     1       7.162   4.049  -0.147  0.00  0.00    +0.115 C 
ATOM      3  C   UNL     1       7.180   5.522  -0.148  0.00  0.00    +0.258 C 
ATOM      4  O   UNL     1       6.148   6.160  -0.052  0.00  0.00    -0.270 OA
ATOM      5  N   UNL     1       8.372   6.145  -0.254  0.00  0.00    -0.235 N 
ATOM      6  C   UNL     1       9.515   5.455  -0.368  0.00  0.00    +0.320 C 
ATOM      7  O   UNL     1      10.555   6.076  -0.465  0.00  0.00    -0.251 OA
ATOM      8  N   UNL     1       9.573   4.116  -0.379  0.00  0.00    -0.188 N 
ATOM      9  C   UNL     1       8.459   3.362  -0.275  0.00  0.00    +0.265 C 
ATOM     10  O   UNL     1       8.524   2.147  -0.286  0.00  0.00    -0.269 OA
ATOM     11  H   UNL     1       8.402   7.115  -0.253  0.00  0.00    +0.159 HD
ENDROOT
BRANCH   8  12
ATOM     12  C   UNL     1      10.818   3.485  -0.502  0.00  0.00    +0.064 A 
ATOM     13  C   UNL     1      11.321   3.176  -1.759  0.00  0.00    +0.025 A 
ATOM     14  C   UNL     1      12.549   2.555  -1.877  0.00  0.00    +0.002 A 
ATOM     15  C   UNL     1      13.278   2.239  -0.745  0.00  0.00    +0.002 A 
ATOM     16  C   UNL     1      12.781   2.545   0.508  0.00  0.00    +0.022 A 
ATOM     17  C   UNL     1      11.555   3.171   0.633  0.00  0.00    +0.063 A 
ATOM     18 CL   UNL     1      10.935   3.561   2.207  0.00  0.00    -0.082 Cl
ENDBRANCH   8  12
BRANCH   1  19
ATOM     19  N   UNL     1       4.800   3.995  -0.045  0.00  0.00    -0.271 N 
ATOM     20  H   UNL     1       4.783   4.965  -0.055  0.00  0.00    +0.169 HD
BRANCH  19  23
ATOM     21  C   UNL     1       2.420   3.927  -0.051  0.00  0.00    +0.264 C 
ATOM     22  O   UNL     1       2.399   5.143  -0.064  0.00  0.00    -0.269 OA
ATOM     23  N   UNL     1       3.599   3.274  -0.041  0.00  0.00    -0.233 N 
ATOM     24  H   UNL     1       3.616   2.304  -0.031  0.00  0.00    +0.173 HD
BRANCH  21  29
ATOM     25  C   UNL     1      -0.009   1.066  -0.028  0.00  0.00    +0.001 A 
ATOM     26  C   UNL     1      -1.221   1.737  -0.044  0.00  0.00    +0.004 A 
ATOM     27  C   UNL     1      -1.255   3.117  -0.052  0.00  0.00    +0.046 A 
ATOM     28  C   UNL     1      -0.072   3.842  -0.057  0.00  0.00    +0.129 A 
ATOM     29  C   UNL     1       1.156   3.167  -0.047  0.00  0.00    +0.079 A 
ATOM     30  C   UNL     1       1.175   1.770  -0.033  0.00  0.00    +0.017 A 
BRANCH  28  31
ATOM     31  O   UNL     1      -0.104   5.198  -0.071  0.00  0.00    -0.506 OA
ATOM     32  H   UNL     1      -0.111   5.582  -0.958  0.00  0.00    +0.292 HD
ENDBRANCH  28  31
ENDBRANCH  21  29
ENDBRANCH  19  23
ENDBRANCH   1  19
TORSDOF 5
