REMARK  Name = ZINC04586096
REMARK  9 active torsions:
REMARK  status: ('A' for Active; 'I' for Inactive)
REMARK    1  A    between atoms: C_1  and  C_2
REMARK    2  A    between atoms: C_2  and  N_3
REMARK    3  A    between atoms: N_3  and  C_4
REMARK    4  A    between atoms: N_3  and  C_6
REMARK    5  A    between atoms: C_4  and  C_5
REMARK    6  A    between atoms: C_6  and  C_7
REMARK    7  A    between atoms: C_7  and  C_8
REMARK    8  A    between atoms: C_8  and  N_9
REMARK    9  A    between atoms: C_10  and  C_12
REMARK                            x       y       z     vdW  Elec       q    Type
REMARK                         _______ _______ _______ _____ _____    ______ ____
ROOT
ATOM      1  C   UNL     1       4.424  -5.286  -3.099  0.00  0.00    +0.092 C 
ATOM      2  C   UNL     1       4.772  -6.771  -3.216  0.00  0.00    +0.016 C 
ATOM      3  C   UNL     1       5.593  -7.006  -4.486  0.00  0.00    +0.020 C 
ATOM      4  C   UNL     1       6.898  -6.209  -4.400  0.00  0.00    +0.107 C 
ATOM      5  N   UNL     1       6.575  -4.799  -4.143  0.00  0.00    -0.307 N 
ATOM      6  C   UNL     1       5.715  -4.468  -2.998  0.00  0.00    +0.119 C 
ATOM      7  C   UNL     1       7.072  -3.797  -4.966  0.00  0.00    +0.186 A 
ATOM      8  N   UNL     1       6.899  -2.491  -4.892  0.00  0.00    -0.124 NA
ATOM      9  N   UNL     1       7.491  -1.669  -5.823  0.00  0.00    -0.124 NA
ATOM     10  C   UNL     1       8.227  -2.189  -6.784  0.00  0.00    +0.192 A 
ATOM     11  S   UNL     1       8.124  -3.931  -6.403  0.00  0.00    -0.015 S 
ATOM     12  N   UNL     1       8.908  -1.550  -7.818  0.00  0.00    -0.249 N 
ATOM     13  C   UNL     1       8.929  -0.097  -8.023  0.00  0.00    +0.116 C 
ATOM     14  C   UNL     1      10.118   0.169  -8.972  0.00  0.00    +0.029 C 
ATOM     15  C   UNL     1      10.239  -1.183  -9.712  0.00  0.00    +0.098 C 
ATOM     16  C   UNL     1       9.637  -2.185  -8.752  0.00  0.00    +0.221 C 
ATOM     17  O   UNL     1       9.787  -3.387  -8.818  0.00  0.00    -0.275 OA
ENDROOT
BRANCH   1  19
ATOM     18  N   UNL     1       3.163  -3.820  -1.556  0.00  0.00    -0.315 N 
ATOM     19  C   UNL     1       3.588  -5.061  -1.865  0.00  0.00    +0.218 C 
ATOM     20  O   UNL     1       3.298  -5.997  -1.150  0.00  0.00    -0.275 OA
ATOM     21  H   UNL     1       3.395  -3.071  -2.128  0.00  0.00    +0.149 HD
BRANCH  18  22
ATOM     22  C   UNL     1       2.351  -3.601  -0.357  0.00  0.00    +0.102 C 
BRANCH  22  23
ATOM     23  C   UNL     1       2.004  -2.115  -0.240  0.00  0.00    +0.000 C 
BRANCH  23  24
ATOM     24  C   UNL     1       1.156  -1.887   1.013  0.00  0.00    -0.077 C 
BRANCH  24  25
ATOM     25  N   UNL     1       0.823  -0.461   1.126  0.00  0.00    +0.379 N 
ATOM     26  H   UNL     1       1.671   0.085   1.109  0.00  0.00    -0.082 HD
BRANCH  25  28
ATOM     27  C   UNL     1      -0.264   1.445   0.037  0.00  0.00    -0.017 C 
ATOM     28  C   UNL     1      -0.034  -0.067  -0.001  0.00  0.00    -0.082 C 
ENDBRANCH  25  28
BRANCH  25  29
ATOM     29  C   UNL     1       0.111  -0.222   2.389  0.00  0.00    -0.082 C 
ATOM     30  C   UNL     1       1.053  -0.495   3.563  0.00  0.00    -0.017 C 
ENDBRANCH  25  29
ENDBRANCH  24  25
ENDBRANCH  23  24
ENDBRANCH  22  23
ENDBRANCH  18  22
ENDBRANCH   1  19
TORSDOF 7
