REMARK  Name = ZINC41334051
REMARK  7 active torsions:
REMARK  status: ('A' for Active; 'I' for Inactive)
REMARK    1  A    between atoms: C_1  and  C_2
REMARK    2  A    between atoms: C_2  and  O_3
REMARK    3  A    between atoms: O_3  and  C_4
REMARK    4  A    between atoms: C_4  and  C_6
REMARK    5  A    between atoms: C_15  and  N_29
REMARK    6  A    between atoms: C_16  and  N_18
REMARK    7  A    between atoms: N_18  and  C_19
REMARK                            x       y       z     vdW  Elec       q    Type
REMARK                         _______ _______ _______ _____ _____    ______ ____
ROOT
ATOM      1  C   UNL     1       4.246  -2.643   3.685  0.00  0.00    +0.101 C 
ATOM      2  C   UNL     1       3.317  -2.063   4.755  0.00  0.00    +0.033 C 
ATOM      3  C   UNL     1       3.475  -2.865   6.051  0.00  0.00    +0.109 C 
ATOM      4  N   UNL     1       3.246  -4.286   5.758  0.00  0.00    -0.300 N 
ATOM      5  C   UNL     1       4.023  -4.921   4.685  0.00  0.00    +0.109 C 
ATOM      6  C   UNL     1       3.858  -4.096   3.404  0.00  0.00    +0.033 C 
ATOM      7  C   UNL     1       2.317  -5.014   6.481  0.00  0.00    +0.221 A 
ATOM      8  N   UNL     1       1.714  -4.444   7.514  0.00  0.00    -0.197 NA
ATOM      9  C   UNL     1       0.815  -5.113   8.232  0.00  0.00    +0.154 A 
ATOM     10  C   UNL     1       0.513  -6.427   7.885  0.00  0.00    +0.205 A 
ATOM     11  C   UNL     1       1.167  -6.992   6.794  0.00  0.00    +0.160 A 
ATOM     12  N   UNL     1       2.051  -6.260   6.119  0.00  0.00    -0.197 NA
ATOM     13  N   UNL     1       0.189  -4.510   9.312  0.00  0.00    -0.341 N 
ATOM     14  H   UNL     1       0.405  -3.594   9.548  0.00  0.00    +0.144 HD
ATOM     15  H   UNL     1      -0.466  -5.004   9.831  0.00  0.00    +0.144 HD
ENDROOT
BRANCH  10  16
ATOM     16  N   UNL     1      -0.481  -7.206   8.659  0.00  0.00    +0.063 N 
ATOM     17  O   UNL     1      -1.647  -7.181   8.342  0.00  0.00    -0.126 OA
ATOM     18  O   UNL     1      -0.126  -7.866   9.607  0.00  0.00    -0.126 OA
ENDBRANCH  10  16
BRANCH   1  19
ATOM     19  C   UNL     1       4.118  -1.835   2.419  0.00  0.00    +0.310 C 
ATOM     20  O   UNL     1       3.754  -2.368   1.397  0.00  0.00    -0.251 OA
BRANCH  19  21
ATOM     21  O   UNL     1       4.408  -0.525   2.426  0.00  0.00    -0.465 OA
BRANCH  21  23
ATOM     22  C   UNL     1       4.636   1.648   1.394  0.00  0.00    +0.048 C 
ATOM     23  C   UNL     1       4.264   0.178   1.190  0.00  0.00    +0.229 C 
ENDBRANCH  21  23
ENDBRANCH  19  21
ENDBRANCH   1  19
BRANCH  11  24
ATOM     24  N   UNL     1       0.897  -8.297   6.412  0.00  0.00    -0.296 N 
ATOM     25  H   UNL     1       0.323  -8.854   6.960  0.00  0.00    +0.154 HD
BRANCH  24  26
ATOM     26  C   UNL     1       1.453  -8.809   5.239  0.00  0.00    +0.059 A 
ATOM     27  C   UNL     1       2.069  -7.968   4.338  0.00  0.00    +0.025 A 
ATOM     28  C   UNL     1       2.627  -8.466   3.164  0.00  0.00    +0.003 A 
ATOM     29  C   UNL     1       2.579  -9.796   2.874  0.00  0.00    +0.010 A 
ATOM     30  C   UNL     1       1.960 -10.686   3.768  0.00  0.00    +0.002 A 
ATOM     31  C   UNL     1       1.393 -10.194   4.969  0.00  0.00    +0.092 A 
ATOM     32  N   UNL     1       0.809 -11.038   5.823  0.00  0.00    -0.253 NA
ATOM     33  C   UNL     1       0.750 -12.325   5.578  0.00  0.00    +0.111 A 
ATOM     34  C   UNL     1       1.294 -12.875   4.419  0.00  0.00    +0.020 A 
ATOM     35  C   UNL     1       1.894 -12.066   3.497  0.00  0.00    +0.011 A 
ENDBRANCH  24  26
ENDBRANCH  11  24
TORSDOF 6
