REMARK  Name = ZINC02718915
REMARK  8 active torsions:
REMARK  status: ('A' for Active; 'I' for Inactive)
REMARK    1  A    between atoms: C_1  and  C_2
REMARK    2  A    between atoms: C_3  and  C_29
REMARK    3  A    between atoms: C_4  and  C_21
REMARK    4  A    between atoms: C_9  and  S_11
REMARK    5  A    between atoms: S_11  and  C_12
REMARK    6  A    between atoms: C_12  and  C_13
REMARK    7  A    between atoms: C_25  and  O_27
REMARK    8  A    between atoms: O_27  and  C_28
REMARK                            x       y       z     vdW  Elec       q    Type
REMARK                         _______ _______ _______ _____ _____    ______ ____
ROOT
ATOM      1  C   UNL     1      -0.013   1.086   0.008  0.00  0.00    +0.062 C 
ATOM      2  C   UNL     1      -0.742   1.585  -1.213  0.00  0.00    +0.034 C 
ATOM      3  C   UNL     1      -0.877   3.067  -1.413  0.00  0.00    +0.148 C 
ATOM      4  C   UNL     1      -2.189   3.413  -2.127  0.00  0.00    +0.158 C 
ATOM      5  N   UNL     1      -2.389   2.441  -3.202  0.00  0.00    -0.220 N 
ATOM      6  C   UNL     1      -1.913   1.168  -3.134  0.00  0.00    +0.250 A 
ATOM      7  N   UNL     1      -2.247   0.557  -4.243  0.00  0.00    -0.184 NA
ATOM      8  C   UNL     1      -2.931   1.397  -5.029  0.00  0.00    +0.211 A 
ATOM      9  N   UNL     1      -3.041   2.563  -4.424  0.00  0.00    -0.141 NA
ATOM     10  N   UNL     1      -1.219   0.718  -2.047  0.00  0.00    -0.220 NA
ENDROOT
BRANCH   4  11
ATOM     11  C   UNL     1      -3.335   3.339  -1.152  0.00  0.00    -0.018 A 
ATOM     12  C   UNL     1      -3.612   2.151  -0.501  0.00  0.00    +0.006 A 
ATOM     13  C   UNL     1      -4.663   2.080   0.395  0.00  0.00    +0.004 A 
ATOM     14  C   UNL     1      -5.440   3.196   0.640  0.00  0.00    +0.045 A 
ATOM     15  C   UNL     1      -5.164   4.389  -0.012  0.00  0.00    +0.120 A 
ATOM     16  C   UNL     1      -4.104   4.460  -0.905  0.00  0.00    +0.051 A 
BRANCH  15  17
ATOM     17  O   UNL     1      -5.926   5.488   0.228  0.00  0.00    -0.495 OA
ATOM     18  C   UNL     1      -6.996   5.344   1.164  0.00  0.00    +0.277 C 
ENDBRANCH  15  17
ENDBRANCH   4  11
BRANCH   3  19
ATOM     19  C   UNL     1       0.281   3.562  -2.240  0.00  0.00    +0.221 C 
ATOM     20  O   UNL     1       0.078   4.103  -3.306  0.00  0.00    -0.275 OA
ATOM     21  N   UNL     1       1.543   3.403  -1.795  0.00  0.00    -0.329 N 
ATOM     22  H   UNL     1       1.706   2.970  -0.942  0.00  0.00    +0.145 HD
ATOM     23  H   UNL     1       2.289   3.721  -2.327  0.00  0.00    +0.145 HD
ENDBRANCH   3  19
BRANCH   8  24
ATOM     24  S   UNL     1      -3.583   1.006  -6.619  0.00  0.00    -0.080 S 
BRANCH  24  25
ATOM     25  C   UNL     1      -3.104  -0.725  -6.875  0.00  0.00    +0.115 C 
BRANCH  25  26
ATOM     26  C   UNL     1      -3.606  -1.192  -8.217  0.00  0.00    -0.002 A 
ATOM     27  C   UNL     1      -4.862  -1.759  -8.326  0.00  0.00    +0.007 A 
ATOM     28  C   UNL     1      -5.323  -2.187  -9.557  0.00  0.00    +0.000 A 
ATOM     29  C   UNL     1      -4.529  -2.048 -10.681  0.00  0.00    +0.003 A 
ATOM     30  C   UNL     1      -3.274  -1.481 -10.574  0.00  0.00    +0.038 A 
ATOM     31  C   UNL     1      -2.813  -1.047  -9.342  0.00  0.00    +0.127 A 
ATOM     32  F   UNL     1      -1.587  -0.488  -9.238  0.00  0.00    -0.205 F 
ENDBRANCH  25  26
ENDBRANCH  24  25
ENDBRANCH   8  24
TORSDOF 6
