REMARK  Name = ZINC63571214
REMARK  2 active torsions:
REMARK  status: ('A' for Active; 'I' for Inactive)
REMARK    1  A    between atoms: C_5  and  C_7
REMARK    2  A    between atoms: N_24  and  C_25
REMARK                            x       y       z     vdW  Elec       q    Type
REMARK                         _______ _______ _______ _____ _____    ______ ____
ROOT
ATOM      1  C   UNL     1       0.906  -1.492   0.409  0.00  0.00    +0.137 C 
ATOM      2  C   UNL     1       1.438  -1.904  -0.968  0.00  0.00    +0.131 C 
ATOM      3  C   UNL     1       0.227  -2.025  -1.884  0.00  0.00    -0.035 C 
ATOM      4  C   UNL     1       0.456  -1.221  -2.916  0.00  0.00    -0.001 A 
ATOM      5  C   UNL     1      -0.310  -0.965  -4.146  0.00  0.00    +0.010 A 
ATOM      6  C   UNL     1       0.220  -0.051  -5.003  0.00  0.00    +0.001 A 
ATOM      7  C   UNL     1       1.420   0.624  -4.761  0.00  0.00    +0.002 A 
ATOM      8  C   UNL     1       2.191   0.448  -3.658  0.00  0.00    +0.026 A 
ATOM      9  C   UNL     1       1.740  -0.492  -2.686  0.00  0.00    +0.043 A 
ATOM     10  N   UNL     1       2.298  -0.872  -1.550  0.00  0.00    -0.375 N 
ATOM     11  C   UNL     1      -0.974  -2.868  -1.533  0.00  0.00    +0.052 C 
ATOM     12  C   UNL     1      -1.397  -2.465  -0.109  0.00  0.00    +0.114 C 
ATOM     13  N   UNL     1      -0.209  -2.390   0.750  0.00  0.00    -0.276 N 
ATOM     14  C   UNL     1      -0.137  -3.152   1.860  0.00  0.00    +0.307 C 
ATOM     15  O   UNL     1       0.804  -3.029   2.621  0.00  0.00    -0.252 OA
ATOM     16  N   UNL     1      -1.107  -4.049   2.126  0.00  0.00    -0.267 N 
ATOM     17  H   UNL     1      -1.825  -4.190   1.489  0.00  0.00    +0.156 HD
ATOM     18  H   UNL     1       3.120  -0.534  -1.162  0.00  0.00    +0.160 HD
ENDROOT
BRANCH  16  19
ATOM     19  C   UNL     1      -1.078  -4.777   3.322  0.00  0.00    +0.070 A 
ATOM     20  C   UNL     1       0.129  -5.007   3.968  0.00  0.00    +0.027 A 
ATOM     21  C   UNL     1       0.155  -5.725   5.148  0.00  0.00    +0.017 A 
ATOM     22  C   UNL     1      -1.021  -6.217   5.686  0.00  0.00    +0.021 A 
ATOM     23  C   UNL     1      -2.226  -5.991   5.046  0.00  0.00    +0.055 A 
ATOM     24  C   UNL     1      -2.259  -5.268   3.868  0.00  0.00    +0.146 A 
ATOM     25  F   UNL     1      -3.437  -5.042   3.245  0.00  0.00    -0.204 F 
ATOM     26 BR   UNL     1      -0.980  -7.200   7.301  0.00  0.00    -0.050 Br
ENDBRANCH  16  19
BRANCH   1  31
ATOM     27  C   UNL     1      -1.058   1.589  -0.540  0.00  0.00    +0.000 A 
ATOM     28  C   UNL     1      -0.481   2.547   0.272  0.00  0.00    +0.003 A 
ATOM     29  C   UNL     1       0.545   2.200   1.130  0.00  0.00    +0.039 A 
ATOM     30  C   UNL     1       0.995   0.891   1.175  0.00  0.00    +0.128 A 
ATOM     31  C   UNL     1       0.416  -0.068   0.361  0.00  0.00    +0.010 A 
ATOM     32  C   UNL     1      -0.610   0.283  -0.496  0.00  0.00    +0.008 A 
ATOM     33  F   UNL     1       1.999   0.550   2.013  0.00  0.00    -0.205 F 
ENDBRANCH   1  31
TORSDOF 2
