REMARK  Name = ZINC02655521
REMARK  8 active torsions:
REMARK  status: ('A' for Active; 'I' for Inactive)
REMARK    1  A    between atoms: C_1  and  C_2
REMARK    2  A    between atoms: N_13  and  C_30
REMARK    3  A    between atoms: C_14  and  S_16
REMARK    4  A    between atoms: S_16  and  C_17
REMARK    5  A    between atoms: C_17  and  C_18
REMARK    6  A    between atoms: N_20  and  C_21
REMARK    7  A    between atoms: C_24  and  C_27
REMARK    8  A    between atoms: C_30  and  C_31
REMARK                            x       y       z     vdW  Elec       q    Type
REMARK                         _______ _______ _______ _____ _____    ______ ____
ROOT
ATOM      1  C   UNL     1       1.030  16.095   1.127  0.00  0.00    +0.008 C 
ATOM      2  C   UNL     1       1.628  14.700   1.320  0.00  0.00    -0.009 C 
ATOM      3  C   UNL     1       2.923  14.576   0.512  0.00  0.00    +0.008 C 
ATOM      4  C   UNL     1       3.651  13.286   0.892  0.00  0.00    +0.037 C 
ATOM      5  C   UNL     1       2.680  12.116   0.764  0.00  0.00    -0.023 A 
ATOM      6  C   UNL     1       1.348  12.326   0.737  0.00  0.00    -0.004 A 
ATOM      7  S   UNL     1       0.630  10.713   0.580  0.00  0.00    -0.073 S 
ATOM      8  C   UNL     1       2.126   9.757   0.552  0.00  0.00    +0.117 A 
ATOM      9  C   UNL     1       3.136  10.728   0.665  0.00  0.00    +0.076 A 
ATOM     10  C   UNL     1       4.478  10.233   0.669  0.00  0.00    +0.263 A 
ATOM     11  O   UNL     1       5.420  11.002   0.763  0.00  0.00    -0.267 OA
ATOM     12  N   UNL     1       4.687   8.908   0.568  0.00  0.00    -0.283 N 
ATOM     13  C   UNL     1       3.645   8.032   0.462  0.00  0.00    +0.173 A 
ATOM     14  N   UNL     1       2.400   8.462   0.451  0.00  0.00    -0.216 NA
ATOM     15  C   UNL     1       0.634  13.641   0.821  0.00  0.00    +0.046 C 
ENDROOT
BRANCH  13  16
ATOM     16  S   UNL     1       3.970   6.305   0.332  0.00  0.00    -0.078 S 
BRANCH  16  17
ATOM     17  C   UNL     1       2.277   5.674   0.225  0.00  0.00    +0.173 C 
BRANCH  17  18
ATOM     18  C   UNL     1       2.308   4.172   0.104  0.00  0.00    +0.227 C 
ATOM     19  O   UNL     1       3.370   3.587   0.091  0.00  0.00    -0.275 OA
ATOM     20  N   UNL     1       1.155   3.480   0.009  0.00  0.00    -0.285 N 
ATOM     21  H   UNL     1       0.310   3.952  -0.058  0.00  0.00    +0.155 HD
BRANCH  20  22
ATOM     22  C   UNL     1       1.177   2.086   0.008  0.00  0.00    +0.033 A 
ATOM     23  C   UNL     1       0.240   1.378  -0.738  0.00  0.00    +0.024 A 
ATOM     24  C   UNL     1       0.260   0.001  -0.742  0.00  0.00    +0.015 A 
ATOM     25  C   UNL     1       1.222  -0.685   0.004  0.00  0.00    +0.037 A 
ATOM     26  C   UNL     1       2.162   0.030   0.752  0.00  0.00    +0.015 A 
ATOM     27  C   UNL     1       2.137   1.406   0.752  0.00  0.00    +0.024 A 
BRANCH  25  28
ATOM     28  C   UNL     1       1.245  -2.160   0.003  0.00  0.00    +0.242 C 
ATOM     29  O   UNL     1       0.427  -2.781  -0.648  0.00  0.00    -0.270 OA
ATOM     30  N   UNL     1       2.174  -2.821   0.723  0.00  0.00    -0.325 N 
ATOM     31  H   UNL     1       2.827  -2.326   1.242  0.00  0.00    +0.145 HD
ATOM     32  H   UNL     1       2.189  -3.790   0.722  0.00  0.00    +0.145 HD
ENDBRANCH  25  28
ENDBRANCH  20  22
ENDBRANCH  17  18
ENDBRANCH  16  17
ENDBRANCH  13  16
BRANCH  12  33
ATOM     33  C   UNL     1       6.059   8.394   0.571  0.00  0.00    +0.154 C 
BRANCH  33  34
ATOM     34  C   UNL     1       6.576   8.334  -0.843  0.00  0.00    -0.013 C 
ATOM     35  C   UNL     1       7.692   8.942  -1.159  0.00  0.00    +0.005 C 
ENDBRANCH  33  34
ENDBRANCH  12  33
TORSDOF 7
