REMARK  Name = ZINC63681149
REMARK  5 active torsions:
REMARK  status: ('A' for Active; 'I' for Inactive)
REMARK    1  A    between atoms: C_7  and  C_10
REMARK    2  A    between atoms: C_10  and  C_11
REMARK    3  A    between atoms: C_11  and  N_12
REMARK    4  A    between atoms: N_15  and  C_16
REMARK    5  A    between atoms: N_21  and  C_23
REMARK                            x       y       z     vdW  Elec       q    Type
REMARK                         _______ _______ _______ _____ _____    ______ ____
ROOT
ATOM      1  N   UNL     1      -0.480  -4.794  -1.443  0.00  0.00    -0.299 N 
ATOM      2  C   UNL     1      -0.822  -5.381  -2.607  0.00  0.00    +0.300 C 
ATOM      3  O   UNL     1      -0.368  -4.963  -3.655  0.00  0.00    -0.253 OA
ATOM      4  N   UNL     1      -1.667  -6.431  -2.611  0.00  0.00    -0.295 N 
ATOM      5  H   UNL     1      -0.842  -5.128  -0.607  0.00  0.00    +0.150 HD
ATOM      6  H   UNL     1      -2.029  -6.764  -1.775  0.00  0.00    +0.151 HD
ENDROOT
BRANCH   4   7
ATOM      7  C   UNL     1      -2.038  -7.068  -3.876  0.00  0.00    +0.101 C 
ATOM      8  C   UNL     1      -3.291  -6.399  -4.486  0.00  0.00    +0.120 C 
ATOM      9  C   UNL     1      -4.063  -7.546  -5.100  0.00  0.00    +0.222 C 
ATOM     10  O   UNL     1      -4.956  -7.427  -5.912  0.00  0.00    -0.275 OA
ATOM     11  N   UNL     1      -3.615  -8.717  -4.614  0.00  0.00    -0.270 N 
ATOM     12  C   UNL     1      -2.533  -8.513  -3.643  0.00  0.00    +0.136 C 
BRANCH  11  13
ATOM     13  C   UNL     1      -4.115  -9.970  -4.988  0.00  0.00    +0.036 A 
ATOM     14  C   UNL     1      -5.215 -10.056  -5.831  0.00  0.00    +0.025 A 
ATOM     15  C   UNL     1      -5.707 -11.294  -6.198  0.00  0.00    +0.022 A 
ATOM     16  C   UNL     1      -5.104 -12.447  -5.726  0.00  0.00    +0.041 A 
ATOM     17  C   UNL     1      -4.008 -12.363  -4.885  0.00  0.00    +0.022 A 
ATOM     18  C   UNL     1      -3.509 -11.128  -4.520  0.00  0.00    +0.025 A 
ATOM     19 CL   UNL     1      -5.725 -14.001  -6.188  0.00  0.00    -0.084 Cl
ENDBRANCH  11  13
ENDBRANCH   4   7
BRANCH   1  20
ATOM     20  C   UNL     1       0.439  -3.653  -1.440  0.00  0.00    +0.110 C 
BRANCH  20  21
ATOM     21  C   UNL     1       0.659  -3.179  -0.001  0.00  0.00    +0.052 C 
BRANCH  21  28
ATOM     22  C   UNL     1      -0.034   1.357   0.005  0.00  0.00    +0.001 A 
ATOM     23  C   UNL     1       1.151   2.106   0.007  0.00  0.00    +0.002 A 
ATOM     24  C   UNL     1       2.374   1.536   0.008  0.00  0.00    +0.026 A 
ATOM     25  C   UNL     1       2.507   0.120   0.006  0.00  0.00    +0.043 A 
ATOM     26  N   UNL     1       3.563  -0.658   0.006  0.00  0.00    -0.380 N 
ATOM     27  C   UNL     1       3.115  -2.055   0.003  0.00  0.00    +0.144 C 
ATOM     28  C   UNL     1       1.603  -2.005   0.002  0.00  0.00    -0.040 C 
ATOM     29  C   UNL     1       1.271  -0.694   0.004  0.00  0.00    -0.001 A 
ATOM     30  C   UNL     1      -0.020   0.004   0.003  0.00  0.00    +0.010 A 
ATOM     31  H   UNL     1       4.486  -0.359   0.007  0.00  0.00    +0.160 HD
ENDBRANCH  21  28
ENDBRANCH  20  21
ENDBRANCH   1  20
TORSDOF 5
