REMARK  Name = ZINC43407227
REMARK  3 active torsions:
REMARK  status: ('A' for Active; 'I' for Inactive)
REMARK    1  A    between atoms: C_4  and  S_8
REMARK    2  A    between atoms: S_8  and  C_9
REMARK    3  A    between atoms: C_10  and  C_18
REMARK                            x       y       z     vdW  Elec       q    Type
REMARK                         _______ _______ _______ _____ _____    ______ ____
ROOT
ATOM      1  C   UNL     1       5.130   0.454  -0.266  0.00  0.00    +0.112 A 
ATOM      2  C   UNL     1       6.495   0.130  -0.354  0.00  0.00    +0.045 A 
ATOM      3  C   UNL     1       7.428   1.170  -0.399  0.00  0.00    +0.019 A 
ATOM      4  C   UNL     1       6.968   2.476  -0.355  0.00  0.00    -0.025 A 
ATOM      5  C   UNL     1       5.608   2.720  -0.268  0.00  0.00    +0.046 A 
ATOM      6  N   UNL     1       4.744   1.719  -0.232  0.00  0.00    -0.244 NA
ATOM      7  C   UNL     1       5.364   4.216  -0.235  0.00  0.00    +0.056 C 
ATOM      8  C   UNL     1       6.726   4.841   0.130  0.00  0.00    +0.011 C 
ATOM      9  C   UNL     1       7.726   3.785  -0.386  0.00  0.00    +0.037 C 
ENDROOT
BRANCH   2  10
ATOM     10  C   UNL     1       6.933  -1.278  -0.398  0.00  0.00    +0.097 C 
ATOM     11  N   UNL     1       6.463  -2.094  -1.342  0.00  0.00    -0.387 N 
ATOM     12  N   UNL     1       7.800  -1.735   0.507  0.00  0.00    -0.344 N 
ATOM     13  H   UNL     1       5.781  -1.781  -1.957  0.00  0.00    +0.157 HD
ATOM     14  H   UNL     1       8.142  -1.141   1.194  0.00  0.00    +0.144 HD
ATOM     15  H   UNL     1       8.088  -2.661   0.478  0.00  0.00    +0.144 HD
ATOM     16  H   UNL     1       6.803  -2.999  -1.414  0.00  0.00    +0.157 HD
ENDBRANCH   2  10
BRANCH   1  17
ATOM     17  S   UNL     1       3.926  -0.831  -0.206  0.00  0.00    -0.066 S 
BRANCH  17  21
ATOM     18  C   UNL     1      -0.033   1.368  -0.317  0.00  0.00    +0.003 A 
ATOM     19  C   UNL     1       0.429   0.720  -1.448  0.00  0.00    +0.001 A 
ATOM     20  C   UNL     1       1.636   0.049  -1.417  0.00  0.00    +0.018 A 
ATOM     21  C   UNL     1       2.386   0.025  -0.249  0.00  0.00    +0.049 A 
ATOM     22  C   UNL     1       1.920   0.678   0.887  0.00  0.00    +0.137 A 
ATOM     23  C   UNL     1       0.710   1.347   0.849  0.00  0.00    +0.039 A 
ATOM     24  F   UNL     1       2.646   0.657   2.026  0.00  0.00    -0.204 F 
ENDBRANCH  17  21
ENDBRANCH   1  17
TORSDOF 3
