REMARK  Name = ZINC67047962
REMARK  3 active torsions:
REMARK  status: ('A' for Active; 'I' for Inactive)
REMARK    1  A    between atoms: C_4  and  C_6
REMARK    2  A    between atoms: C_13  and  C_15
REMARK    3  A    between atoms: C_15  and  C_16
REMARK                            x       y       z     vdW  Elec       q    Type
REMARK                         _______ _______ _______ _____ _____    ______ ____
ROOT
ATOM      1  C   UNL     1       1.397  -6.431  -2.127  0.00  0.00    +0.152 C 
ENDROOT
BRANCH   1   2
ATOM      2  C   UNL     1       2.029  -6.971  -3.384  0.00  0.00    +0.059 A 
ATOM      3  C   UNL     1       3.123  -7.770  -3.340  0.00  0.00    +0.072 A 
ATOM      4  S   UNL     1       3.387  -8.069  -5.080  0.00  0.00    -0.060 S 
ATOM      5  C   UNL     1       2.099  -7.161  -5.671  0.00  0.00    +0.168 A 
ATOM      6  N   UNL     1       1.538  -6.691  -4.578  0.00  0.00    -0.229 NA
ATOM      7  N   UNL     1       1.717  -6.961  -6.992  0.00  0.00    -0.234 N 
ATOM      8  C   UNL     1       2.485  -7.596  -8.064  0.00  0.00    +0.119 C 
ATOM      9  C   UNL     1       1.559  -7.861  -9.257  0.00  0.00    +0.038 C 
ATOM     10  C   UNL     1       0.902  -6.539  -9.667  0.00  0.00    +0.107 C 
ATOM     11  N   UNL     1       0.220  -5.961  -8.508  0.00  0.00    -0.299 N 
ATOM     12  C   UNL     1       0.649  -6.194  -7.259  0.00  0.00    +0.308 C 
ATOM     13  O   UNL     1       0.050  -5.685  -6.331  0.00  0.00    -0.252 OA
ATOM     14  H   UNL     1      -0.560  -5.402  -8.646  0.00  0.00    +0.150 HD
ENDBRANCH   1   2
BRANCH   1  21
ATOM     15  C   UNL     1       1.335  -2.163  -0.022  0.00  0.00    +0.062 C 
ATOM     16  C   UNL     1       0.700  -2.774   1.229  0.00  0.00    +0.013 C 
ATOM     17  C   UNL     1       0.937  -4.286   1.236  0.00  0.00    +0.020 C 
ATOM     18  C   UNL     1       0.272  -4.909   0.004  0.00  0.00    +0.108 C 
ATOM     19  N   UNL     1       0.771  -4.226  -1.197  0.00  0.00    -0.301 N 
ATOM     20  C   UNL     1       0.676  -2.762  -1.269  0.00  0.00    +0.118 C 
ATOM     21  C   UNL     1       1.306  -4.930  -2.215  0.00  0.00    +0.221 C 
ATOM     22  O   UNL     1       1.714  -4.354  -3.202  0.00  0.00    -0.275 OA
BRANCH  15  26
ATOM     23  C   UNL     1      -0.016   1.314   0.009  0.00  0.00    +0.119 A 
ATOM     24  C   UNL     1       1.186   1.946   0.001  0.00  0.00    +0.066 A 
ATOM     25  S   UNL     1       2.294   0.545  -0.017  0.00  0.00    -0.080 S 
ATOM     26  C   UNL     1       1.129  -0.670  -0.012  0.00  0.00    +0.083 A 
ATOM     27  N   UNL     1       0.002  -0.004   0.002  0.00  0.00    -0.252 NA
ENDBRANCH  15  26
ENDBRANCH   1  21
TORSDOF 3
