REMARK  Name = ZINC06727010
REMARK  5 active torsions:
REMARK  status: ('A' for Active; 'I' for Inactive)
REMARK    1  A    between atoms: C_1  and  C_2
REMARK    2  A    between atoms: C_9  and  N_14
REMARK    3  A    between atoms: C_10  and  C_11
REMARK    4  A    between atoms: C_15  and  C_17
REMARK    5  A    between atoms: C_17  and  N_46
REMARK                            x       y       z     vdW  Elec       q    Type
REMARK                         _______ _______ _______ _____ _____    ______ ____
ROOT
ATOM      1  C   UNL     1       4.001   2.165  10.735  0.00  0.00    +0.008 C 
ATOM      2  C   UNL     1       2.974   2.880   9.854  0.00  0.00    -0.009 C 
ATOM      3  C   UNL     1       1.581   2.747  10.475  0.00  0.00    +0.008 C 
ATOM      4  C   UNL     1       0.596   3.660   9.742  0.00  0.00    +0.037 C 
ATOM      5  C   UNL     1       0.686   3.378   8.247  0.00  0.00    -0.023 A 
ATOM      6  C   UNL     1       1.756   2.742   7.722  0.00  0.00    -0.004 A 
ATOM      7  S   UNL     1       1.415   2.638   5.988  0.00  0.00    -0.077 S 
ATOM      8  C   UNL     1      -0.123   3.436   5.957  0.00  0.00    +0.084 A 
ATOM      9  C   UNL     1      -0.339   3.757   7.290  0.00  0.00    +0.068 A 
ATOM     10  C   UNL     1       2.958   2.238   8.459  0.00  0.00    +0.046 C 
ENDROOT
BRANCH   9  11
ATOM     11  C   UNL     1      -1.557   4.454   7.716  0.00  0.00    +0.244 C 
ATOM     12  O   UNL     1      -2.542   3.816   8.039  0.00  0.00    -0.270 OA
ATOM     13  N   UNL     1      -1.586   5.801   7.750  0.00  0.00    -0.325 N 
ATOM     14  H   UNL     1      -0.801   6.310   7.493  0.00  0.00    +0.145 HD
ATOM     15  H   UNL     1      -2.392   6.262   8.032  0.00  0.00    +0.145 HD
ENDBRANCH   9  11
BRANCH   8  16
ATOM     16  N   UNL     1      -0.942   3.686   4.867  0.00  0.00    -0.281 N 
ATOM     17  C   UNL     1      -0.561   3.295   3.634  0.00  0.00    +0.201 C 
ATOM     18  O   UNL     1       0.497   2.724   3.479  0.00  0.00    -0.278 OA
ATOM     19  H   UNL     1      -1.789   4.143   4.991  0.00  0.00    +0.155 HD
BRANCH  17  20
ATOM     20  C   UNL     1      -1.451   3.568   2.449  0.00  0.00    +0.019 C 
BRANCH  20  26
ATOM     21  C   UNL     1      -0.731   1.580   1.266  0.00  0.00    -0.050 C 
ATOM     22  C   UNL     1      -0.013   1.086   0.008  0.00  0.00    +0.141 C 
ATOM     23  O   UNL     1      -0.706   1.560  -1.149  0.00  0.00    -0.383 OA
ATOM     24  C   UNL     1      -0.807   2.985  -1.216  0.00  0.00    +0.141 C 
ATOM     25  C   UNL     1      -1.534   3.499   0.029  0.00  0.00    -0.050 C 
ATOM     26  N   UNL     1      -0.791   3.057   1.228  0.00  0.00    +0.388 N 
ATOM     27  H   UNL     1       0.165   3.429   1.185  0.00  0.00    -0.081 HD
ENDBRANCH  20  26
ENDBRANCH  17  20
ENDBRANCH   8  16
TORSDOF 4
