REMARK  Name = ZINC25158666
REMARK  10 active torsions:
REMARK  status: ('A' for Active; 'I' for Inactive)
REMARK    1  A    between atoms: C_1  and  C_2
REMARK    2  A    between atoms: C_3  and  S_8
REMARK    3  A    between atoms: C_4  and  C_7
REMARK    4  A    between atoms: S_8  and  N_11
REMARK    5  A    between atoms: C_15  and  C_18
REMARK    6  A    between atoms: N_20  and  C_21
REMARK    7  A    between atoms: C_21  and  C_23
REMARK    8  A    between atoms: C_21  and  C_29
REMARK    9  A    between atoms: C_29  and  C_30
REMARK   10  A    between atoms: C_29  and  C_31
REMARK                            x       y       z     vdW  Elec       q    Type
REMARK                         _______ _______ _______ _____ _____    ______ ____
ROOT
ATOM      1  N   UNL     1      -2.826   1.380   0.037  0.00  0.00    -0.176 NA
ATOM      2  C   UNL     1      -2.178   1.033  -1.236  0.00  0.00    +0.109 C 
ATOM      3  C   UNL     1      -0.752   1.593  -1.232  0.00  0.00    +0.018 C 
ATOM      4  C   UNL     1      -0.013   1.086   0.008  0.00  0.00    +0.015 C 
ATOM      5  C   UNL     1      -0.729   1.579   1.268  0.00  0.00    +0.091 C 
ATOM      6  C   UNL     1      -2.154   1.019   1.293  0.00  0.00    +0.122 C 
ENDROOT
BRANCH   5   7
ATOM      7  C   UNL     1       0.018   1.107   2.488  0.00  0.00    +0.218 C 
ATOM      8  O   UNL     1      -0.534   0.395   3.300  0.00  0.00    -0.275 OA
ATOM      9  N   UNL     1       1.301   1.475   2.678  0.00  0.00    -0.308 N 
ATOM     10  H   UNL     1       1.803   2.120   1.942  0.00  0.00    +0.149 HD
BRANCH   9  11
ATOM     11  C   UNL     1       2.027   1.016   3.864  0.00  0.00    +0.106 C 
BRANCH  11  12
ATOM     12  C   UNL     1       3.507   1.011   3.578  0.00  0.00    -0.027 A 
ATOM     13  C   UNL     1       4.071   2.036   2.841  0.00  0.00    +0.005 A 
ATOM     14  C   UNL     1       5.429   2.035   2.583  0.00  0.00    +0.000 A 
ATOM     15  C   UNL     1       6.221   1.003   3.050  0.00  0.00    +0.000 A 
ATOM     16  C   UNL     1       5.655  -0.025   3.782  0.00  0.00    +0.000 A 
ATOM     17  C   UNL     1       4.298  -0.021   4.045  0.00  0.00    +0.005 A 
ENDBRANCH  11  12
BRANCH  11  18
ATOM     18  C   UNL     1       1.738   1.957   5.035  0.00  0.00    +0.008 C 
ATOM     19  C   UNL     1       2.496   1.477   6.275  0.00  0.00    +0.009 C 
ATOM     20  C   UNL     1       2.192   3.373   4.676  0.00  0.00    +0.009 C 
ENDBRANCH  11  18
ENDBRANCH   9  11
ENDBRANCH   5   7
BRANCH   1  21
ATOM     21  S   UNL     1      -4.284   2.164   0.055  0.00  0.00    +0.066 S 
ATOM     22  O   UNL     1      -4.370   2.834   1.305  0.00  0.00    -0.153 OA
ATOM     23  O   UNL     1      -4.393   2.848  -1.185  0.00  0.00    -0.153 OA
BRANCH  21  26
ATOM     24  C   UNL     1      -5.854   0.579   2.630  0.00  0.00    +0.071 C 
ATOM     25  C   UNL     1      -6.149   0.310   1.177  0.00  0.00    +0.107 A 
ATOM     26  C   UNL     1      -5.540   0.927   0.060  0.00  0.00    +0.170 A 
ATOM     27  C   UNL     1      -6.149   0.352  -1.004  0.00  0.00    +0.161 A 
ATOM     28  O   UNL     1      -7.029  -0.528  -0.508  0.00  0.00    -0.358 OA
ATOM     29  N   UNL     1      -7.017  -0.535   0.701  0.00  0.00    -0.081 NA
ATOM     30  C   UNL     1      -5.886   0.644  -2.459  0.00  0.00    +0.091 C 
ENDBRANCH  21  26
ENDBRANCH   1  21
TORSDOF 6
