REMARK  Name = ZINC13338365
REMARK  12 active torsions:
REMARK  status: ('A' for Active; 'I' for Inactive)
REMARK    1  A    between atoms: C_1  and  C_2
REMARK    2  A    between atoms: C_2  and  O_3
REMARK    3  A    between atoms: O_3  and  C_4
REMARK    4  A    between atoms: C_6  and  C_16
REMARK    5  A    between atoms: C_8  and  O_13
REMARK    6  A    between atoms: C_9  and  O_10
REMARK    7  A    between atoms: O_10  and  C_11
REMARK    8  A    between atoms: C_11  and  C_12
REMARK    9  A    between atoms: O_13  and  C_14
REMARK   10  A    between atoms: C_14  and  C_15
REMARK   11  A    between atoms: C_19  and  C_20
REMARK   12  A    between atoms: C_23  and  C_26
REMARK                            x       y       z     vdW  Elec       q    Type
REMARK                         _______ _______ _______ _____ _____    ______ ____
ROOT
ATOM      1  C   UNL     1       1.249   1.794  -0.056  0.00  0.00    +0.232 C 
ATOM      2  N   UNL     1       2.108   0.811  -0.053  0.00  0.00    -0.205 NA
ATOM      3  C   UNL     1       1.432  -0.373  -0.034  0.00  0.00    +0.152 C 
ATOM      4  C   UNL     1       1.970  -1.640  -0.026  0.00  0.00    +0.043 C 
ATOM      5  C   UNL     1      -0.000  -0.007  -0.025  0.00  0.00    +0.364 C 
ATOM      6  O   UNL     1      -0.955  -0.760  -0.009  0.00  0.00    -0.243 OA
ATOM      7  O   UNL     1      -0.021   1.344  -0.040  0.00  0.00    -0.402 OA
ENDROOT
BRANCH   1  10
ATOM      8  C   UNL     1       0.981   5.541  -0.095  0.00  0.00    +0.166 A 
ATOM      9  C   UNL     1       0.628   4.204  -0.077  0.00  0.00    +0.062 A 
ATOM     10  C   UNL     1       1.622   3.221  -0.075  0.00  0.00    +0.044 A 
ATOM     11  C   UNL     1       2.969   3.592  -0.085  0.00  0.00    +0.062 A 
ATOM     12  C   UNL     1       3.316   4.930  -0.108  0.00  0.00    +0.166 A 
ATOM     13  C   UNL     1       2.324   5.907  -0.110  0.00  0.00    +0.204 A 
BRANCH   8  14
ATOM     14  O   UNL     1       0.016   6.498  -0.097  0.00  0.00    -0.488 OA
BRANCH  14  16
ATOM     15  C   UNL     1      -2.277   7.261  -0.085  0.00  0.00    +0.048 C 
ATOM     16  C   UNL     1      -1.341   6.051  -0.080  0.00  0.00    +0.226 C 
ENDBRANCH  14  16
ENDBRANCH   8  14
BRANCH  13  17
ATOM     17  O   UNL     1       2.668   7.223  -0.126  0.00  0.00    -0.485 OA
BRANCH  17  18
ATOM     18  C   UNL     1       2.843   7.863   1.139  0.00  0.00    +0.226 C 
ATOM     19  C   UNL     1       3.225   9.329   0.920  0.00  0.00    +0.048 C 
ENDBRANCH  17  18
ENDBRANCH  13  17
BRANCH  12  20
ATOM     20  O   UNL     1       4.627   5.292  -0.122  0.00  0.00    -0.488 OA
BRANCH  20  21
ATOM     21  C   UNL     1       5.591   4.237  -0.119  0.00  0.00    +0.226 C 
ATOM     22  C   UNL     1       7.000   4.835  -0.137  0.00  0.00    +0.048 C 
ENDBRANCH  20  21
ENDBRANCH  12  20
ENDBRANCH   1  10
BRANCH   4  23
ATOM     23  C   UNL     1       3.419  -1.823  -0.151  0.00  0.00    -0.023 A 
ATOM     24  C   UNL     1       3.957  -3.113  -0.263  0.00  0.00    +0.009 A 
ATOM     25  C   UNL     1       5.307  -3.281  -0.386  0.00  0.00    +0.016 A 
ATOM     26  C   UNL     1       6.153  -2.168  -0.387  0.00  0.00    +0.063 A 
ATOM     27  C   UNL     1       5.619  -0.881  -0.271  0.00  0.00    +0.016 A 
ATOM     28  C   UNL     1       4.269  -0.709  -0.153  0.00  0.00    +0.009 A 
BRANCH  26  29
ATOM     29  C   UNL     1       7.613  -2.352  -0.513  0.00  0.00    +0.387 C 
ATOM     30  O   UNL     1       8.349  -1.385  -0.515  0.00  0.00    -0.241 OA
ATOM     31  O   UNL     1       8.128  -3.591  -0.626  0.00  0.00    -0.241 OA
ENDBRANCH  26  29
ENDBRANCH   4  23
TORSDOF 9
