REMARK  Name = ZINC12376197
REMARK  3 active torsions:
REMARK  status: ('A' for Active; 'I' for Inactive)
REMARK    1  A    between atoms: C_4  and  C_7
REMARK    2  A    between atoms: C_12  and  O_36
REMARK    3  A    between atoms: C_24  and  C_30
REMARK                            x       y       z     vdW  Elec       q    Type
REMARK                         _______ _______ _______ _____ _____    ______ ____
ROOT
ATOM      1  C   UNL     1      -1.332   2.114   0.020  0.00  0.00    +0.061 C 
ATOM      2  C   UNL     1      -1.418   2.968   1.258  0.00  0.00    +0.004 A 
ATOM      3  C   UNL     1      -0.980   2.439   2.463  0.00  0.00    +0.031 A 
ATOM      4  C   UNL     1      -1.047   3.189   3.620  0.00  0.00    +0.083 A 
ATOM      5  C   UNL     1      -1.557   4.481   3.580  0.00  0.00    +0.139 A 
ATOM      6  C   UNL     1      -1.993   5.011   2.378  0.00  0.00    +0.093 A 
ATOM      7  C   UNL     1      -1.922   4.256   1.213  0.00  0.00    +0.131 A 
ATOM      8  O   UNL     1      -2.352   4.813   0.051  0.00  0.00    -0.467 OA
ATOM      9  C   UNL     1      -2.615   3.951  -1.054  0.00  0.00    +0.186 C 
ATOM     10  C   UNL     1      -1.431   2.996  -1.229  0.00  0.00    +0.064 C 
ATOM     11  C   UNL     1      -1.700   2.094  -2.443  0.00  0.00    +0.010 C 
ATOM     12  C   UNL     1      -2.967   1.276  -2.180  0.00  0.00    +0.001 C 
ATOM     13  C   UNL     1      -4.155   2.219  -1.988  0.00  0.00    +0.011 C 
ATOM     14  C   UNL     1      -3.895   3.150  -0.799  0.00  0.00    +0.077 C 
ATOM     15  C   UNL     1      -5.061   4.142  -0.690  0.00  0.00    +0.111 C 
ATOM     16  N   UNL     1      -5.108   4.950  -1.911  0.00  0.00    -0.319 N 
ATOM     17  C   UNL     1      -4.001   5.209  -2.623  0.00  0.00    +0.134 C 
ATOM     18  S   UNL     1      -4.139   6.157  -4.042  0.00  0.00    -0.019 S 
ATOM     19  N   UNL     1      -2.789   4.753  -2.268  0.00  0.00    -0.289 N 
ATOM     20 CL   UNL     1      -0.495   2.519   5.123  0.00  0.00    -0.080 Cl
ATOM     21  H   UNL     1      -5.958   5.307  -2.211  0.00  0.00    +0.148 HD
ATOM     22  H   UNL     1      -2.019   4.956  -2.821  0.00  0.00    +0.151 HD
ENDROOT
BRANCH   1  26
ATOM     23  C   UNL     1       2.396   0.029  -0.022  0.00  0.00    +0.000 A 
ATOM     24  C   UNL     1       1.208  -0.679  -0.013  0.00  0.00    +0.000 A 
ATOM     25  C   UNL     1       0.002  -0.004   0.002  0.00  0.00    +0.004 A 
ATOM     26  C   UNL     1      -0.017   1.378   0.010  0.00  0.00    -0.039 A 
ATOM     27  C   UNL     1       1.171   2.086   0.002  0.00  0.00    +0.004 A 
ATOM     28  C   UNL     1       2.377   1.411  -0.015  0.00  0.00    +0.000 A 
ENDBRANCH   1  26
BRANCH  15  29
ATOM     29  C   UNL     1      -6.355   3.386  -0.536  0.00  0.00    -0.027 A 
ATOM     30  C   UNL     1      -6.967   2.830  -1.644  0.00  0.00    +0.005 A 
ATOM     31  C   UNL     1      -8.152   2.132  -1.502  0.00  0.00    +0.000 A 
ATOM     32  C   UNL     1      -8.730   1.998  -0.253  0.00  0.00    +0.000 A 
ATOM     33  C   UNL     1      -8.120   2.558   0.854  0.00  0.00    +0.000 A 
ATOM     34  C   UNL     1      -6.933   3.252   0.713  0.00  0.00    +0.005 A 
ENDBRANCH  15  29
BRANCH   5  35
ATOM     35  O   UNL     1      -1.628   5.221   4.717  0.00  0.00    -0.505 OA
ATOM     36  H   UNL     1      -2.459   5.120   5.201  0.00  0.00    +0.292 HD
ENDBRANCH   5  35
TORSDOF 3
