REMARK  Name = ZINC00648106
REMARK  14 active torsions:
REMARK  status: ('A' for Active; 'I' for Inactive)
REMARK    1  A    between atoms: C_1  and  C_2
REMARK    2  A    between atoms: C_3  and  C_35
REMARK    3  A    between atoms: C_4  and  C_25
REMARK    4  A    between atoms: C_10  and  C_15
REMARK    5  A    between atoms: C_18  and  O_23
REMARK    6  A    between atoms: C_19  and  O_21
REMARK    7  A    between atoms: O_21  and  C_22
REMARK    8  A    between atoms: O_23  and  C_24
REMARK    9  A    between atoms: C_30  and  O_31
REMARK   10  A    between atoms: O_31  and  C_32
REMARK   11  A    between atoms: C_32  and  C_33
REMARK   12  A    between atoms: C_32  and  C_34
REMARK   13  A    between atoms: C_35  and  O_37
REMARK   14  A    between atoms: O_37  and  C_38
REMARK                            x       y       z     vdW  Elec       q    Type
REMARK                         _______ _______ _______ _____ _____    ______ ____
ROOT
ATOM      1  C   UNL     1      -0.362   1.731   0.281  0.00  0.00    +0.061 C 
ATOM      2  C   UNL     1      -0.253   0.233   0.163  0.00  0.00    +0.016 C 
ATOM      3  C   UNL     1      -1.367  -0.520   0.154  0.00  0.00    +0.065 C 
ATOM      4  C   UNL     1      -1.296  -2.015   0.047  0.00  0.00    +0.096 C 
ATOM      5  C   UNL     1       0.052  -2.458  -0.465  0.00  0.00    +0.024 C 
ATOM      6  C   UNL     1       1.111  -1.621  -0.434  0.00  0.00    +0.016 C 
ATOM      7  N   UNL     1       0.979  -0.352   0.059  0.00  0.00    -0.321 N 
ATOM      8  C   UNL     1       2.460  -2.055  -0.949  0.00  0.00    +0.059 C 
ATOM      9  C   UNL     1       2.627  -3.563  -0.745  0.00  0.00    +0.032 C 
ATOM     10  C   UNL     1       1.491  -4.282  -1.481  0.00  0.00    +0.088 C 
ATOM     11  C   UNL     1       0.174  -3.764  -0.971  0.00  0.00    +0.162 C 
ATOM     12  O   UNL     1      -0.802  -4.488  -0.997  0.00  0.00    -0.292 OA
ATOM     13  H   UNL     1       1.768   0.136   0.342  0.00  0.00    +0.152 HD
ENDROOT
BRANCH   9  14
ATOM     14  C   UNL     1       3.956  -4.005  -1.302  0.00  0.00    -0.040 A 
ATOM     15  C   UNL     1       4.241  -3.812  -2.641  0.00  0.00    +0.008 A 
ATOM     16  C   UNL     1       5.459  -4.216  -3.157  0.00  0.00    +0.049 A 
ATOM     17  C   UNL     1       6.397  -4.815  -2.331  0.00  0.00    +0.161 A 
ATOM     18  C   UNL     1       6.110  -5.008  -0.983  0.00  0.00    +0.162 A 
ATOM     19  C   UNL     1       4.889  -4.597  -0.472  0.00  0.00    +0.053 A 
BRANCH  18  20
ATOM     20  O   UNL     1       7.027  -5.596  -0.169  0.00  0.00    -0.491 OA
ATOM     21  C   UNL     1       6.664  -5.762   1.203  0.00  0.00    +0.277 C 
ENDBRANCH  18  20
BRANCH  17  22
ATOM     22  O   UNL     1       7.595  -5.213  -2.837  0.00  0.00    -0.491 OA
ATOM     23  C   UNL     1       7.820  -4.983  -4.229  0.00  0.00    +0.277 C 
ENDBRANCH  17  22
ENDBRANCH   9  14
BRANCH   4  24
ATOM     24  C   UNL     1      -1.531  -2.620   1.407  0.00  0.00    +0.006 A 
ATOM     25  C   UNL     1      -0.687  -2.311   2.456  0.00  0.00    +0.008 A 
ATOM     26  C   UNL     1      -0.902  -2.866   3.704  0.00  0.00    +0.001 A 
ATOM     27  C   UNL     1      -1.962  -3.731   3.905  0.00  0.00    +0.004 A 
ATOM     28  C   UNL     1      -2.809  -4.042   2.860  0.00  0.00    +0.046 A 
ATOM     29  C   UNL     1      -2.599  -3.482   1.608  0.00  0.00    +0.125 A 
BRANCH  29  30
ATOM     30  O   UNL     1      -3.434  -3.783   0.579  0.00  0.00    -0.489 OA
BRANCH  30  31
ATOM     31  C   UNL     1      -4.508  -4.684   0.856  0.00  0.00    +0.167 C 
ATOM     32  C   UNL     1      -5.633  -4.463  -0.156  0.00  0.00    +0.051 C 
ATOM     33  C   UNL     1      -4.004  -6.125   0.754  0.00  0.00    +0.051 C 
ENDBRANCH  30  31
ENDBRANCH  29  30
ENDBRANCH   4  24
BRANCH   3  34
ATOM     34  C   UNL     1      -2.630   0.110   0.247  0.00  0.00    +0.338 C 
ATOM     35  O   UNL     1      -2.700   1.322   0.335  0.00  0.00    -0.245 OA
BRANCH  34  36
ATOM     36  O   UNL     1      -3.756  -0.633   0.240  0.00  0.00    -0.458 OA
BRANCH  36  37
ATOM     37  C   UNL     1      -4.997   0.069   0.338  0.00  0.00    +0.177 C 
ATOM     38  C   UNL     1      -5.434   0.166   1.814  0.00  0.00    +0.044 C 
ATOM     39  C   UNL     1      -6.974   0.006   1.765  0.00  0.00    +0.004 C 
ATOM     40  C   UNL     1      -7.173  -1.057   0.656  0.00  0.00    +0.004 C 
ATOM     41  C   UNL     1      -6.102  -0.708  -0.399  0.00  0.00    +0.044 C 
ENDBRANCH  36  37
ENDBRANCH  34  36
ENDBRANCH   3  34
TORSDOF 9
