REMARK  Name = ZINC06751317
REMARK  11 active torsions:
REMARK  status: ('A' for Active; 'I' for Inactive)
REMARK    1  A    between atoms: C_1  and  C_2
REMARK    2  A    between atoms: C_2  and  N_64
REMARK    3  A    between atoms: C_3  and  C_4
REMARK    4  A    between atoms: C_3  and  N_64
REMARK    5  A    between atoms: C_5  and  C_6
REMARK    6  A    between atoms: C_5  and  N_64
REMARK    7  A    between atoms: C_6  and  C_7
REMARK    8  A    between atoms: C_7  and  N_8
REMARK    9  A    between atoms: C_9  and  C_11
REMARK   10  A    between atoms: C_12  and  C_30
REMARK   11  A    between atoms: C_20  and  O_29
REMARK                            x       y       z     vdW  Elec       q    Type
REMARK                         _______ _______ _______ _____ _____    ______ ____
ROOT
ATOM      1  C   UNL     1      -1.990   3.129   3.905  0.00  0.00    +0.193 A 
ATOM      2  C   UNL     1      -2.038   2.721   5.199  0.00  0.00    +0.008 A 
ATOM      3  C   UNL     1      -3.308   3.215   5.732  0.00  0.00    +0.033 A 
ATOM      4  C   UNL     1      -3.927   3.898   4.671  0.00  0.00    +0.137 A 
ATOM      5  O   UNL     1      -3.106   3.826   3.605  0.00  0.00    -0.450 OA
ATOM      6  C   UNL     1      -5.169   4.486   4.877  0.00  0.00    +0.050 A 
ATOM      7  C   UNL     1      -5.780   4.390   6.106  0.00  0.00    +0.049 A 
ATOM      8  C   UNL     1      -5.169   3.709   7.162  0.00  0.00    +0.128 A 
ATOM      9  C   UNL     1      -3.934   3.127   6.982  0.00  0.00    +0.034 A 
ATOM     10  C   UNL     1      -3.232   2.401   8.101  0.00  0.00    +0.152 C 
ATOM     11  C   UNL     1      -4.242   2.023   9.188  0.00  0.00    +0.084 C 
ATOM     12  C   UNL     1      -5.093   3.255   9.506  0.00  0.00    +0.113 C 
ATOM     13  O   UNL     1      -5.829   3.638   8.350  0.00  0.00    -0.485 OA
ATOM     14  C   UNL     1      -6.049   2.944  10.666  0.00  0.00    +0.048 C 
ATOM     15  C   UNL     1      -5.690   3.923  11.804  0.00  0.00    +0.004 C 
ATOM     16  C   UNL     1      -5.007   5.111  11.081  0.00  0.00    +0.004 C 
ATOM     17  C   UNL     1      -4.188   4.410   9.968  0.00  0.00    +0.048 C 
ATOM     18  C   UNL     1      -0.995   1.922   5.938  0.00  0.00    +0.048 C 
ENDROOT
BRANCH   1  20
ATOM     19  N   UNL     1      -0.946   3.314   1.706  0.00  0.00    -0.309 N 
ATOM     20  C   UNL     1      -0.886   2.858   2.973  0.00  0.00    +0.280 C 
ATOM     21  O   UNL     1       0.082   2.222   3.345  0.00  0.00    -0.267 OA
ATOM     22  H   UNL     1      -1.718   3.821   1.409  0.00  0.00    +0.149 HD
BRANCH  19  23
ATOM     23  C   UNL     1       0.154   3.044   0.778  0.00  0.00    +0.103 C 
BRANCH  23  24
ATOM     24  C   UNL     1      -0.162   3.667  -0.583  0.00  0.00    +0.000 C 
BRANCH  24  25
ATOM     25  C   UNL     1       0.987   3.385  -1.553  0.00  0.00    -0.077 C 
BRANCH  25  26
ATOM     26  N   UNL     1       0.676   4.011  -2.856  0.00  0.00    +0.379 N 
ATOM     27  H   UNL     1       0.432   4.997  -2.702  0.00  0.00    -0.082 HD
BRANCH  26  29
ATOM     28  C   UNL     1       2.854   5.019  -3.318  0.00  0.00    -0.017 C 
ATOM     29  C   UNL     1       1.855   3.941  -3.744  0.00  0.00    -0.082 C 
ENDBRANCH  26  29
BRANCH  26  30
ATOM     30  C   UNL     1      -0.472   3.325  -3.485  0.00  0.00    -0.082 C 
ATOM     31  C   UNL     1      -1.004   4.198  -4.623  0.00  0.00    -0.017 C 
ENDBRANCH  26  30
ENDBRANCH  25  26
ENDBRANCH  24  25
ENDBRANCH  23  24
ENDBRANCH  19  23
ENDBRANCH   1  20
BRANCH  10  32
ATOM     32  O   UNL     1      -2.621   1.216   7.588  0.00  0.00    -0.387 OA
ATOM     33  H   UNL     1      -3.235   0.622   7.134  0.00  0.00    +0.210 HD
ENDBRANCH  10  32
TORSDOF 8
