REMARK  Name = ZINC12349041
REMARK  7 active torsions:
REMARK  status: ('A' for Active; 'I' for Inactive)
REMARK    1  A    between atoms: C_2  and  C_3
REMARK    2  A    between atoms: C_3  and  N_4
REMARK    3  A    between atoms: C_8  and  S_24
REMARK    4  A    between atoms: N_13  and  C_14
REMARK    5  A    between atoms: C_14  and  C_16
REMARK    6  A    between atoms: C_16  and  C_17
REMARK    7  A    between atoms: S_24  and  N_27
REMARK                            x       y       z     vdW  Elec       q    Type
REMARK                         _______ _______ _______ _____ _____    ______ ____
ROOT
ATOM      1  N   UNL     1      -0.705   1.593   1.195  0.00  0.00    -0.317 N 
ATOM      2  C   UNL     1       0.019   1.938   2.321  0.00  0.00    +0.058 A 
ATOM      3  C   UNL     1       1.408   1.873   2.518  0.00  0.00    +0.029 A 
ATOM      4  C   UNL     1       1.968   2.260   3.712  0.00  0.00    +0.030 A 
ATOM      5  C   UNL     1       1.184   2.724   4.756  0.00  0.00    +0.106 A 
ATOM      6  C   UNL     1      -0.188   2.798   4.589  0.00  0.00    +0.045 A 
ATOM      7  C   UNL     1      -0.748   2.412   3.395  0.00  0.00    +0.041 A 
ATOM      8  S   UNL     1      -2.408   2.345   2.769  0.00  0.00    -0.052 S 
ATOM      9  C   UNL     1      -2.057   1.730   1.186  0.00  0.00    +0.167 A 
ATOM     10  N   UNL     1      -2.908   1.455   0.200  0.00  0.00    -0.156 NA
ENDROOT
BRANCH   5  11
ATOM     11  S   UNL     1       1.925   3.212   6.278  0.00  0.00    +0.056 S 
ATOM     12  O   UNL     1       0.921   3.092   7.276  0.00  0.00    -0.153 OA
ATOM     13  O   UNL     1       3.168   2.530   6.362  0.00  0.00    -0.153 OA
BRANCH  11  14
ATOM     14  N   UNL     1       2.278   4.826   6.154  0.00  0.00    -0.204 NA
ATOM     15  H   UNL     1       2.067   5.307   5.339  0.00  0.00    +0.144 HD
ATOM     16  H   UNL     1       2.696   5.289   6.897  0.00  0.00    +0.144 HD
ENDBRANCH  11  14
ENDBRANCH   5  11
BRANCH  10  17
ATOM     17  C   UNL     1      -4.210   1.653   0.371  0.00  0.00    +0.243 C 
ATOM     18  O   UNL     1      -4.625   2.085   1.430  0.00  0.00    -0.273 OA
BRANCH  17  19
ATOM     19  C   UNL     1      -5.173   1.342  -0.745  0.00  0.00    +0.133 C 
BRANCH  19  20
ATOM     20  C   UNL     1      -6.579   1.652  -0.298  0.00  0.00    -0.038 A 
ATOM     21  C   UNL     1      -7.340   0.674   0.314  0.00  0.00    +0.005 A 
ATOM     22  C   UNL     1      -8.627   0.959   0.730  0.00  0.00    +0.020 A 
ATOM     23  C   UNL     1      -9.157   2.221   0.524  0.00  0.00    +0.041 A 
ATOM     24  C   UNL     1      -8.396   3.198  -0.093  0.00  0.00    +0.020 A 
ATOM     25  C   UNL     1      -7.107   2.913  -0.504  0.00  0.00    +0.005 A 
ATOM     26 CL   UNL     1     -10.775   2.578   1.040  0.00  0.00    -0.084 Cl
ENDBRANCH  19  20
ENDBRANCH  17  19
ENDBRANCH  10  17
BRANCH   1  27
ATOM     27  C   UNL     1      -0.013   1.086   0.008  0.00  0.00    +0.151 C 
BRANCH  27  29
ATOM     28  C   UNL     1      -0.034   2.360  -2.075  0.00  0.00    +0.005 C 
ATOM     29  C   UNL     1      -0.695   1.606  -1.231  0.00  0.00    -0.013 C 
ENDBRANCH  27  29
ENDBRANCH   1  27
TORSDOF 7
