REMARK  Name = ZINC43216428
REMARK  7 active torsions:
REMARK  status: ('A' for Active; 'I' for Inactive)
REMARK    1  A    between atoms: C_1  and  C_2
REMARK    2  A    between atoms: C_2  and  C_3
REMARK    3  A    between atoms: C_2  and  C_4
REMARK    4  A    between atoms: C_4  and  C_6
REMARK    5  A    between atoms: C_4  and  N_27
REMARK    6  A    between atoms: C_8  and  C_11
REMARK    7  A    between atoms: N_13  and  C_14
REMARK                            x       y       z     vdW  Elec       q    Type
REMARK                         _______ _______ _______ _____ _____    ______ ____
ROOT
ATOM      1  C   UNL     1       5.681  -0.632  -0.769  0.00  0.00    +0.266 C 
ATOM      2  O   UNL     1       6.626   0.130  -0.838  0.00  0.00    -0.268 OA
ATOM      3  N   UNL     1       5.885  -1.934  -0.483  0.00  0.00    -0.299 N 
ATOM      4  H   UNL     1       5.131  -2.542  -0.428  0.00  0.00    +0.150 HD
ENDROOT
BRANCH   3   5
ATOM      5  C   UNL     1       7.245  -2.429  -0.256  0.00  0.00    +0.135 C 
ATOM      6  C   UNL     1       7.869  -2.852  -1.563  0.00  0.00    -0.015 A 
ATOM      7  C   UNL     1       8.156  -2.158  -2.719  0.00  0.00    +0.006 A 
ATOM      8  C   UNL     1       8.743  -2.808  -3.790  0.00  0.00    +0.000 A 
ATOM      9  C   UNL     1       9.044  -4.156  -3.703  0.00  0.00    +0.001 A 
ATOM     10  C   UNL     1       8.760  -4.858  -2.550  0.00  0.00    +0.009 A 
ATOM     11  C   UNL     1       8.168  -4.209  -1.466  0.00  0.00    -0.012 A 
ATOM     12  C   UNL     1       7.762  -4.709  -0.129  0.00  0.00    -0.012 A 
ATOM     13  C   UNL     1       7.209  -3.666   0.609  0.00  0.00    -0.015 A 
ATOM     14  C   UNL     1       6.754  -3.886   1.891  0.00  0.00    +0.006 A 
ATOM     15  C   UNL     1       6.845  -5.148   2.452  0.00  0.00    +0.000 A 
ATOM     16  C   UNL     1       7.393  -6.191   1.727  0.00  0.00    +0.001 A 
ATOM     17  C   UNL     1       7.850  -5.980   0.443  0.00  0.00    +0.009 A 
ENDBRANCH   3   5
BRANCH   1  20
ATOM     18  C   UNL     1       2.165  -0.079  -1.208  0.00  0.00    +0.182 A 
ATOM     19  N   UNL     1       3.167  -0.866  -0.954  0.00  0.00    -0.210 NA
ATOM     20  C   UNL     1       4.313  -0.134  -0.999  0.00  0.00    +0.163 A 
ATOM     21  C   UNL     1       3.958   1.147  -1.294  0.00  0.00    +0.230 A 
ATOM     22  O   UNL     1       2.622   1.162  -1.425  0.00  0.00    -0.449 OA
BRANCH  18  23
ATOM     23  C   UNL     1       0.718  -0.497  -1.257  0.00  0.00    +0.015 C 
BRANCH  23  24
ATOM     24  N   UNL     1       0.080   0.086  -2.444  0.00  0.00    +0.386 N 
ATOM     25  H   UNL     1      -0.889  -0.194  -2.477  0.00  0.00    -0.089 HD
ATOM     26  H   UNL     1       0.138   1.092  -2.397  0.00  0.00    -0.089 HD
ATOM     27  H   UNL     1       0.552  -0.239  -3.274  0.00  0.00    -0.089 HD
ENDBRANCH  23  24
BRANCH  23  29
ATOM     28  C   UNL     1      -0.019   1.526   0.010  0.00  0.00    +0.006 C 
ATOM     29  C   UNL     1       0.002  -0.004   0.002  0.00  0.00    -0.023 C 
ATOM     30  C   UNL     1      -1.433  -0.534   0.013  0.00  0.00    +0.006 C 
ENDBRANCH  23  29
ENDBRANCH  18  23
ENDBRANCH   1  20
TORSDOF 5
