REMARK  Name = ZINC64506011
REMARK  3 active torsions:
REMARK  status: ('A' for Active; 'I' for Inactive)
REMARK    1  A    between atoms: C_13  and  C_15
REMARK    2  A    between atoms: C_22  and  C_24
REMARK    3  A    between atoms: C_27  and  C_30
REMARK                            x       y       z     vdW  Elec       q    Type
REMARK                         _______ _______ _______ _____ _____    ______ ____
ROOT
ATOM      1  C   UNL     1      -0.032  -6.653   1.157  0.00  0.00    +0.092 C 
ATOM      2  C   UNL     1      -0.792  -6.392  -0.146  0.00  0.00    +0.016 C 
ATOM      3  C   UNL     1      -2.114  -7.163  -0.131  0.00  0.00    +0.020 C 
ATOM      4  C   UNL     1      -1.824  -8.664  -0.033  0.00  0.00    +0.108 C 
ATOM      5  N   UNL     1      -0.971  -8.905   1.140  0.00  0.00    -0.299 N 
ATOM      6  C   UNL     1       0.281  -8.148   1.271  0.00  0.00    +0.120 C 
ATOM      7  C   UNL     1      -1.332  -9.804   2.078  0.00  0.00    +0.246 C 
ATOM      8  O   UNL     1      -0.620  -9.993   3.041  0.00  0.00    -0.273 OA
ENDROOT
BRANCH   1  21
ATOM      9  C   UNL     1       0.343   0.781   4.387  0.00  0.00    +0.005 A 
ATOM     10  C   UNL     1       1.551   1.465   4.361  0.00  0.00    +0.018 A 
ATOM     11  C   UNL     1       2.697   0.798   3.977  0.00  0.00    +0.084 A 
ATOM     12  N   UNL     1       2.657  -0.476   3.636  0.00  0.00    -0.350 N 
ATOM     13  C   UNL     1       1.524  -1.163   3.647  0.00  0.00    +0.099 A 
ATOM     14  C   UNL     1       0.331  -0.554   4.024  0.00  0.00    +0.042 A 
ATOM     15  N   UNL     1       1.528  -2.503   3.280  0.00  0.00    -0.314 N 
ATOM     16  C   UNL     1       0.300  -3.306   3.370  0.00  0.00    +0.125 C 
ATOM     17  C   UNL     1       0.020  -3.929   1.997  0.00  0.00    +0.126 C 
ATOM     18  N   UNL     1       1.251  -4.568   1.511  0.00  0.00    -0.298 N 
ATOM     19  C   UNL     1       2.478  -3.765   1.421  0.00  0.00    +0.126 C 
ATOM     20  C   UNL     1       2.757  -3.141   2.789  0.00  0.00    +0.125 C 
ATOM     21  C   UNL     1       1.254  -5.868   1.155  0.00  0.00    +0.220 C 
ATOM     22  O   UNL     1       2.292  -6.406   0.833  0.00  0.00    -0.275 OA
ATOM     23  H   UNL     1       3.477  -0.921   3.370  0.00  0.00    +0.166 HD
ENDBRANCH   1  21
BRANCH   7  24
ATOM     24  C   UNL     1      -2.620 -10.572   1.929  0.00  0.00    +0.238 C 
ATOM     25  C   UNL     1      -3.796  -9.746   2.418  0.00  0.00    +0.041 C 
ATOM     26  C   UNL     1      -4.297 -10.469   3.438  0.00  0.00    +0.093 C 
ATOM     27  N   UNL     1      -3.573 -11.606   3.614  0.00  0.00    -0.153 NA
ATOM     28  N   UNL     1      -2.632 -11.742   2.823  0.00  0.00    -0.170 NA
BRANCH  26  29
ATOM     29  C   UNL     1      -5.472 -10.079   4.256  0.00  0.00    +0.020 A 
ATOM     30  C   UNL     1      -5.913 -10.896   5.301  0.00  0.00    +0.013 A 
ATOM     31  C   UNL     1      -7.014 -10.488   6.034  0.00  0.00    +0.020 A 
ATOM     32  C   UNL     1      -7.636  -9.295   5.712  0.00  0.00    +0.111 A 
ATOM     33  N   UNL     1      -7.196  -8.544   4.721  0.00  0.00    -0.263 NA
ATOM     34  C   UNL     1      -6.150  -8.889   3.999  0.00  0.00    +0.120 A 
ENDBRANCH  26  29
ENDBRANCH   7  24
TORSDOF 3
