REMARK  Name = ZINC38664127
REMARK  11 active torsions:
REMARK  status: ('A' for Active; 'I' for Inactive)
REMARK    1  A    between atoms: C_1  and  C_2
REMARK    2  A    between atoms: C_2  and  C_3
REMARK    3  A    between atoms: C_2  and  C_4
REMARK    4  A    between atoms: C_2  and  O_5
REMARK    5  A    between atoms: O_5  and  C_6
REMARK    6  A    between atoms: N_8  and  C_9
REMARK    7  A    between atoms: C_9  and  C_11
REMARK    8  A    between atoms: C_9  and  C_21
REMARK    9  A    between atoms: C_11  and  C_12
REMARK   10  A    between atoms: C_25  and  S_28
REMARK   11  A    between atoms: S_28  and  C_29
REMARK                            x       y       z     vdW  Elec       q    Type
REMARK                         _______ _______ _______ _____ _____    ______ ____
ROOT
ATOM      1  C   UNL     1       3.818  -0.067  -2.922  0.00  0.00    +0.133 C 
ENDROOT
BRANCH   1   2
ATOM      2  C   UNL     1       3.829   1.399  -3.360  0.00  0.00    +0.280 C 
ATOM      3  N   UNL     1       5.118   1.737  -3.978  0.00  0.00    -0.155 NA
ATOM      4  N   UNL     1       4.934   2.396  -5.010  0.00  0.00    -0.146 NA
ATOM      5  C   UNL     1       3.496   2.595  -5.232  0.00  0.00    +0.318 C 
ATOM      6  O   UNL     1       2.843   1.622  -4.389  0.00  0.00    -0.316 OA
BRANCH   5   7
ATOM      7  S   UNL     1       3.083   2.302  -6.974  0.00  0.00    -0.108 S 
ATOM      8  C   UNL     1       3.482   0.551  -7.231  0.00  0.00    +0.089 C 
ENDBRANCH   5   7
ENDBRANCH   1   2
BRANCH   1  11
ATOM      9  C   UNL     1       2.198  -0.115  -1.103  0.00  0.00    +0.401 C 
ATOM     10  O   UNL     1       3.052   0.339  -0.367  0.00  0.00    -0.226 OA
ATOM     11  N   UNL     1       2.499  -0.407  -2.384  0.00  0.00    -0.274 N 
ATOM     12  H   UNL     1       1.842  -0.841  -2.950  0.00  0.00    +0.152 HD
BRANCH   9  13
ATOM     13  O   UNL     1       0.952  -0.327  -0.639  0.00  0.00    -0.445 OA
BRANCH  13  15
ATOM     14  C   UNL     1       0.998   1.546   0.888  0.00  0.00    +0.055 C 
ATOM     15  C   UNL     1       0.689   0.058   0.712  0.00  0.00    +0.107 C 
ATOM     16  C   UNL     1       1.571  -0.761   1.656  0.00  0.00    +0.055 C 
ATOM     17  C   UNL     1      -0.783  -0.200   1.038  0.00  0.00    +0.055 C 
ENDBRANCH  13  15
ENDBRANCH   9  13
ENDBRANCH   1  11
BRANCH   1  18
ATOM     18  C   UNL     1       4.123  -0.960  -4.127  0.00  0.00    +0.064 C 
BRANCH  18  19
ATOM     19  C   UNL     1       4.234  -2.393  -3.674  0.00  0.00    -0.020 A 
ATOM     20  C   UNL     1       3.130  -3.340  -3.498  0.00  0.00    +0.003 A 
ATOM     21  C   UNL     1       1.747  -3.259  -3.667  0.00  0.00    +0.010 A 
ATOM     22  C   UNL     1       0.967  -4.352  -3.412  0.00  0.00    +0.001 A 
ATOM     23  C   UNL     1       1.539  -5.542  -2.986  0.00  0.00    +0.002 A 
ATOM     24  C   UNL     1       2.902  -5.644  -2.812  0.00  0.00    +0.026 A 
ATOM     25  C   UNL     1       3.715  -4.544  -3.066  0.00  0.00    +0.047 A 
ATOM     26  N   UNL     1       5.073  -4.331  -2.990  0.00  0.00    -0.360 N 
ATOM     27  C   UNL     1       5.364  -3.047  -3.361  0.00  0.00    +0.087 A 
ATOM     28  H   UNL     1       5.727  -4.994  -2.717  0.00  0.00    +0.165 HD
ENDBRANCH  18  19
ENDBRANCH   1  18
TORSDOF 7
