REMARK  Name = ZINC15084251
REMARK  8 active torsions:
REMARK  status: ('A' for Active; 'I' for Inactive)
REMARK    1  A    between atoms: C_1  and  C_2
REMARK    2  A    between atoms: C_2  and  C_3
REMARK    3  A    between atoms: C_3  and  C_4
REMARK    4  A    between atoms: C_4  and  O_5
REMARK    5  A    between atoms: O_5  and  C_6
REMARK    6  A    between atoms: C_6  and  C_8
REMARK    7  A    between atoms: C_11  and  N_14
REMARK    8  A    between atoms: C_18  and  N_22
REMARK                            x       y       z     vdW  Elec       q    Type
REMARK                         _______ _______ _______ _____ _____    ______ ____
ROOT
ATOM      1  N   UNL     1      -8.097  -6.124   0.047  0.00  0.00    -0.212 N 
ATOM      2  C   UNL     1      -9.205  -5.379   0.149  0.00  0.00    +0.225 C 
ATOM      3  O   UNL     1      -9.232  -4.171   0.243  0.00  0.00    -0.275 OA
ATOM      4  C   UNL     1     -10.417  -6.285   0.129  0.00  0.00    +0.090 C 
ATOM      5  C   UNL     1      -9.811  -7.697  -0.004  0.00  0.00    +0.029 C 
ATOM      6  C   UNL     1      -8.321  -7.441  -0.051  0.00  0.00    +0.213 C 
ATOM      7  O   UNL     1      -7.465  -8.292  -0.157  0.00  0.00    -0.277 OA
ENDROOT
BRANCH   5   8
ATOM      8  N   UNL     1     -10.263  -8.338  -1.246  0.00  0.00    +0.388 N 
ATOM      9  C   UNL     1     -11.743  -8.477  -1.229  0.00  0.00    -0.074 C 
ATOM     10  C   UNL     1     -12.021  -9.975  -1.249  0.00  0.00    -0.026 C 
ATOM     11  C   UNL     1     -13.252 -10.446  -1.995  0.00  0.00    +0.002 C 
ATOM     12  C   UNL     1     -13.284 -11.980  -1.889  0.00  0.00    +0.000 C 
ATOM     13  C   UNL     1     -12.009 -12.610  -2.441  0.00  0.00    +0.000 C 
ATOM     14  C   UNL     1     -10.752 -12.020  -1.779  0.00  0.00    +0.002 C 
ATOM     15  C   UNL     1     -10.779 -10.524  -2.008  0.00  0.00    -0.026 C 
ATOM     16  C   UNL     1      -9.667  -9.700  -1.354  0.00  0.00    -0.074 C 
ATOM     17  H   UNL     1      -9.984  -7.781  -2.039  0.00  0.00    -0.081 HD
ENDBRANCH   5   8
BRANCH   1  21
ATOM     18  C   UNL     1      -4.267  -4.478   0.018  0.00  0.00    +0.059 A 
ATOM     19  C   UNL     1      -4.775  -5.091  -1.131  0.00  0.00    +0.017 A 
ATOM     20  C   UNL     1      -6.040  -5.634  -1.117  0.00  0.00    +0.025 A 
ATOM     21  C   UNL     1      -6.813  -5.572   0.037  0.00  0.00    +0.044 A 
ATOM     22  C   UNL     1      -6.311  -4.963   1.182  0.00  0.00    +0.025 A 
ATOM     23  C   UNL     1      -5.045  -4.423   1.178  0.00  0.00    +0.017 A 
BRANCH  18  24
ATOM     24  C   UNL     1      -2.912  -3.895   0.007  0.00  0.00    +0.339 C 
ATOM     25  O   UNL     1      -2.470  -3.366   1.008  0.00  0.00    -0.245 OA
BRANCH  24  26
ATOM     26  O   UNL     1      -2.164  -3.949  -1.113  0.00  0.00    -0.461 OA
BRANCH  26  27
ATOM     27  C   UNL     1      -0.862  -3.365  -1.051  0.00  0.00    +0.232 C 
BRANCH  27  28
ATOM     28  C   UNL     1      -0.168  -3.521  -2.406  0.00  0.00    +0.041 C 
BRANCH  28  30
ATOM     29  C   UNL     1       1.920  -3.053  -3.695  0.00  0.00    +0.004 C 
ATOM     30  C   UNL     1       1.227  -2.896  -2.340  0.00  0.00    -0.000 C 
ENDBRANCH  28  30
ENDBRANCH  27  28
ENDBRANCH  26  27
ENDBRANCH  24  26
ENDBRANCH  18  24
ENDBRANCH   1  21
TORSDOF 7
