REMARK  Name = ZINC36805926
REMARK  12 active torsions:
REMARK  status: ('A' for Active; 'I' for Inactive)
REMARK    1  A    between atoms: C_1  and  C_2
REMARK    2  A    between atoms: C_2  and  C_3
REMARK    3  A    between atoms: C_10  and  C_12
REMARK    4  A    between atoms: C_12  and  C_14
REMARK    5  A    between atoms: C_12  and  S_15
REMARK    6  A    between atoms: S_15  and  C_16
REMARK    7  A    between atoms: N_29  and  C_30
REMARK    8  A    between atoms: C_30  and  C_31
REMARK    9  A    between atoms: C_31  and  C_32
REMARK   10  A    between atoms: C_32  and  N_33
REMARK   11  A    between atoms: N_33  and  C_34
REMARK   12  A    between atoms: N_33  and  C_35
REMARK                            x       y       z     vdW  Elec       q    Type
REMARK                         _______ _______ _______ _____ _____    ______ ____
ROOT
ATOM      1  C   UNL     1      -1.912   1.656  -6.174  0.00  0.00    +0.173 A 
ATOM      2  N   UNL     1      -3.203   1.394  -6.155  0.00  0.00    -0.216 NA
ATOM      3  C   UNL     1      -3.947   1.562  -7.241  0.00  0.00    +0.117 A 
ATOM      4  C   UNL     1      -3.406   2.022  -8.454  0.00  0.00    +0.076 A 
ATOM      5  C   UNL     1      -4.351   2.156  -9.565  0.00  0.00    -0.023 A 
ATOM      6  C   UNL     1      -5.635   1.829  -9.319  0.00  0.00    -0.004 A 
ATOM      7  S   UNL     1      -5.666   1.330  -7.619  0.00  0.00    -0.073 S 
ATOM      8  C   UNL     1      -6.785   1.880 -10.279  0.00  0.00    +0.043 C 
ATOM      9  C   UNL     1      -6.362   2.714 -11.497  0.00  0.00    +0.005 C 
ATOM     10  C   UNL     1      -4.984   2.236 -11.966  0.00  0.00    +0.005 C 
ATOM     11  C   UNL     1      -3.920   2.641 -10.946  0.00  0.00    +0.037 C 
ATOM     12  C   UNL     1      -2.002   2.298  -8.445  0.00  0.00    +0.263 A 
ATOM     13  O   UNL     1      -1.446   2.702  -9.452  0.00  0.00    -0.267 OA
ATOM     14  N   UNL     1      -1.306   2.111  -7.309  0.00  0.00    -0.287 N 
ENDROOT
BRANCH   1  15
ATOM     15  S   UNL     1      -0.956   1.421  -4.713  0.00  0.00    -0.075 S 
BRANCH  15  16
ATOM     16  C   UNL     1      -2.157   0.820  -3.494  0.00  0.00    +0.137 C 
ATOM     17  C   UNL     1      -3.186   1.915  -3.209  0.00  0.00    +0.029 C 
BRANCH  16  24
ATOM     18  C   UNL     1      -1.393  -0.634  -0.028  0.00  0.00    +0.076 C 
ATOM     19  C   UNL     1      -1.262  -2.149   0.157  0.00  0.00    +0.022 C 
ATOM     20  C   UNL     1      -2.635  -2.801  -0.020  0.00  0.00    +0.003 C 
ATOM     21  C   UNL     1      -3.152  -2.530  -1.435  0.00  0.00    +0.019 C 
ATOM     22  C   UNL     1      -3.304  -1.020  -1.638  0.00  0.00    +0.108 C 
ATOM     23  N   UNL     1      -2.025  -0.366  -1.327  0.00  0.00    -0.298 N 
ATOM     24  C   UNL     1      -1.440   0.459  -2.218  0.00  0.00    +0.229 C 
ATOM     25  O   UNL     1      -0.338   0.912  -1.993  0.00  0.00    -0.274 OA
BRANCH  18  27
ATOM     26  C   UNL     1       0.650  -0.271   1.363  0.00  0.00    +0.006 C 
ATOM     27  C   UNL     1      -0.005   0.009   0.009  0.00  0.00    +0.019 C 
ENDBRANCH  18  27
ENDBRANCH  16  24
ENDBRANCH  15  16
ENDBRANCH   1  15
BRANCH  14  28
ATOM     28  C   UNL     1       0.131   2.398  -7.291  0.00  0.00    +0.125 C 
BRANCH  28  29
ATOM     29  C   UNL     1       0.906   1.139  -7.684  0.00  0.00    +0.003 C 
BRANCH  29  30
ATOM     30  C   UNL     1       2.407   1.438  -7.665  0.00  0.00    -0.078 C 
BRANCH  30  31
ATOM     31  N   UNL     1       3.152   0.229  -8.042  0.00  0.00    +0.376 N 
ATOM     32  C   UNL     1       2.843  -0.122  -9.434  0.00  0.00    -0.097 C 
ATOM     33  C   UNL     1       4.593   0.481  -7.909  0.00  0.00    -0.097 C 
ATOM     34  H   UNL     1       2.886  -0.532  -7.436  0.00  0.00    -0.083 HD
ENDBRANCH  30  31
ENDBRANCH  29  30
ENDBRANCH  28  29
ENDBRANCH  14  28
TORSDOF 8
