REMARK  Name = ZINC23426586
REMARK  8 active torsions:
REMARK  status: ('A' for Active; 'I' for Inactive)
REMARK    1  A    between atoms: C_4  and  S_7
REMARK    2  A    between atoms: S_7  and  C_8
REMARK    3  A    between atoms: C_8  and  C_9
REMARK    4  A    between atoms: C_9  and  N_10
REMARK    5  A    between atoms: C_11  and  C_13
REMARK    6  A    between atoms: C_16  and  N_19
REMARK    7  A    between atoms: N_19  and  N_20
REMARK    8  A    between atoms: C_26  and  C_31
REMARK                            x       y       z     vdW  Elec       q    Type
REMARK                         _______ _______ _______ _____ _____    ______ ____
ROOT
ATOM      1  C   UNL     1       2.403   0.038  -0.021  0.00  0.00    +0.037 A 
ATOM      2  C   UNL     1       1.203  -0.677  -0.014  0.00  0.00    +0.015 A 
ATOM      3  C   UNL     1       0.002  -0.004   0.002  0.00  0.00    +0.025 A 
ATOM      4  C   UNL     1      -0.017   1.388   0.010  0.00  0.00    +0.048 A 
ATOM      5  C   UNL     1       1.178   2.103   0.002  0.00  0.00    +0.025 A 
ATOM      6  C   UNL     1       2.381   1.435  -0.013  0.00  0.00    +0.015 A 
ENDROOT
BRANCH   1   8
ATOM      7  N   UNL     1       4.849   0.010  -0.046  0.00  0.00    -0.311 N 
ATOM      8  C   UNL     1       3.692  -0.681  -0.038  0.00  0.00    +0.244 C 
ATOM      9  O   UNL     1       3.710  -1.897  -0.046  0.00  0.00    -0.270 OA
ATOM     10  H   UNL     1       4.833   1.110  -0.039  0.00  0.00    +0.149 HD
BRANCH   7  11
ATOM     11  C   UNL     1       6.129  -0.704  -0.063  0.00  0.00    +0.115 C 
BRANCH  11  12
ATOM     12  C   UNL     1       7.277   0.307  -0.068  0.00  0.00    +0.093 C 
BRANCH  12  13
ATOM     13  S   UNL     1       8.861  -0.577  -0.089  0.00  0.00    -0.124 S 
BRANCH  13  17
ATOM     14  C   UNL     1      11.959   2.727  -0.100  0.00  0.00    +0.000 A 
ATOM     15  C   UNL     1      12.361   1.404  -0.112  0.00  0.00    +0.001 A 
ATOM     16  C   UNL     1      11.420   0.394  -0.109  0.00  0.00    +0.015 A 
ATOM     17  C   UNL     1      10.066   0.709  -0.094  0.00  0.00    +0.008 A 
ATOM     18  C   UNL     1       9.665   2.039  -0.087  0.00  0.00    +0.015 A 
ATOM     19  C   UNL     1      10.613   3.044  -0.085  0.00  0.00    +0.001 A 
ENDBRANCH  13  17
ENDBRANCH  12  13
ENDBRANCH  11  12
ENDBRANCH   7  11
ENDBRANCH   1   8
BRANCH   4  20
ATOM     20  N   UNL     1      -1.232   2.066   0.019  0.00  0.00    -0.237 N 
ATOM     21  H   UNL     1      -2.176   1.502   0.021  0.00  0.00    +0.174 HD
BRANCH  20  22
ATOM     22  N   UNL     1      -1.250   3.356   0.026  0.00  0.00    -0.177 NA
ATOM     23  C   UNL     1      -2.398   3.996   0.035  0.00  0.00    +0.152 C 
ATOM     24  C   UNL     1      -2.612   5.461   0.050  0.00  0.00    +0.029 A 
ATOM     25  C   UNL     1      -1.748   6.551   0.046  0.00  0.00    +0.012 A 
ATOM     26  C   UNL     1      -2.262   7.832   0.056  0.00  0.00    +0.001 A 
ATOM     27  C   UNL     1      -3.633   8.030   0.064  0.00  0.00    +0.014 A 
ATOM     28  C   UNL     1      -4.499   6.955   0.062  0.00  0.00    +0.077 A 
ATOM     29  C   UNL     1      -3.999   5.657   0.052  0.00  0.00    +0.055 A 
ATOM     30  N   UNL     1      -4.637   4.422   0.049  0.00  0.00    -0.279 N 
ATOM     31  C   UNL     1      -3.751   3.412   0.039  0.00  0.00    +0.269 C 
ATOM     32  O   UNL     1      -4.018   2.224   0.033  0.00  0.00    -0.268 OA
ATOM     33  H   UNL     1      -5.736   4.370   0.054  0.00  0.00    +0.155 HD
BRANCH  28  34
ATOM     34  C   UNL     1      -5.987   7.189   0.071  0.00  0.00    +0.419 C 
ATOM     35  F   UNL     1      -6.244   8.564   0.079  0.00  0.00    -0.166 F 
ATOM     36  F   UNL     1      -6.556   6.615  -1.072  0.00  0.00    -0.166 F 
ATOM     37  F   UNL     1      -6.544   6.603   1.213  0.00  0.00    -0.166 F 
ENDBRANCH  28  34
ENDBRANCH  20  22
ENDBRANCH   4  20
TORSDOF 8
