REMARK  Name = ZINC03978259
REMARK  8 active torsions:
REMARK  status: ('A' for Active; 'I' for Inactive)
REMARK    1  A    between atoms: C_1  and  C_2
REMARK    2  A    between atoms: C_2  and  C_39
REMARK    3  A    between atoms: C_3  and  O_38
REMARK    4  A    between atoms: C_6  and  O_37
REMARK    5  A    between atoms: C_8  and  C_36
REMARK    6  A    between atoms: C_14  and  C_35
REMARK    7  A    between atoms: C_19  and  C_34
REMARK    8  A    between atoms: C_27  and  C_29
REMARK                            x       y       z     vdW  Elec       q    Type
REMARK                         _______ _______ _______ _____ _____    ______ ____
ROOT
ATOM      1  C   UNL     1      -0.072   1.720   0.314  0.00  0.00    +0.014 C 
ATOM      2  C   UNL     1       0.086   0.205   0.165  0.00  0.00    -0.005 C 
ATOM      3  C   UNL     1      -1.284  -0.407  -0.135  0.00  0.00    +0.123 C 
ATOM      4  C   UNL     1      -2.114  -0.552   1.139  0.00  0.00    +0.063 C 
ATOM      5  C   UNL     1      -1.348  -1.459   2.096  0.00  0.00    +0.123 C 
ATOM      6  C   UNL     1      -0.071  -0.741   2.563  0.00  0.00    +0.002 C 
ATOM      7  C   UNL     1       0.787  -0.440   1.337  0.00  0.00    +0.013 C 
ATOM      8  C   UNL     1       2.061   0.298   1.743  0.00  0.00    +0.079 C 
ATOM      9  C   UNL     1       1.740   1.501   2.598  0.00  0.00    +0.143 C 
ATOM     10  O   UNL     1       2.268   2.563   2.350  0.00  0.00    -0.297 OA
ATOM     11  C   UNL     1       0.788   1.353   3.762  0.00  0.00    +0.062 C 
ATOM     12  C   UNL     1      -0.409   0.511   3.344  0.00  0.00    +0.014 C 
ATOM     13  C   UNL     1      -1.345   0.266   4.513  0.00  0.00    +0.006 C 
ATOM     14  C   UNL     1      -1.396   1.418   5.500  0.00  0.00    +0.014 C 
ATOM     15  C   UNL     1      -1.070   2.777   4.892  0.00  0.00    +0.042 C 
ATOM     16  C   UNL     1       0.259   2.747   4.153  0.00  0.00    +0.128 C 
ATOM     17  C   UNL     1       1.296   3.840   4.403  0.00  0.00    +0.260 C 
ATOM     18  O   UNL     1       0.503   3.801   3.213  0.00  0.00    -0.351 OA
ATOM     19  C   UNL     1       0.917   4.897   5.423  0.00  0.00    +0.340 C 
ATOM     20  O   UNL     1       1.739   5.580   5.987  0.00  0.00    -0.248 OA
ATOM     21  O   UNL     1      -0.410   5.018   5.657  0.00  0.00    -0.454 OA
ATOM     22  C   UNL     1      -1.081   3.816   6.014  0.00  0.00    +0.218 C 
ATOM     23  C   UNL     1      -2.180   3.167   3.907  0.00  0.00    +0.018 C 
ATOM     24  C   UNL     1       1.544   0.775   4.962  0.00  0.00    +0.022 C 
ATOM     25  C   UNL     1       0.686  -1.764   3.433  0.00  0.00    +0.014 C 
ATOM     26  C   UNL     1       0.951  -0.032  -1.099  0.00  0.00    +0.014 C 
ENDROOT
BRANCH  22  27
ATOM     27  C   UNL     1      -2.512   4.152   6.345  0.00  0.00    +0.031 A 
ATOM     28  C   UNL     1      -3.266   3.651   7.431  0.00  0.00    +0.048 A 
ATOM     29  C   UNL     1      -4.487   4.211   7.349  0.00  0.00    +0.195 A 
ATOM     30  O   UNL     1      -4.512   5.020   6.278  0.00  0.00    -0.471 OA
ATOM     31  C   UNL     1      -3.315   4.992   5.668  0.00  0.00    +0.202 A 
ENDBRANCH  22  27
BRANCH   5  32
ATOM     32  O   UNL     1      -2.158  -1.850   3.195  0.00  0.00    -0.391 OA
ATOM     33  H   UNL     1      -2.955  -2.337   2.943  0.00  0.00    +0.210 HD
ENDBRANCH   5  32
BRANCH   3  34
ATOM     34  O   UNL     1      -1.982   0.429  -1.063  0.00  0.00    -0.391 OA
ATOM     35  H   UNL     1      -2.861   0.104  -1.301  0.00  0.00    +0.210 HD
ENDBRANCH   3  34
TORSDOF 3
