REMARK  Name = ZINC34757017
REMARK  8 active torsions:
REMARK  status: ('A' for Active; 'I' for Inactive)
REMARK    1  A    between atoms: C_1  and  C_2
REMARK    2  A    between atoms: C_2  and  N_3
REMARK    3  A    between atoms: N_3  and  C_4
REMARK    4  A    between atoms: C_4  and  C_5
REMARK    5  A    between atoms: C_6  and  C_8
REMARK    6  A    between atoms: C_8  and  N_9
REMARK    7  A    between atoms: C_22  and  S_24
REMARK    8  A    between atoms: S_24  and  C_25
REMARK                            x       y       z     vdW  Elec       q    Type
REMARK                         _______ _______ _______ _____ _____    ______ ____
ROOT
ATOM      1  N   UNL     1      -2.048  -0.890   3.688  0.00  0.00    +0.387 N 
ATOM      2  C   UNL     1      -3.078   0.156   3.662  0.00  0.00    -0.059 C 
ATOM      3  C   UNL     1      -4.183  -0.191   4.666  0.00  0.00    +0.088 C 
ATOM      4  N   UNL     1      -3.565  -0.404   5.984  0.00  0.00    -0.318 N 
ATOM      5  C   UNL     1      -2.415  -1.317   6.072  0.00  0.00    +0.088 C 
ATOM      6  C   UNL     1      -1.394  -0.916   5.002  0.00  0.00    -0.059 C 
ATOM      7  C   UNL     1      -4.052   0.238   7.109  0.00  0.00    +0.134 A 
ATOM      8  C   UNL     1      -5.007  -0.403   7.947  0.00  0.00    +0.051 A 
ATOM      9  C   UNL     1      -5.604  -1.740   7.795  0.00  0.00    -0.025 A 
ATOM     10  C   UNL     1      -6.492  -2.118   8.728  0.00  0.00    -0.004 A 
ATOM     11  S   UNL     1      -6.590  -0.746   9.856  0.00  0.00    -0.073 S 
ATOM     12  C   UNL     1      -5.434   0.338   9.063  0.00  0.00    +0.115 A 
ATOM     13  N   UNL     1      -4.970   1.550   9.307  0.00  0.00    -0.215 NA
ATOM     14  C   UNL     1      -4.080   2.099   8.492  0.00  0.00    +0.191 A 
ATOM     15  N   UNL     1      -3.631   1.452   7.422  0.00  0.00    -0.206 NA
ATOM     16  C   UNL     1      -7.039  -3.496   8.469  0.00  0.00    +0.043 C 
ATOM     17  C   UNL     1      -6.692  -3.778   6.990  0.00  0.00    +0.010 C 
ATOM     18  C   UNL     1      -5.458  -2.879   6.781  0.00  0.00    +0.037 C 
ATOM     19  H   UNL     1      -2.478  -1.786   3.510  0.00  0.00    -0.081 HD
ENDROOT
BRANCH  14  20
ATOM     20  S   UNL     1      -3.476   3.718   8.837  0.00  0.00    -0.089 S 
ATOM     21  C   UNL     1      -4.342   4.194  10.359  0.00  0.00    +0.093 C 
ENDBRANCH  14  20
BRANCH   1  22
ATOM     22  C   UNL     1      -1.046  -0.614   2.650  0.00  0.00    +0.019 C 
BRANCH  22  24
ATOM     23  N   UNL     1      -0.959  -0.492   0.181  0.00  0.00    -0.304 N 
ATOM     24  C   UNL     1      -1.691  -0.709   1.291  0.00  0.00    +0.199 C 
ATOM     25  O   UNL     1      -2.870  -0.979   1.197  0.00  0.00    -0.278 OA
BRANCH  23  27
ATOM     26  C   UNL     1       0.633   1.352   0.392  0.00  0.00    +0.024 C 
ATOM     27  C   UNL     1       0.465  -0.166   0.294  0.00  0.00    +0.104 C 
ENDBRANCH  23  27
BRANCH  23  28
ATOM     28  C   UNL     1      -1.586  -0.584  -1.140  0.00  0.00    +0.104 C 
ATOM     29  C   UNL     1      -1.478  -2.020  -1.658  0.00  0.00    +0.024 C 
ENDBRANCH  23  28
ENDBRANCH  22  24
ENDBRANCH   1  22
TORSDOF 5
