REMARK  Name = ZINC43547852
REMARK  12 active torsions:
REMARK  status: ('A' for Active; 'I' for Inactive)
REMARK    1  A    between atoms: C_1  and  C_2
REMARK    2  A    between atoms: C_2  and  O_40
REMARK    3  A    between atoms: C_5  and  C_22
REMARK    4  A    between atoms: C_9  and  C_20
REMARK    5  A    between atoms: C_9  and  C_21
REMARK    6  A    between atoms: C_11  and  N_13
REMARK    7  A    between atoms: N_13  and  C_14
REMARK    8  A    between atoms: C_22  and  C_23
REMARK    9  A    between atoms: C_23  and  C_24
REMARK   10  A    between atoms: N_29  and  C_32
REMARK   11  A    between atoms: C_37  and  O_38
REMARK   12  A    between atoms: O_38  and  C_39
REMARK                            x       y       z     vdW  Elec       q    Type
REMARK                         _______ _______ _______ _____ _____    ______ ____
ROOT
ATOM      1  C   UNL     1       0.312   1.432   0.658  0.00  0.00    +0.041 C 
ATOM      2  C   UNL     1       0.268  -0.084   0.452  0.00  0.00    +0.064 C 
ATOM      3  C   UNL     1      -1.184  -0.551   0.492  0.00  0.00    +0.035 C 
ATOM      4  C   UNL     1      -1.286  -2.082   0.407  0.00  0.00    +0.008 C 
ATOM      5  C   UNL     1      -0.490  -2.651   1.567  0.00  0.00    -0.038 C 
ATOM      6  C   UNL     1       0.995  -2.261   1.334  0.00  0.00    +0.002 C 
ATOM      7  C   UNL     1       1.107  -0.764   1.546  0.00  0.00    +0.039 C 
ATOM      8  C   UNL     1       1.749  -3.148   2.319  0.00  0.00    -0.033 C 
ATOM      9  C   UNL     1       0.879  -4.421   2.474  0.00  0.00    -0.009 C 
ATOM     10  C   UNL     1      -0.402  -4.180   1.630  0.00  0.00    -0.064 C 
ATOM     11  C   UNL     1       3.126  -3.511   1.759  0.00  0.00    +0.011 C 
ATOM     12  C   UNL     1       1.895  -2.439   3.667  0.00  0.00    +0.011 C 
ENDROOT
BRANCH  10  13
ATOM     13  N   UNL     1      -0.252  -4.748   0.283  0.00  0.00    +0.383 N 
ATOM     14  H   UNL     1      -0.997  -4.413  -0.308  0.00  0.00    -0.085 HD
ATOM     15  H   UNL     1       0.637  -4.466  -0.103  0.00  0.00    -0.085 HD
BRANCH  13  16
ATOM     16  C   UNL     1      -0.310  -6.214   0.361  0.00  0.00    -0.067 C 
ATOM     17  C   UNL     1      -0.017  -6.811  -1.019  0.00  0.00    +0.012 C 
ATOM     18  C   UNL     1      -0.156  -8.334  -0.947  0.00  0.00    +0.158 C 
ATOM     19  O   UNL     1      -1.470  -8.670  -0.496  0.00  0.00    -0.380 OA
ATOM     20  C   UNL     1      -1.784  -8.178   0.808  0.00  0.00    +0.158 C 
ATOM     21  C   UNL     1      -1.709  -6.649   0.806  0.00  0.00    +0.012 C 
ENDBRANCH  13  16
ENDBRANCH  10  13
BRANCH   2  22
ATOM     22  O   UNL     1       0.823  -0.398  -0.826  0.00  0.00    -0.389 OA
ATOM     23  H   UNL     1       0.356   0.008  -1.569  0.00  0.00    +0.210 HD
ENDBRANCH   2  22
BRANCH   5  24
ATOM     24  C   UNL     1      -1.008  -2.092   2.893  0.00  0.00    +0.015 C 
BRANCH  24  25
ATOM     25  C   UNL     1      -2.516  -2.331   2.994  0.00  0.00    +0.096 C 
BRANCH  25  26
ATOM     26  C   UNL     1      -3.026  -1.780   4.300  0.00  0.00    +0.216 C 
ATOM     27  O   UNL     1      -2.259  -1.248   5.075  0.00  0.00    -0.276 OA
ATOM     28  N   UNL     1      -4.335  -1.878   4.608  0.00  0.00    -0.298 N 
ATOM     29  C   UNL     1      -5.274  -2.525   3.681  0.00  0.00    +0.126 C 
ATOM     30  C   UNL     1      -6.006  -3.647   4.429  0.00  0.00    +0.124 C 
ATOM     31  N   UNL     1      -6.519  -3.109   5.697  0.00  0.00    -0.324 N 
ATOM     32  C   UNL     1      -5.579  -2.462   6.623  0.00  0.00    +0.124 C 
ATOM     33  C   UNL     1      -4.847  -1.345   5.878  0.00  0.00    +0.126 C 
BRANCH  31  34
ATOM     34  C   UNL     1      -7.878  -3.211   6.016  0.00  0.00    +0.072 A 
ATOM     35  C   UNL     1      -8.348  -4.316   6.711  0.00  0.00    +0.027 A 
ATOM     36  C   UNL     1      -9.690  -4.414   7.025  0.00  0.00    +0.002 A 
ATOM     37  C   UNL     1     -10.567  -3.413   6.649  0.00  0.00    +0.004 A 
ATOM     38  C   UNL     1     -10.105  -2.308   5.957  0.00  0.00    +0.047 A 
ATOM     39  C   UNL     1      -8.761  -2.200   5.643  0.00  0.00    +0.141 A 
BRANCH  39  40
ATOM     40  O   UNL     1      -8.304  -1.112   4.966  0.00  0.00    -0.493 OA
ATOM     41  C   UNL     1      -9.267  -0.116   4.615  0.00  0.00    +0.277 C 
ENDBRANCH  39  40
ENDBRANCH  31  34
ENDBRANCH  25  26
ENDBRANCH  24  25
ENDBRANCH   5  24
TORSDOF 8
