REMARK  Name = ZINC43093115
REMARK  6 active torsions:
REMARK  status: ('A' for Active; 'I' for Inactive)
REMARK    1  A    between atoms: C_1  and  C_2
REMARK    2  A    between atoms: C_2  and  C_4
REMARK    3  A    between atoms: C_2  and  N_23
REMARK    4  A    between atoms: C_4  and  C_6
REMARK    5  A    between atoms: C_4  and  N_13
REMARK    6  A    between atoms: C_18  and  C_20
REMARK                            x       y       z     vdW  Elec       q    Type
REMARK                         _______ _______ _______ _____ _____    ______ ____
ROOT
ATOM      1  C   UNL     1       0.298   0.168   0.905  0.00  0.00    +0.074 C 
ENDROOT
BRANCH   1   2
ATOM      2  C   UNL     1      -0.013  -1.179   0.305  0.00  0.00    -0.018 A 
ATOM      3  C   UNL     1       0.858  -1.748  -0.606  0.00  0.00    +0.006 A 
ATOM      4  C   UNL     1       0.573  -2.983  -1.156  0.00  0.00    +0.000 A 
ATOM      5  C   UNL     1      -0.583  -3.651  -0.797  0.00  0.00    +0.001 A 
ATOM      6  C   UNL     1      -1.454  -3.083   0.114  0.00  0.00    +0.015 A 
ATOM      7  C   UNL     1      -1.167  -1.849   0.669  0.00  0.00    +0.022 A 
ATOM      8 BR   UNL     1      -2.355  -1.074   1.920  0.00  0.00    -0.050 Br
ENDBRANCH   1   2
BRANCH   1   9
ATOM      9  N   UNL     1       1.754   0.366   0.936  0.00  0.00    -0.286 NA
ATOM     10  C   UNL     1       2.234   0.935  -0.329  0.00  0.00    +0.086 C 
ATOM     11  C   UNL     1       3.764   0.992  -0.317  0.00  0.00    +0.015 C 
ATOM     12  C   UNL     1       4.228   1.853   0.861  0.00  0.00    +0.003 C 
ATOM     13  C   UNL     1       3.674   1.266   2.162  0.00  0.00    +0.028 C 
ATOM     14  C   UNL     1       2.147   1.202   2.078  0.00  0.00    +0.143 C 
BRANCH  14  15
ATOM     15  C   UNL     1       1.598   0.607   3.349  0.00  0.00    +0.228 C 
ATOM     16  O   UNL     1       1.376  -0.584   3.414  0.00  0.00    -0.274 OA
ATOM     17  N   UNL     1       1.355   1.397   4.413  0.00  0.00    -0.328 N 
ATOM     18  H   UNL     1       1.532   2.349   4.360  0.00  0.00    +0.145 HD
ATOM     19  H   UNL     1       1.002   1.014   5.231  0.00  0.00    +0.145 HD
ENDBRANCH  14  15
ENDBRANCH   1   9
BRANCH   1  21
ATOM     20  C   UNL     1      -0.110   2.626   0.718  0.00  0.00    -0.012 C 
ATOM     21  C   UNL     1      -0.348   1.266   0.058  0.00  0.00    -0.056 C 
BRANCH  21  22
ATOM     22  N   UNL     1      -1.792   1.018  -0.046  0.00  0.00    +0.381 N 
ATOM     23  H   UNL     1      -2.212   1.087   0.869  0.00  0.00    -0.090 HD
ATOM     24  H   UNL     1      -2.208   1.702  -0.660  0.00  0.00    -0.090 HD
ATOM     25  H   UNL     1      -1.949   0.093  -0.419  0.00  0.00    -0.090 HD
ENDBRANCH  21  22
ENDBRANCH   1  21
TORSDOF 5
