REMARK  Name = ZINC50441435
REMARK  5 active torsions:
REMARK  status: ('A' for Active; 'I' for Inactive)
REMARK    1  A    between atoms: C_4  and  O_9
REMARK    2  A    between atoms: C_5  and  C_7
REMARK    3  A    between atoms: C_7  and  N_8
REMARK    4  A    between atoms: O_9  and  C_10
REMARK    5  A    between atoms: C_13  and  N_17
REMARK                            x       y       z     vdW  Elec       q    Type
REMARK                         _______ _______ _______ _____ _____    ______ ____
ROOT
ATOM      1  O   UNL     1       3.586  -0.632  -0.037  0.00  0.00    -0.454 OA
ENDROOT
BRANCH   1   2
ATOM      2  C   UNL     1       4.727   0.105  -0.045  0.00  0.00    +0.156 A 
ATOM      3  C   UNL     1       5.296   0.494  -1.250  0.00  0.00    +0.063 A 
ATOM      4  C   UNL     1       6.457   1.244  -1.255  0.00  0.00    +0.051 A 
ATOM      5  C   UNL     1       7.053   1.606  -0.061  0.00  0.00    +0.129 A 
ATOM      6  C   UNL     1       6.488   1.221   1.141  0.00  0.00    +0.051 A 
ATOM      7  C   UNL     1       5.324   0.476   1.152  0.00  0.00    +0.063 A 
ATOM      8 BR   UNL     1       4.549  -0.045   2.797  0.00  0.00    -0.046 Br
ATOM      9 BR   UNL     1       4.484  -0.003  -2.884  0.00  0.00    -0.046 Br
BRANCH   5  10
ATOM     10  N   UNL     1       8.296   2.409  -0.069  0.00  0.00    +0.056 N 
ATOM     11  O   UNL     1       8.791   2.746  -1.120  0.00  0.00    -0.126 OA
ATOM     12  O   UNL     1       8.818   2.727   0.974  0.00  0.00    -0.126 OA
ENDBRANCH   5  10
ENDBRANCH   1   2
BRANCH   1  16
ATOM     13  C   UNL     1      -0.017   1.378   0.010  0.00  0.00    +0.000 A 
ATOM     14  C   UNL     1       1.170   2.088   0.002  0.00  0.00    +0.004 A 
ATOM     15  C   UNL     1       2.377   1.418  -0.013  0.00  0.00    +0.046 A 
ATOM     16  C   UNL     1       2.399   0.030  -0.021  0.00  0.00    +0.130 A 
ATOM     17  C   UNL     1       1.207  -0.680  -0.013  0.00  0.00    -0.023 A 
ATOM     18  C   UNL     1       0.002  -0.004   0.002  0.00  0.00    +0.005 A 
BRANCH  17  19
ATOM     19  C   UNL     1       1.227  -2.187  -0.022  0.00  0.00    -0.047 C 
BRANCH  19  20
ATOM     20  N   UNL     1       1.487  -2.681   1.337  0.00  0.00    +0.381 N 
ATOM     21  H   UNL     1       2.380  -2.335   1.655  0.00  0.00    -0.090 HD
ATOM     22  H   UNL     1       0.761  -2.358   1.957  0.00  0.00    -0.090 HD
ATOM     23  H   UNL     1       1.501  -3.690   1.331  0.00  0.00    -0.090 HD
ENDBRANCH  19  20
ENDBRANCH  17  19
ENDBRANCH   1  16
TORSDOF 5
