REMARK  Name = ZINC36020642
REMARK  5 active torsions:
REMARK  status: ('A' for Active; 'I' for Inactive)
REMARK    1  A    between atoms: C_5  and  C_7
REMARK    2  A    between atoms: N_9  and  N_10
REMARK    3  A    between atoms: C_14  and  C_15
REMARK    4  A    between atoms: C_18  and  O_24
REMARK    5  A    between atoms: C_19  and  N_21
REMARK                            x       y       z     vdW  Elec       q    Type
REMARK                         _______ _______ _______ _____ _____    ______ ____
ROOT
ATOM      1  N   UNL     1      -0.931  -4.388   0.144  0.00  0.00    -0.169 N 
ATOM      2  C   UNL     1      -0.876  -4.992  -1.030  0.00  0.00    +0.275 C 
ATOM      3  O   UNL     1      -1.117  -4.400  -2.066  0.00  0.00    -0.267 OA
ATOM      4  C   UNL     1      -0.508  -6.422  -1.022  0.00  0.00    +0.079 C 
ATOM      5  C   UNL     1      -0.374  -7.287  -2.060  0.00  0.00    +0.028 C 
ATOM      6  S   UNL     1      -0.286  -6.701   0.729  0.00  0.00    -0.059 S 
ATOM      7  C   UNL     1      -0.658  -5.047   1.289  0.00  0.00    +0.138 C 
ATOM      8  S   UNL     1      -0.668  -4.444   2.891  0.00  0.00    -0.026 S 
ENDROOT
BRANCH   5   9
ATOM      9  C   UNL     1      -0.158  -8.717  -1.801  0.00  0.00    -0.021 A 
ATOM     10  C   UNL     1      -0.423  -9.249  -0.533  0.00  0.00    +0.011 A 
ATOM     11  C   UNL     1      -0.220 -10.590  -0.296  0.00  0.00    +0.048 A 
ATOM     12  C   UNL     1       0.249 -11.415  -1.313  0.00  0.00    +0.147 A 
ATOM     13  C   UNL     1       0.514 -10.892  -2.573  0.00  0.00    +0.168 A 
ATOM     14  C   UNL     1       0.307  -9.553  -2.823  0.00  0.00    +0.044 A 
BRANCH  13  15
ATOM     15  N   UNL     1       1.013 -11.776  -3.650  0.00  0.00    +0.060 N 
ATOM     16  O   UNL     1       1.244 -11.322  -4.746  0.00  0.00    -0.126 OA
ATOM     17  O   UNL     1       1.190 -12.952  -3.433  0.00  0.00    -0.126 OA
ENDBRANCH  13  15
BRANCH  12  18
ATOM     18  O   UNL     1       0.448 -12.736  -1.073  0.00  0.00    -0.504 OA
ATOM     19  H   UNL     1      -0.326 -13.289  -1.249  0.00  0.00    +0.292 HD
ENDBRANCH  12  18
ENDBRANCH   5   9
BRANCH   1  22
ATOM     20  C   UNL     1      -0.324  -2.104   0.431  0.00  0.00    +0.262 C 
ATOM     21  O   UNL     1       0.832  -2.445   0.589  0.00  0.00    -0.269 OA
ATOM     22  N   UNL     1      -1.275  -3.031   0.201  0.00  0.00    -0.222 N 
ATOM     23  H   UNL     1      -2.197  -2.759   0.074  0.00  0.00    +0.174 HD
BRANCH  20  28
ATOM     24  C   UNL     1      -2.344   1.060   0.364  0.00  0.00    +0.001 A 
ATOM     25  C   UNL     1      -1.366   2.010   0.600  0.00  0.00    +0.001 A 
ATOM     26  C   UNL     1      -0.050   1.627   0.782  0.00  0.00    +0.021 A 
ATOM     27  C   UNL     1       0.297   0.291   0.728  0.00  0.00    +0.053 A 
ATOM     28  C   UNL     1      -0.686  -0.673   0.490  0.00  0.00    +0.056 A 
ATOM     29  C   UNL     1      -2.013  -0.277   0.308  0.00  0.00    +0.014 A 
ATOM     30 CL   UNL     1       1.949  -0.189   0.956  0.00  0.00    -0.083 Cl
ENDBRANCH  20  28
ENDBRANCH   1  22
TORSDOF 5
