REMARK  Name = ZINC40366436
REMARK  7 active torsions:
REMARK  status: ('A' for Active; 'I' for Inactive)
REMARK    1  A    between atoms: C_1  and  C_2
REMARK    2  A    between atoms: N_5  and  S_8
REMARK    3  A    between atoms: S_8  and  N_11
REMARK    4  A    between atoms: N_11  and  C_12
REMARK    5  A    between atoms: C_12  and  C_19
REMARK    6  A    between atoms: N_15  and  C_18
REMARK    7  A    between atoms: C_19  and  N_21
REMARK                            x       y       z     vdW  Elec       q    Type
REMARK                         _______ _______ _______ _____ _____    ______ ____
ROOT
ATOM      1  C   UNL     1       4.178  -1.896   1.351  0.00  0.00    +0.082 C 
ATOM      2  C   UNL     1       4.109  -3.143   2.236  0.00  0.00    +0.012 C 
ATOM      3  C   UNL     1       5.374  -3.979   2.030  0.00  0.00    -0.077 C 
ATOM      4  N   UNL     1       6.554  -3.185   2.392  0.00  0.00    +0.378 N 
ATOM      5  C   UNL     1       6.667  -2.025   1.500  0.00  0.00    -0.077 C 
ATOM      6  C   UNL     1       5.451  -1.114   1.686  0.00  0.00    +0.012 C 
ATOM      7  C   UNL     1       7.759  -4.016   2.267  0.00  0.00    -0.096 C 
ATOM      8  H   UNL     1       6.465  -2.867   3.346  0.00  0.00    -0.082 HD
ENDROOT
BRANCH   1   9
ATOM      9  N   UNL     1       4.205  -2.296  -0.058  0.00  0.00    -0.168 NA
ATOM     10  H   UNL     1       5.016  -2.185  -0.579  0.00  0.00    +0.150 HD
BRANCH   9  11
ATOM     11  S   UNL     1       2.852  -2.939  -0.763  0.00  0.00    +0.098 S 
ATOM     12  O   UNL     1       3.052  -2.868  -2.168  0.00  0.00    -0.141 OA
ATOM     13  O   UNL     1       1.735  -2.339  -0.121  0.00  0.00    -0.141 OA
BRANCH  11  18
ATOM     14  C   UNL     1       4.336  -7.753   1.978  0.00  0.00    +0.007 C 
ATOM     15  C   UNL     1       3.529  -6.935   0.968  0.00  0.00    -0.012 C 
ATOM     16  C   UNL     1       2.759  -5.835   1.702  0.00  0.00    +0.020 C 
ATOM     17  C   UNL     1       1.926  -5.039   0.692  0.00  0.00    +0.111 C 
ATOM     18  N   UNL     1       2.813  -4.548  -0.371  0.00  0.00    -0.167 NA
ATOM     19  C   UNL     1       3.666  -5.512  -1.081  0.00  0.00    +0.111 C 
ATOM     20  C   UNL     1       4.480  -6.302  -0.051  0.00  0.00    +0.020 C 
ENDBRANCH  11  18
ENDBRANCH   9  11
ENDBRANCH   1   9
BRANCH   1  21
ATOM     21  C   UNL     1       2.972  -1.028   1.605  0.00  0.00    +0.068 C 
ATOM     22  S   UNL     1       3.151   0.547   1.812  0.00  0.00    -0.039 S 
BRANCH  21  23
ATOM     23  N   UNL     1       1.744  -1.580   1.657  0.00  0.00    -0.354 N 
ATOM     24  H   UNL     1       1.637  -2.537   1.540  0.00  0.00    +0.143 HD
ATOM     25  H   UNL     1       0.967  -1.020   1.811  0.00  0.00    +0.143 HD
ENDBRANCH  21  23
ENDBRANCH   1  21
TORSDOF 5
