REMARK  Name = ZINC64788679
REMARK  5 active torsions:
REMARK  status: ('A' for Active; 'I' for Inactive)
REMARK    1  A    between atoms: C_1  and  C_2
REMARK    2  A    between atoms: C_5  and  C_7
REMARK    3  A    between atoms: N_18  and  C_21
REMARK    4  A    between atoms: C_23  and  C_28
REMARK    5  A    between atoms: C_25  and  C_27
REMARK                            x       y       z     vdW  Elec       q    Type
REMARK                         _______ _______ _______ _____ _____    ______ ____
ROOT
ATOM      1  C   UNL     1      -0.150  -6.056   0.186  0.00  0.00    +0.115 C 
ATOM      2  C   UNL     1       0.778  -5.686   1.369  0.00  0.00    +0.078 C 
ATOM      3  C   UNL     1       2.041  -6.462   1.041  0.00  0.00    +0.038 C 
ATOM      4  N   UNL     1       1.963  -6.857  -0.243  0.00  0.00    -0.283 N 
ATOM      5  N   UNL     1       0.826  -6.429  -0.864  0.00  0.00    -0.235 NA
ATOM      6  C   UNL     1       3.087  -6.716   1.909  0.00  0.00    +0.118 C 
ATOM      7  C   UNL     1       3.065  -6.237   3.303  0.00  0.00    +0.258 C 
ATOM      8  N   UNL     1       4.120  -6.524   4.092  0.00  0.00    -0.235 N 
ATOM      9  C   UNL     1       5.168  -7.223   3.635  0.00  0.00    +0.320 C 
ATOM     10  O   UNL     1       6.087  -7.448   4.397  0.00  0.00    -0.251 OA
ATOM     11  N   UNL     1       5.255  -7.689   2.381  0.00  0.00    -0.190 N 
ATOM     12  C   UNL     1       4.271  -7.484   1.482  0.00  0.00    +0.265 C 
ATOM     13  O   UNL     1       4.359  -7.916   0.348  0.00  0.00    -0.269 OA
ATOM     14  O   UNL     1       2.120  -5.601   3.729  0.00  0.00    -0.270 OA
ATOM     15  H   UNL     1       0.452  -7.146  -1.467  0.00  0.00    +0.145 HD
ATOM     16  H   UNL     1       4.121  -6.216   5.012  0.00  0.00    +0.159 HD
ATOM     17  H   UNL     1       2.644  -7.391  -0.682  0.00  0.00    +0.166 HD
ENDROOT
BRANCH  11  18
ATOM     18  C   UNL     1       6.394  -8.411   1.997  0.00  0.00    +0.046 A 
ATOM     19  C   UNL     1       7.491  -7.748   1.464  0.00  0.00    +0.027 A 
ATOM     20  C   UNL     1       8.611  -8.462   1.087  0.00  0.00    -0.048 A 
ATOM     21  C   UNL     1       8.641  -9.836   1.239  0.00  0.00    +0.006 A 
ATOM     22  C   UNL     1       7.549 -10.499   1.768  0.00  0.00    -0.048 A 
ATOM     23  C   UNL     1       6.428  -9.790   2.153  0.00  0.00    +0.027 A 
ATOM     24  C   UNL     1       7.586 -11.997   1.932  0.00  0.00    +0.044 C 
ATOM     25  C   UNL     1       9.803  -7.743   0.508  0.00  0.00    +0.044 C 
ENDBRANCH  11  18
BRANCH   1  30
ATOM     26  C   UNL     1      -2.422  -1.290  -1.864  0.00  0.00    +0.051 C 
ATOM     27  C   UNL     1      -2.057  -2.601  -1.218  0.00  0.00    -0.013 A 
ATOM     28  C   UNL     1      -2.835  -3.441  -0.492  0.00  0.00    +0.011 A 
ATOM     29  C   UNL     1      -2.281  -4.604   0.008  0.00  0.00    +0.013 A 
ATOM     30  C   UNL     1      -0.976  -4.871  -0.243  0.00  0.00    +0.009 A 
ATOM     31  S   UNL     1      -0.490  -3.457  -1.219  0.00  0.00    -0.097 S 
ENDBRANCH   1  30
TORSDOF 2
