REMARK  Name = ZINC03977966
REMARK  9 active torsions:
REMARK  status: ('A' for Active; 'I' for Inactive)
REMARK    1  A    between atoms: C_1  and  C_2
REMARK    2  A    between atoms: C_2  and  O_4
REMARK    3  A    between atoms: O_4  and  C_5
REMARK    4  A    between atoms: C_5  and  C_6
REMARK    5  A    between atoms: C_6  and  C_8
REMARK    6  A    between atoms: C_8  and  O_33
REMARK    7  A    between atoms: C_13  and  C_32
REMARK    8  A    between atoms: C_15  and  O_31
REMARK    9  A    between atoms: C_29  and  C_30
REMARK                            x       y       z     vdW  Elec       q    Type
REMARK                         _______ _______ _______ _____ _____    ______ ____
ROOT
ATOM      1  C   UNL     1       0.041  -4.151  -2.697  0.00  0.00    +0.133 C 
ATOM      2  C   UNL     1      -1.403  -4.701  -2.776  0.00  0.00    +0.043 C 
ATOM      3  C   UNL     1      -1.395  -5.801  -3.853  0.00  0.00    +0.008 C 
ATOM      4  C   UNL     1       0.071  -5.909  -4.355  0.00  0.00    +0.002 C 
ATOM      5  C   UNL     1       0.634  -4.509  -4.072  0.00  0.00    +0.009 C 
ATOM      6  C   UNL     1       2.144  -4.467  -4.082  0.00  0.00    +0.041 C 
ATOM      7  C   UNL     1       2.714  -5.500  -3.114  0.00  0.00    +0.119 C 
ATOM      8  C   UNL     1       2.258  -6.901  -3.553  0.00  0.00    +0.031 C 
ATOM      9  C   UNL     1       0.738  -7.002  -3.510  0.00  0.00    -0.001 C 
ATOM     10  C   UNL     1       0.199  -8.343  -4.001  0.00  0.00    +0.008 C 
ATOM     11  C   UNL     1       1.148  -9.498  -3.716  0.00  0.00    +0.032 C 
ATOM     12  C   UNL     1       2.006  -9.157  -2.523  0.00  0.00    -0.060 C 
ATOM     13  C   UNL     1       1.979  -9.914  -1.430  0.00  0.00    +0.046 C 
ATOM     14  C   UNL     1       2.797  -9.583  -0.265  0.00  0.00    +0.156 C 
ATOM     15  O   UNL     1       2.777 -10.300   0.713  0.00  0.00    -0.293 OA
ATOM     16  C   UNL     1       3.667  -8.351  -0.281  0.00  0.00    +0.080 C 
ATOM     17  C   UNL     1       3.045  -7.316  -1.225  0.00  0.00    +0.019 C 
ATOM     18  C   UNL     1       2.901  -7.903  -2.586  0.00  0.00    -0.005 C 
ATOM     19  C   UNL     1       4.277  -8.311  -3.115  0.00  0.00    +0.016 C 
ATOM     20  C   UNL     1       0.104  -3.529  -5.121  0.00  0.00    +0.015 C 
ENDROOT
BRANCH   1  21
ATOM     21  C   UNL     1       0.030  -2.658  -2.494  0.00  0.00    +0.202 C 
ATOM     22  O   UNL     1      -0.927  -2.009  -2.840  0.00  0.00    -0.291 OA
BRANCH  21  23
ATOM     23  C   UNL     1       1.215  -1.975  -1.861  0.00  0.00    +0.309 C 
BRANCH  23  24
ATOM     24  O   UNL     1       0.967  -0.570  -1.779  0.00  0.00    -0.457 OA
BRANCH  24  26
ATOM     25  C   UNL     1       1.742   1.678  -1.115  0.00  0.00    +0.136 C 
ATOM     26  C   UNL     1       1.932   0.188  -1.235  0.00  0.00    +0.304 C 
ATOM     27  O   UNL     1       2.953  -0.324  -0.842  0.00  0.00    -0.251 OA
ENDBRANCH  24  26
ENDBRANCH  23  24
ENDBRANCH  21  23
ENDBRANCH   1  21
BRANCH   7  28
ATOM     28  O   UNL     1       4.141  -5.434  -3.129  0.00  0.00    -0.391 OA
ATOM     29  H   UNL     1       4.497  -4.573  -2.869  0.00  0.00    +0.210 HD
ENDBRANCH   7  28
BRANCH   1  30
ATOM     30  O   UNL     1       0.771  -4.795  -1.651  0.00  0.00    -0.380 OA
ATOM     31  H   UNL     1       0.418  -4.630  -0.765  0.00  0.00    +0.211 HD
ENDBRANCH   1  30
TORSDOF 6
