REMARK  Name = ZINC38704809
REMARK  9 active torsions:
REMARK  status: ('A' for Active; 'I' for Inactive)
REMARK    1  A    between atoms: C_1  and  C_2
REMARK    2  A    between atoms: C_2  and  C_3
REMARK    3  A    between atoms: C_3  and  C_4
REMARK    4  A    between atoms: C_4  and  N_5
REMARK    5  A    between atoms: C_6  and  C_25
REMARK    6  A    between atoms: C_9  and  C_16
REMARK    7  A    between atoms: C_17  and  C_24
REMARK    8  A    between atoms: C_19  and  C_23
REMARK    9  A    between atoms: C_21  and  O_22
REMARK                            x       y       z     vdW  Elec       q    Type
REMARK                         _______ _______ _______ _____ _____    ______ ____
ROOT
ATOM      1  N   UNL     1       1.223  -2.054  -2.650  0.00  0.00    -0.285 N 
ATOM      2  C   UNL     1       0.895  -2.386  -4.043  0.00  0.00    +0.141 C 
ATOM      3  C   UNL     1       2.151  -2.958  -4.642  0.00  0.00    +0.035 A 
ATOM      4  C   UNL     1       2.779  -3.501  -5.767  0.00  0.00    +0.102 A 
ATOM      5  N   UNL     1       4.023  -3.778  -5.429  0.00  0.00    -0.173 NA
ATOM      6  N   UNL     1       4.243  -3.463  -4.203  0.00  0.00    -0.272 N 
ATOM      7  H   UNL     1       5.088  -3.578  -3.741  0.00  0.00    +0.189 HD
ATOM      8  C   UNL     1       3.109  -2.942  -3.647  0.00  0.00    +0.126 A 
ATOM      9  C   UNL     1       2.511  -2.375  -2.432  0.00  0.00    +0.265 C 
ATOM     10  O   UNL     1       3.097  -2.220  -1.378  0.00  0.00    -0.268 OA
ENDROOT
BRANCH   4  11
ATOM     11  C   UNL     1       2.159  -3.726  -7.097  0.00  0.00    +0.047 A 
ATOM     12  C   UNL     1       2.784  -3.255  -8.249  0.00  0.00    -0.037 A 
ATOM     13  C   UNL     1       2.204  -3.467  -9.483  0.00  0.00    +0.007 A 
ATOM     14  C   UNL     1       1.002  -4.146  -9.581  0.00  0.00    -0.047 A 
ATOM     15  C   UNL     1       0.374  -4.618  -8.444  0.00  0.00    +0.049 A 
ATOM     16  C   UNL     1       0.949  -4.417  -7.199  0.00  0.00    +0.127 A 
ATOM     17  C   UNL     1       0.376  -4.372 -10.932  0.00  0.00    +0.044 C 
ATOM     18  C   UNL     1       4.093  -2.514  -8.147  0.00  0.00    +0.044 C 
BRANCH  16  19
ATOM     19  O   UNL     1       0.334  -4.885  -6.081  0.00  0.00    -0.506 OA
ATOM     20  H   UNL     1      -0.345  -4.293  -5.729  0.00  0.00    +0.292 HD
ENDBRANCH  16  19
ENDBRANCH   4  11
BRANCH   2  21
ATOM     21  C   UNL     1       0.481  -1.144  -4.789  0.00  0.00    -0.022 A 
ATOM     22  C   UNL     1       1.265  -0.007  -4.726  0.00  0.00    +0.007 A 
ATOM     23  C   UNL     1       0.886   1.132  -5.411  0.00  0.00    +0.015 A 
ATOM     24  C   UNL     1      -0.277   1.134  -6.159  0.00  0.00    +0.018 A 
ATOM     25  C   UNL     1      -1.061  -0.004  -6.222  0.00  0.00    +0.015 A 
ATOM     26  C   UNL     1      -0.679  -1.144  -5.541  0.00  0.00    +0.007 A 
ATOM     27 BR   UNL     1      -0.796   2.693  -7.096  0.00  0.00    -0.050 Br
ENDBRANCH   2  21
BRANCH   1  28
ATOM     28  C   UNL     1       0.307  -1.467  -1.669  0.00  0.00    +0.109 C 
BRANCH  28  29
ATOM     29  C   UNL     1       0.390   0.059  -1.744  0.00  0.00    +0.019 C 
BRANCH  29  31
ATOM     30  C   UNL     1      -0.485   2.199  -0.795  0.00  0.00    +0.004 C 
ATOM     31  C   UNL     1      -0.567   0.672  -0.720  0.00  0.00    -0.002 C 
ENDBRANCH  29  31
ENDBRANCH  28  29
ENDBRANCH   1  28
TORSDOF 6
