REMARK  Name = ZINC09641804
REMARK  6 active torsions:
REMARK  status: ('A' for Active; 'I' for Inactive)
REMARK    1  A    between atoms: C_10  and  N_29
REMARK    2  A    between atoms: C_12  and  N_16
REMARK    3  A    between atoms: C_22  and  C_24
REMARK    4  A    between atoms: N_29  and  C_30
REMARK    5  A    between atoms: C_30  and  C_31
REMARK    6  A    between atoms: C_31  and  O_32
REMARK                            x       y       z     vdW  Elec       q    Type
REMARK                         _______ _______ _______ _____ _____    ______ ____
ROOT
ATOM      1  C   UNL     1      -3.686   2.949   0.189  0.00  0.00    +0.001 A 
ATOM      2  C   UNL     1      -3.604   1.563   0.228  0.00  0.00    +0.001 A 
ATOM      3  C   UNL     1      -2.382   0.933   0.229  0.00  0.00    +0.012 A 
ATOM      4  C   UNL     1      -1.201   1.684   0.183  0.00  0.00    +0.033 A 
ATOM      5  C   UNL     1      -1.289   3.097   0.151  0.00  0.00    +0.031 A 
ATOM      6  C   UNL     1      -2.543   3.714   0.151  0.00  0.00    +0.012 A 
ATOM      7  C   UNL     1      -0.064   3.895   0.110  0.00  0.00    +0.176 A 
ATOM      8  C   UNL     1       1.108   3.181   0.113  0.00  0.00    +0.063 A 
ATOM      9  C   UNL     1       1.278   1.754   0.151  0.00  0.00    +0.056 A 
ATOM     10  C   UNL     1       2.597   1.273   0.144  0.00  0.00    +0.041 A 
ATOM     11  C   UNL     1       3.668   2.175   0.101  0.00  0.00    +0.049 A 
ATOM     12  C   UNL     1       3.542   3.549   0.064  0.00  0.00    +0.061 A 
ATOM     13  C   UNL     1       2.200   4.146   0.068  0.00  0.00    +0.136 A 
ATOM     14  N   UNL     1       1.573   5.288   0.046  0.00  0.00    -0.076 NA
ATOM     15  O   UNL     1       0.349   5.167   0.069  0.00  0.00    -0.353 OA
ATOM     16  C   UNL     1       0.098   0.976   0.192  0.00  0.00    +0.196 C 
ATOM     17  O   UNL     1       0.150  -0.243   0.228  0.00  0.00    -0.287 OA
ENDROOT
BRANCH  12  18
ATOM     18  N   UNL     1       4.663   4.352   0.023  0.00  0.00    -0.325 N 
ATOM     19  C   UNL     1       5.417   4.140  -1.220  0.00  0.00    +0.124 C 
ATOM     20  C   UNL     1       6.546   5.171  -1.310  0.00  0.00    +0.127 C 
ATOM     21  N   UNL     1       7.345   5.100  -0.077  0.00  0.00    -0.292 N 
ATOM     22  C   UNL     1       6.642   5.168   1.212  0.00  0.00    +0.127 C 
ATOM     23  C   UNL     1       5.509   4.136   1.204  0.00  0.00    +0.124 C 
ATOM     24  C   UNL     1       8.686   4.975  -0.128  0.00  0.00    +0.282 C 
ATOM     25  O   UNL     1       9.338   4.988   0.899  0.00  0.00    -0.267 OA
BRANCH  24  26
ATOM     26  C   UNL     1       9.360   4.825  -1.422  0.00  0.00    +0.189 A 
ATOM     27  C   UNL     1      10.687   4.561  -1.610  0.00  0.00    +0.054 A 
ATOM     28  C   UNL     1      10.894   4.501  -2.997  0.00  0.00    +0.042 A 
ATOM     29  C   UNL     1       9.700   4.729  -3.587  0.00  0.00    +0.196 A 
ATOM     30  O   UNL     1       8.777   4.918  -2.635  0.00  0.00    -0.458 OA
ENDBRANCH  24  26
ENDBRANCH  12  18
BRANCH  10  31
ATOM     31  N   UNL     1       2.837  -0.084   0.180  0.00  0.00    -0.341 N 
ATOM     32  H   UNL     1       2.095  -0.708   0.210  0.00  0.00    +0.146 HD
BRANCH  31  33
ATOM     33  C   UNL     1       4.214  -0.584   0.172  0.00  0.00    +0.129 C 
BRANCH  33  34
ATOM     34  C   UNL     1       4.201  -2.114   0.217  0.00  0.00    +0.174 C 
BRANCH  34  35
ATOM     35  O   UNL     1       3.609  -2.620  -0.980  0.00  0.00    -0.393 OA
ATOM     36  H   UNL     1       3.567  -3.586  -1.021  0.00  0.00    +0.209 HD
ENDBRANCH  34  35
ENDBRANCH  33  34
ENDBRANCH  31  33
ENDBRANCH  10  31
TORSDOF 6
