REMARK  Name = ZINC20623780
REMARK  4 active torsions:
REMARK  status: ('A' for Active; 'I' for Inactive)
REMARK    1  A    between atoms: C_1  and  C_2
REMARK    2  A    between atoms: C_2  and  C_4
REMARK    3  A    between atoms: C_2  and  N_21
REMARK    4  A    between atoms: C_22  and  C_24
REMARK                            x       y       z     vdW  Elec       q    Type
REMARK                         _______ _______ _______ _____ _____    ______ ____
ROOT
ATOM      1  C   UNL     1       0.836  -0.462   1.171  0.00  0.00    +0.236 C 
ATOM      2  O   UNL     1       0.368  -1.229   1.986  0.00  0.00    -0.274 OA
ATOM      3  N   UNL     1       2.100  -0.017   1.312  0.00  0.00    -0.300 N 
ATOM      4  C   UNL     1       2.642   1.000   0.401  0.00  0.00    +0.110 C 
ATOM      5  C   UNL     1       3.196   2.162   1.233  0.00  0.00    +0.047 C 
ATOM      6  C   UNL     1       4.204   1.623   2.248  0.00  0.00    +0.064 C 
ATOM      7  C   UNL     1       3.513   0.637   3.191  0.00  0.00    +0.047 C 
ATOM      8  C   UNL     1       2.962  -0.537   2.383  0.00  0.00    +0.110 C 
ATOM      9  C   UNL     1       4.785   2.763   3.042  0.00  0.00    +0.057 A 
ATOM     10  C   UNL     1       6.102   2.887   3.322  0.00  0.00    +0.039 A 
ATOM     11  N   UNL     1       6.270   4.002   4.033  0.00  0.00    -0.349 N 
ATOM     12  C   UNL     1       5.108   4.577   4.208  0.00  0.00    +0.171 A 
ATOM     13  N   UNL     1       4.156   3.829   3.602  0.00  0.00    -0.348 N 
ATOM     14  H   UNL     1       3.205   4.019   3.573  0.00  0.00    +0.166 HD
ATOM     15  C   UNL     1       7.137   1.885   2.872  0.00  0.00    +0.070 C 
ATOM     16  C   UNL     1       6.402   0.604   2.453  0.00  0.00    +0.088 C 
ATOM     17  N   UNL     1       5.300   0.942   1.540  0.00  0.00    -0.305 NA
ATOM     18  H   UNL     1       4.964   0.121   1.059  0.00  0.00    +0.123 HD
ATOM     19  H   UNL     1       7.118   4.334   4.367  0.00  0.00    +0.166 HD
ENDROOT
BRANCH   1  21
ATOM     20  C   UNL     1      -0.692   1.313   0.354  0.00  0.00    +0.038 C 
ATOM     21  C   UNL     1       0.002  -0.004   0.002  0.00  0.00    +0.156 C 
BRANCH  21  22
ATOM     22  N   UNL     1      -1.007  -1.021  -0.305  0.00  0.00    -0.300 N 
ATOM     23  C   UNL     1      -1.519  -1.107  -1.549  0.00  0.00    +0.245 C 
ATOM     24  O   UNL     1      -1.144  -0.342  -2.416  0.00  0.00    -0.270 OA
ATOM     25  H   UNL     1      -1.307  -1.631   0.386  0.00  0.00    +0.150 HD
BRANCH  23  26
ATOM     26  C   UNL     1      -2.538  -2.133  -1.859  0.00  0.00    +0.038 A 
ATOM     27  C   UNL     1      -2.976  -3.009  -0.865  0.00  0.00    +0.013 A 
ATOM     28  C   UNL     1      -3.926  -3.964  -1.161  0.00  0.00    +0.002 A 
ATOM     29  C   UNL     1      -4.446  -4.055  -2.440  0.00  0.00    +0.015 A 
ATOM     30  C   UNL     1      -4.016  -3.189  -3.431  0.00  0.00    +0.019 A 
ATOM     31  C   UNL     1      -3.070  -2.225  -3.146  0.00  0.00    +0.028 A 
ATOM     32 BR   UNL     1      -4.732  -3.323  -5.176  0.00  0.00    -0.050 Br
ENDBRANCH  23  26
ENDBRANCH  21  22
ENDBRANCH   1  21
TORSDOF 3
