REMARK  Name = ZINC63830639
REMARK  4 active torsions:
REMARK  status: ('A' for Active; 'I' for Inactive)
REMARK    1  A    between atoms: C_7  and  C_10
REMARK    2  A    between atoms: C_10  and  C_11
REMARK    3  A    between atoms: N_16  and  S_19
REMARK    4  A    between atoms: S_19  and  C_22
REMARK                            x       y       z     vdW  Elec       q    Type
REMARK                         _______ _______ _______ _____ _____    ______ ____
ROOT
ATOM      1  C   UNL     1       0.460  -3.646  -1.440  0.00  0.00    +0.220 C 
ATOM      2  O   UNL     1       1.006  -3.075  -2.360  0.00  0.00    -0.275 OA
ATOM      3  N   UNL     1      -0.353  -4.693  -1.684  0.00  0.00    -0.299 N 
ATOM      4  C   UNL     1      -1.026  -5.391  -0.580  0.00  0.00    +0.125 C 
ATOM      5  C   UNL     1      -2.536  -5.395  -0.850  0.00  0.00    +0.128 C 
ATOM      6  N   UNL     1      -2.765  -5.859  -2.226  0.00  0.00    -0.174 NA
ATOM      7  C   UNL     1      -2.092  -5.161  -3.330  0.00  0.00    +0.128 C 
ATOM      8  C   UNL     1      -0.587  -5.154  -3.060  0.00  0.00    +0.125 C 
ENDROOT
BRANCH   6   9
ATOM      9  S   UNL     1      -3.764  -7.145  -2.526  0.00  0.00    +0.062 S 
ATOM     10  O   UNL     1      -3.363  -7.688  -3.776  0.00  0.00    -0.153 OA
ATOM     11  O   UNL     1      -3.799  -7.919  -1.334  0.00  0.00    -0.153 OA
BRANCH   9  12
ATOM     12  C   UNL     1      -5.388  -6.501  -2.755  0.00  0.00    +0.125 A 
ATOM     13  C   UNL     1      -6.013  -6.621  -3.982  0.00  0.00    +0.030 A 
ATOM     14  C   UNL     1      -7.287  -6.117  -4.163  0.00  0.00    +0.003 A 
ATOM     15  C   UNL     1      -7.938  -5.490  -3.117  0.00  0.00    +0.021 A 
ATOM     16  C   UNL     1      -7.314  -5.368  -1.888  0.00  0.00    +0.061 A 
ATOM     17  C   UNL     1      -6.041  -5.880  -1.705  0.00  0.00    +0.086 A 
ATOM     18 CL   UNL     1      -5.260  -5.735  -0.162  0.00  0.00    -0.080 Cl
ATOM     19 CL   UNL     1      -8.132  -4.582  -0.574  0.00  0.00    -0.082 Cl
ENDBRANCH   9  12
ENDBRANCH   6   9
BRANCH   1  20
ATOM     20  C   UNL     1       0.691  -3.186  -0.024  0.00  0.00    +0.129 C 
BRANCH  20  27
ATOM     21  C   UNL     1      -0.016   1.348   0.009  0.00  0.00    +0.001 A 
ATOM     22  C   UNL     1       1.166   2.101   0.002  0.00  0.00    +0.002 A 
ATOM     23  C   UNL     1       2.391   1.535  -0.013  0.00  0.00    +0.026 A 
ATOM     24  C   UNL     1       2.529   0.120  -0.022  0.00  0.00    +0.043 A 
ATOM     25  N   UNL     1       3.587  -0.654  -0.037  0.00  0.00    -0.380 N 
ATOM     26  C   UNL     1       3.143  -2.053  -0.041  0.00  0.00    +0.145 C 
ATOM     27  C   UNL     1       1.631  -2.008  -0.025  0.00  0.00    -0.033 C 
ATOM     28  C   UNL     1       1.295  -0.698  -0.014  0.00  0.00    -0.001 A 
ATOM     29  C   UNL     1       0.002  -0.004   0.002  0.00  0.00    +0.010 A 
ATOM     30  H   UNL     1       4.509  -0.353  -0.045  0.00  0.00    +0.160 HD
ENDBRANCH  20  27
ENDBRANCH   1  20
TORSDOF 4
