REMARK  Name = ZINC09128911
REMARK  12 active torsions:
REMARK  status: ('A' for Active; 'I' for Inactive)
REMARK    1  A    between atoms: C_1  and  N_2
REMARK    2  A    between atoms: N_2  and  C_3
REMARK    3  A    between atoms: N_2  and  C_4
REMARK    4  A    between atoms: C_7  and  C_10
REMARK    5  A    between atoms: C_10  and  C_12
REMARK    6  A    between atoms: C_10  and  C_28
REMARK    7  A    between atoms: C_12  and  N_13
REMARK    8  A    between atoms: C_14  and  C_16
REMARK    9  A    between atoms: C_20  and  S_22
REMARK   10  A    between atoms: S_22  and  N_25
REMARK   11  A    between atoms: N_25  and  C_26
REMARK   12  A    between atoms: N_25  and  C_27
REMARK                            x       y       z     vdW  Elec       q    Type
REMARK                         _______ _______ _______ _____ _____    ______ ____
ROOT
ATOM      1  C   UNL     1      -3.457  -2.587   0.004  0.00  0.00    +0.068 C 
ENDROOT
BRANCH   1   2
ATOM      2  C   UNL     1      -2.777  -2.957  -1.289  0.00  0.00    -0.013 A 
ATOM      3  C   UNL     1      -3.274  -2.799  -2.526  0.00  0.00    +0.088 A 
ATOM      4  N   UNL     1      -2.373  -3.249  -3.452  0.00  0.00    -0.360 N 
ATOM      5  H   UNL     1      -2.507  -3.238  -4.412  0.00  0.00    +0.165 HD
ATOM      6  C   UNL     1      -1.245  -3.720  -2.817  0.00  0.00    +0.047 A 
ATOM      7  C   UNL     1      -1.447  -3.552  -1.434  0.00  0.00    +0.003 A 
ATOM      8  C   UNL     1      -0.454  -3.942  -0.533  0.00  0.00    +0.010 A 
ATOM      9  C   UNL     1       0.712  -4.481  -1.000  0.00  0.00    +0.001 A 
ATOM     10  C   UNL     1       0.917  -4.646  -2.363  0.00  0.00    +0.002 A 
ATOM     11  C   UNL     1      -0.053  -4.275  -3.269  0.00  0.00    +0.026 A 
ENDBRANCH   1   2
BRANCH   1  15
ATOM     12  C   UNL     1      -7.121  -4.759   0.361  0.00  0.00    +0.029 A 
ATOM     13  C   UNL     1      -6.125  -4.911   1.318  0.00  0.00    +0.023 A 
ATOM     14  C   UNL     1      -4.943  -4.208   1.199  0.00  0.00    +0.006 A 
ATOM     15  C   UNL     1      -4.749  -3.353   0.130  0.00  0.00    -0.038 A 
ATOM     16  C   UNL     1      -5.740  -3.195  -0.822  0.00  0.00    +0.006 A 
ATOM     17  C   UNL     1      -6.923  -3.899  -0.712  0.00  0.00    +0.023 A 
BRANCH  12  19
ATOM     18  C   UNL     1      -8.525  -6.374   1.610  0.00  0.00    +0.129 C 
ATOM     19  N   UNL     1      -8.318  -5.468   0.477  0.00  0.00    -0.336 N 
ATOM     20  C   UNL     1      -9.367  -5.307  -0.533  0.00  0.00    +0.129 C 
ENDBRANCH  12  19
ENDBRANCH   1  15
BRANCH   1  21
ATOM     21  C   UNL     1      -3.751  -1.085   0.014  0.00  0.00    +0.117 C 
BRANCH  21  22
ATOM     22  N   UNL     1      -2.490  -0.341   0.012  0.00  0.00    -0.310 N 
ATOM     23  C   UNL     1      -2.503   1.007   0.019  0.00  0.00    +0.244 C 
ATOM     24  O   UNL     1      -3.562   1.605   0.028  0.00  0.00    -0.270 OA
ATOM     25  H   UNL     1      -1.645  -0.817   0.005  0.00  0.00    +0.149 HD
BRANCH  23  26
ATOM     26  C   UNL     1      -1.230   1.759   0.017  0.00  0.00    +0.039 A 
ATOM     27  C   UNL     1      -0.013   1.076   0.008  0.00  0.00    +0.013 A 
ATOM     28  C   UNL     1       1.172   1.783   0.000  0.00  0.00    +0.003 A 
ATOM     29  C   UNL     1       1.155   3.167   0.008  0.00  0.00    +0.028 A 
ATOM     30  C   UNL     1      -0.048   3.850   0.023  0.00  0.00    +0.106 A 
ATOM     31  C   UNL     1      -1.240   3.154   0.031  0.00  0.00    +0.041 A 
BRANCH  30  32
ATOM     32  S   UNL     1      -0.059   5.612   0.033  0.00  0.00    +0.060 S 
ATOM     33  O   UNL     1      -1.301   6.008   0.598  0.00  0.00    -0.153 OA
ATOM     34  O   UNL     1       1.189   6.022   0.574  0.00  0.00    -0.153 OA
BRANCH  32  35
ATOM     35  N   UNL     1      -0.077   6.110  -1.546  0.00  0.00    -0.183 NA
ATOM     36  C   UNL     1      -1.353   6.323  -2.233  0.00  0.00    +0.131 C 
ATOM     37  C   UNL     1       1.184   6.338  -2.257  0.00  0.00    +0.131 C 
ENDBRANCH  32  35
ENDBRANCH  30  32
ENDBRANCH  23  26
ENDBRANCH  21  22
ENDBRANCH   1  21
TORSDOF 8
