REMARK  Name = ZINC35415591
REMARK  10 active torsions:
REMARK  status: ('A' for Active; 'I' for Inactive)
REMARK    1  A    between atoms: C_1  and  C_2
REMARK    2  A    between atoms: C_2  and  O_3
REMARK    3  A    between atoms: O_3  and  C_4
REMARK    4  A    between atoms: C_6  and  C_14
REMARK    5  A    between atoms: C_8  and  N_11
REMARK    6  A    between atoms: C_9  and  O_10
REMARK    7  A    between atoms: C_23  and  C_27
REMARK    8  A    between atoms: C_27  and  C_28
REMARK    9  A    between atoms: C_27  and  C_29
REMARK   10  A    between atoms: C_27  and  C_30
REMARK                            x       y       z     vdW  Elec       q    Type
REMARK                         _______ _______ _______ _____ _____    ______ ____
ROOT
ATOM      1  C   UNL     1      -0.217  -4.963  -0.535  0.00  0.00    +0.190 C 
ATOM      2  N   UNL     1       0.567  -6.210  -0.574  0.00  0.00    -0.316 N 
ATOM      3  C   UNL     1       1.725  -6.187  -1.312  0.00  0.00    +0.080 A 
ATOM      4  C   UNL     1       1.924  -5.289  -2.370  0.00  0.00    +0.068 A 
ATOM      5  C   UNL     1       3.210  -5.384  -3.042  0.00  0.00    -0.023 A 
ATOM      6  C   UNL     1       4.030  -6.339  -2.551  0.00  0.00    -0.004 A 
ATOM      7  S   UNL     1       3.116  -7.088  -1.230  0.00  0.00    -0.078 S 
ATOM      8  C   UNL     1       5.407  -6.676  -3.031  0.00  0.00    +0.046 C 
ATOM      9  C   UNL     1       5.612  -6.030  -4.409  0.00  0.00    -0.000 C 
ATOM     10  C   UNL     1       5.159  -4.568  -4.341  0.00  0.00    +0.009 C 
ATOM     11  C   UNL     1       3.637  -4.501  -4.206  0.00  0.00    +0.037 C 
ATOM     12  C   UNL     1       0.823  -4.354  -2.696  0.00  0.00    +0.248 C 
ATOM     13  O   UNL     1       0.848  -3.672  -3.705  0.00  0.00    -0.270 OA
ATOM     14  N   UNL     1      -0.208  -4.290  -1.830  0.00  0.00    -0.289 N 
ATOM     15  H   UNL     1       0.279  -7.008  -0.103  0.00  0.00    +0.149 HD
ATOM     16  H   UNL     1      -0.987  -3.769  -2.082  0.00  0.00    +0.151 HD
ENDROOT
BRANCH   1  19
ATOM     17  C   UNL     1       0.802  -1.825   1.306  0.00  0.00    +0.164 A 
ATOM     18  C   UNL     1       0.261  -2.673   0.353  0.00  0.00    +0.056 A 
ATOM     19  C   UNL     1       0.372  -4.043   0.502  0.00  0.00    -0.004 A 
ATOM     20  C   UNL     1       1.024  -4.570   1.602  0.00  0.00    +0.043 A 
ATOM     21  C   UNL     1       1.566  -3.730   2.557  0.00  0.00    +0.171 A 
ATOM     22  C   UNL     1       1.462  -2.356   2.410  0.00  0.00    +0.189 A 
BRANCH  21  23
ATOM     23  N   UNL     1       2.263  -4.298   3.733  0.00  0.00    +0.060 N 
ATOM     24  O   UNL     1       2.357  -5.497   3.859  0.00  0.00    -0.126 OA
ATOM     25  O   UNL     1       2.737  -3.563   4.567  0.00  0.00    -0.126 OA
ENDBRANCH  21  23
BRANCH  22  26
ATOM     26  O   UNL     1       2.000  -1.528   3.345  0.00  0.00    -0.502 OA
ATOM     27  H   UNL     1       1.395  -1.301   4.064  0.00  0.00    +0.292 HD
ENDBRANCH  22  26
BRANCH  17  28
ATOM     28  O   UNL     1       0.693  -0.477   1.160  0.00  0.00    -0.488 OA
BRANCH  28  30
ATOM     29  C   UNL     1      -0.019   1.526   0.010  0.00  0.00    +0.048 C 
ATOM     30  C   UNL     1       0.002  -0.004   0.002  0.00  0.00    +0.226 C 
ENDBRANCH  28  30
ENDBRANCH  17  28
ENDBRANCH   1  19
BRANCH   9  31
ATOM     31  C   UNL     1       7.092  -6.093  -4.790  0.00  0.00    -0.035 C 
ATOM     32  C   UNL     1       7.543  -7.555  -4.842  0.00  0.00    +0.011 C 
ATOM     33  C   UNL     1       7.293  -5.449  -6.163  0.00  0.00    +0.011 C 
ATOM     34  C   UNL     1       7.921  -5.341  -3.747  0.00  0.00    +0.011 C 
ENDBRANCH   9  31
TORSDOF 6
