REMARK  Name = ZINC39152783
REMARK  8 active torsions:
REMARK  status: ('A' for Active; 'I' for Inactive)
REMARK    1  A    between atoms: C_1  and  C_2
REMARK    2  A    between atoms: C_7  and  S_12
REMARK    3  A    between atoms: S_12  and  C_13
REMARK    4  A    between atoms: C_13  and  C_14
REMARK    5  A    between atoms: N_16  and  C_17
REMARK    6  A    between atoms: C_20  and  C_26
REMARK    7  A    between atoms: C_21  and  C_23
REMARK    8  A    between atoms: C_23  and  C_25
REMARK                            x       y       z     vdW  Elec       q    Type
REMARK                         _______ _______ _______ _____ _____    ______ ____
ROOT
ATOM      1  C   UNL     1      -6.232   4.262  -7.244  0.00  0.00    +0.225 C 
ATOM      2  O   UNL     1      -7.342   4.270  -6.756  0.00  0.00    -0.275 OA
ATOM      3  N   UNL     1      -6.052   4.671  -8.516  0.00  0.00    -0.288 N 
ATOM      4  H   UNL     1      -5.164   4.664  -8.906  0.00  0.00    +0.151 HD
ENDROOT
BRANCH   3   5
ATOM      5  C   UNL     1      -7.198   5.125  -9.308  0.00  0.00    +0.224 C 
ATOM      6  N   UNL     1      -6.838   5.272 -10.734  0.00  0.00    -0.320 N 
ATOM      7  C   UNL     1      -6.936   6.508 -11.250  0.00  0.00    +0.020 C 
ATOM      8  C   UNL     1      -7.342   7.572 -10.511  0.00  0.00    +0.070 C 
ATOM      9  S   UNL     1      -7.645   6.862  -8.898  0.00  0.00    -0.079 S 
ATOM     10  C   UNL     1      -6.582   6.722 -12.699  0.00  0.00    +0.061 C 
ATOM     11  H   UNL     1      -6.546   4.517 -11.268  0.00  0.00    +0.148 HD
BRANCH   8  12
ATOM     12  C   UNL     1      -7.489   8.911 -10.916  0.00  0.00    +0.168 C 
ATOM     13  O   UNL     1      -7.334   9.213 -12.083  0.00  0.00    -0.292 OA
ATOM     14  C   UNL     1      -7.839   9.970  -9.904  0.00  0.00    +0.092 C 
ENDBRANCH   8  12
ENDBRANCH   3   5
BRANCH   1  15
ATOM     15  C   UNL     1      -5.053   3.795  -6.429  0.00  0.00    +0.173 C 
BRANCH  15  16
ATOM     16  S   UNL     1      -5.616   3.315  -4.773  0.00  0.00    -0.079 S 
BRANCH  16  23
ATOM     17  C   UNL     1       0.020   0.834  -0.146  0.00  0.00    +0.044 C 
ATOM     18  C   UNL     1      -0.711   1.364  -1.353  0.00  0.00    -0.048 A 
ATOM     19  C   UNL     1      -0.008   1.651  -2.513  0.00  0.00    +0.005 A 
ATOM     20  C   UNL     1      -0.661   2.136  -3.624  0.00  0.00    +0.030 A 
ATOM     21  C   UNL     1      -2.043   2.340  -3.583  0.00  0.00    +0.090 A 
ATOM     22  N   UNL     1      -2.947   2.795  -4.490  0.00  0.00    -0.222 NA
ATOM     23  C   UNL     1      -4.143   2.800  -3.954  0.00  0.00    +0.168 A 
ATOM     24  H   UNL     1      -4.821   2.253  -2.052  0.00  0.00    +0.168 HD
ATOM     25  N   UNL     1      -4.077   2.347  -2.667  0.00  0.00    -0.333 N 
ATOM     26  C   UNL     1      -2.750   2.047  -2.405  0.00  0.00    +0.067 A 
ATOM     27  C   UNL     1      -2.077   1.555  -1.298  0.00  0.00    +0.031 A 
ENDBRANCH  16  23
ENDBRANCH  15  16
ENDBRANCH   1  15
TORSDOF 5
