REMARK  Name = ZINC08982823
REMARK  8 active torsions:
REMARK  status: ('A' for Active; 'I' for Inactive)
REMARK    1  A    between atoms: C_1  and  C_2
REMARK    2  A    between atoms: C_2  and  C_27
REMARK    3  A    between atoms: N_5  and  N_9
REMARK    4  A    between atoms: C_10  and  C_12
REMARK    5  A    between atoms: C_12  and  N_61
REMARK    6  A    between atoms: C_16  and  C_18
REMARK    7  A    between atoms: C_27  and  C_28
REMARK    8  A    between atoms: C_28  and  C_29
REMARK                            x       y       z     vdW  Elec       q    Type
REMARK                         _______ _______ _______ _____ _____    ______ ____
ROOT
ATOM      1  N   UNL     1       4.456  -5.657   4.324  0.00  0.00    -0.225 N 
ATOM      2  C   UNL     1       4.712  -5.191   3.085  0.00  0.00    +0.213 C 
ATOM      3  O   UNL     1       5.853  -5.154   2.675  0.00  0.00    -0.276 OA
ATOM      4  H   UNL     1       3.544  -5.686   4.652  0.00  0.00    +0.173 HD
ENDROOT
BRANCH   1   9
ATOM      5  C   UNL     1       8.164  -8.113   5.649  0.00  0.00    +0.041 C 
ATOM      6  C   UNL     1       6.984  -7.392   6.305  0.00  0.00    +0.112 C 
ATOM      7  C   UNL     1       5.774  -7.395   5.393  0.00  0.00    +0.263 C 
ATOM      8  O   UNL     1       5.171  -8.362   4.979  0.00  0.00    -0.271 OA
ATOM      9  N   UNL     1       5.508  -6.099   5.137  0.00  0.00    -0.137 N 
ATOM     10  C   UNL     1       6.369  -5.286   5.760  0.00  0.00    +0.326 C 
ATOM     11  O   UNL     1       6.329  -4.074   5.684  0.00  0.00    -0.251 OA
ATOM     12  N   UNL     1       7.284  -5.960   6.479  0.00  0.00    -0.284 N 
ATOM     13  H   UNL     1       8.001  -5.579   7.009  0.00  0.00    +0.151 HD
BRANCH   6  14
ATOM     14  C   UNL     1       6.642  -8.038   7.649  0.00  0.00    +0.040 C 
BRANCH  14  15
ATOM     15  C   UNL     1       7.795  -7.815   8.631  0.00  0.00    +0.038 C 
BRANCH  15  16
ATOM     16  C   UNL     1       7.457  -8.451   9.955  0.00  0.00    -0.047 A 
ATOM     17  C   UNL     1       6.801  -7.718  10.926  0.00  0.00    +0.003 A 
ATOM     18  C   UNL     1       6.488  -8.302  12.139  0.00  0.00    +0.000 A 
ATOM     19  C   UNL     1       6.839  -9.617  12.384  0.00  0.00    +0.000 A 
ATOM     20  C   UNL     1       7.500 -10.348  11.415  0.00  0.00    +0.000 A 
ATOM     21  C   UNL     1       7.809  -9.765  10.200  0.00  0.00    +0.003 A 
ENDBRANCH  15  16
ENDBRANCH  14  15
ENDBRANCH   6  14
ENDBRANCH   1   9
BRANCH   2  22
ATOM     22  C   UNL     1       3.581  -4.716   2.210  0.00  0.00    +0.021 C 
BRANCH  22  27
ATOM     23  C   UNL     1       5.035  -5.262   0.348  0.00  0.00    -0.077 C 
ATOM     24  C   UNL     1       4.497  -5.628  -1.052  0.00  0.00    -0.020 C 
ATOM     25  C   UNL     1       3.626  -4.400  -1.423  0.00  0.00    -0.010 C 
ATOM     26  C   UNL     1       3.028  -4.013  -0.048  0.00  0.00    -0.011 C 
ATOM     27  N   UNL     1       4.127  -4.249   0.909  0.00  0.00    +0.391 N 
ATOM     28  H   UNL     1       4.643  -3.374   1.057  0.00  0.00    -0.080 HD
BRANCH  26  29
ATOM     29  C   UNL     1       2.638  -2.557  -0.037  0.00  0.00    +0.066 A 
ATOM     30  N   UNL     1       1.441  -2.041  -0.023  0.00  0.00    -0.246 NA
ATOM     31  C   UNL     1       1.226  -0.709  -0.014  0.00  0.00    +0.078 A 
ATOM     32  C   UNL     1       0.002  -0.004   0.002  0.00  0.00    +0.029 A 
ATOM     33  C   UNL     1      -0.016   1.356   0.009  0.00  0.00    +0.002 A 
ATOM     34  C   UNL     1       1.155   2.100   0.002  0.00  0.00    +0.001 A 
ATOM     35  C   UNL     1       2.374   1.448  -0.013  0.00  0.00    +0.017 A 
ATOM     36  C   UNL     1       2.403   0.075  -0.021  0.00  0.00    +0.039 A 
ATOM     37  S   UNL     1       3.674  -1.164  -0.039  0.00  0.00    -0.074 S 
ENDBRANCH  26  29
ENDBRANCH  22  27
ENDBRANCH   2  22
TORSDOF 7
