REMARK  Name = ZINC14806458
REMARK  16 active torsions:
REMARK  status: ('A' for Active; 'I' for Inactive)
REMARK    1  A    between atoms: C_1  and  C_2
REMARK    2  A    between atoms: C_2  and  C_41
REMARK    3  A    between atoms: C_8  and  C_40
REMARK    4  A    between atoms: C_10  and  O_39
REMARK    5  A    between atoms: C_12  and  C_28
REMARK    6  A    between atoms: C_14  and  C_27
REMARK    7  A    between atoms: C_18  and  C_26
REMARK    8  A    between atoms: C_22  and  O_25
REMARK    9  A    between atoms: C_28  and  C_29
REMARK   10  A    between atoms: C_28  and  C_30
REMARK   11  A    between atoms: C_28  and  O_38
REMARK   12  A    between atoms: C_30  and  C_32
REMARK   13  A    between atoms: C_33  and  C_34
REMARK   14  A    between atoms: C_34  and  C_35
REMARK   15  A    between atoms: C_34  and  C_36
REMARK   16  A    between atoms: C_34  and  O_37
REMARK                            x       y       z     vdW  Elec       q    Type
REMARK                         _______ _______ _______ _____ _____    ______ ____
ROOT
ATOM      1  C   UNL     1      -4.865   3.438  -0.430  0.00  0.00    +0.024 C 
ATOM      2  C   UNL     1      -4.839   1.915  -0.616  0.00  0.00    +0.052 C 
ATOM      3  C   UNL     1      -3.443   1.358  -0.492  0.00  0.00    -0.052 C 
ATOM      4  C   UNL     1      -2.544   1.994   0.219  0.00  0.00    -0.026 C 
ATOM      5  C   UNL     1      -1.215   1.299   0.414  0.00  0.00    +0.032 C 
ATOM      6  C   UNL     1      -0.651   0.888  -0.957  0.00  0.00    +0.013 C 
ATOM      7  C   UNL     1       0.724   0.302  -0.763  0.00  0.00    -0.019 C 
ATOM      8  C   UNL     1       1.913   1.260  -0.993  0.00  0.00    +0.039 C 
ATOM      9  C   UNL     1       3.121   0.281  -1.043  0.00  0.00    +0.122 C 
ATOM     10  C   UNL     1       2.555  -1.075  -1.535  0.00  0.00    +0.063 C 
ATOM     11  C   UNL     1       1.070  -0.812  -1.771  0.00  0.00    -0.011 C 
ATOM     12  C   UNL     1       0.079  -1.935  -1.572  0.00  0.00    +0.082 C 
ATOM     13  C   UNL     1      -1.244  -1.349  -2.069  0.00  0.00    +0.141 C 
ATOM     14  O   UNL     1      -1.954  -2.036  -2.787  0.00  0.00    -0.297 OA
ATOM     15  C   UNL     1      -1.658   0.044  -1.697  0.00  0.00    +0.040 C 
ATOM     16  C   UNL     1      -3.066   0.045  -1.102  0.00  0.00    +0.055 C 
ATOM     17  C   UNL     1      -4.045  -0.438  -2.124  0.00  0.00    +0.031 C 
ATOM     18  C   UNL     1      -5.057   0.289  -2.582  0.00  0.00    +0.157 C 
ATOM     19  C   UNL     1      -5.379   1.592  -1.993  0.00  0.00    +0.206 C 
ATOM     20  O   UNL     1      -6.064   2.394  -2.598  0.00  0.00    -0.288 OA
ATOM     21  C   UNL     1      -1.897   0.780  -3.041  0.00  0.00    +0.020 C 
ATOM     22  C   UNL     1       0.977  -0.305  -3.225  0.00  0.00    +0.012 C 
ATOM     23  C   UNL     1       0.847  -0.220   0.679  0.00  0.00    +0.012 C 
ATOM     24  C   UNL     1      -5.754   1.274   0.441  0.00  0.00    +0.024 C 
ENDROOT
BRANCH  18  25
ATOM     25  O   UNL     1      -5.848  -0.208  -3.570  0.00  0.00    -0.504 OA
ATOM     26  H   UNL     1      -6.689   0.389  -3.954  0.00  0.00    +0.292 HD
ENDBRANCH  18  25
BRANCH  10  27
ATOM     27  C   UNL     1       2.844  -2.218  -0.582  0.00  0.00    +0.130 C 
ATOM     28  C   UNL     1       4.350  -2.304  -0.329  0.00  0.00    +0.050 C 
BRANCH  27  29
ATOM     29  C   UNL     1       2.362  -3.511  -1.189  0.00  0.00    +0.187 C 
ATOM     30  O   UNL     1       2.369  -3.656  -2.393  0.00  0.00    -0.290 OA
BRANCH  29  31
ATOM     31  C   UNL     1       1.886  -4.591  -0.325  0.00  0.00    +0.048 C 
ATOM     32  C   UNL     1       1.459  -5.736  -0.862  0.00  0.00    +0.010 C 
BRANCH  32  33
ATOM     33  C   UNL     1       0.969  -6.849   0.028  0.00  0.00    +0.079 C 
ATOM     34  C   UNL     1      -0.487  -7.171  -0.314  0.00  0.00    +0.045 C 
ATOM     35  C   UNL     1       1.832  -8.094  -0.190  0.00  0.00    +0.045 C 
BRANCH  33  36
ATOM     36  O   UNL     1       1.058  -6.441   1.395  0.00  0.00    -0.385 OA
ATOM     37  H   UNL     1       0.743  -7.126   2.195  0.00  0.00    +0.211 HD
ENDBRANCH  33  36
ENDBRANCH  32  33
ENDBRANCH  29  31
ENDBRANCH  27  29
BRANCH  27  38
ATOM     38  O   UNL     1       2.165  -1.990   0.654  0.00  0.00    -0.381 OA
ATOM     39  H   UNL     1       2.256  -2.718   1.474  0.00  0.00    +0.211 HD
ENDBRANCH  27  38
ENDBRANCH  10  27
BRANCH   9  40
ATOM     40  O   UNL     1       3.735   0.148   0.234  0.00  0.00    -0.391 OA
ATOM     41  H   UNL     1       4.605  -0.512   0.360  0.00  0.00    +0.210 HD
ENDBRANCH   9  40
TORSDOF 8
