REMARK  Name = ZINC20882459
REMARK  6 active torsions:
REMARK  status: ('A' for Active; 'I' for Inactive)
REMARK    1  A    between atoms: C_1  and  C_2
REMARK    2  A    between atoms: C_2  and  C_3
REMARK    3  A    between atoms: C_6  and  C_9
REMARK    4  A    between atoms: C_14  and  C_20
REMARK    5  A    between atoms: C_23  and  O_27
REMARK    6  A    between atoms: O_27  and  C_28
REMARK                            x       y       z     vdW  Elec       q    Type
REMARK                         _______ _______ _______ _____ _____    ______ ____
ROOT
ATOM      1  C   UNL     1      -6.150  -0.421   1.308  0.00  0.00    +0.032 C 
ATOM      2  C   UNL     1      -6.649  -0.581  -0.129  0.00  0.00    +0.059 C 
ATOM      3  C   UNL     1      -8.083  -1.051  -0.118  0.00  0.00    +0.018 C 
ATOM      4  C   UNL     1      -8.916  -0.712   0.888  0.00  0.00    +0.020 C 
ATOM      5  C   UNL     1     -10.350  -1.188   0.872  0.00  0.00    +0.063 C 
ATOM      6  C   UNL     1     -10.853  -1.232  -0.572  0.00  0.00    +0.109 C 
ATOM      7  C   UNL     1      -9.838  -1.947  -1.427  0.00  0.00    +0.218 C 
ATOM      8  O   UNL     1     -10.205  -2.625  -2.362  0.00  0.00    -0.275 OA
ATOM      9  N   UNL     1      -8.527  -1.834  -1.153  0.00  0.00    -0.289 N 
ATOM     10  C   UNL     1      -8.481   0.082   1.962  0.00  0.00    +0.162 C 
ATOM     11  O   UNL     1      -9.263   0.377   2.844  0.00  0.00    -0.292 OA
ATOM     12  C   UNL     1      -7.060   0.574   2.038  0.00  0.00    +0.088 C 
ATOM     13  H   UNL     1      -7.805  -2.382  -1.777  0.00  0.00    +0.155 HD
ENDROOT
BRANCH   5  14
ATOM     14  C   UNL     1     -10.429  -2.567   1.474  0.00  0.00    -0.038 A 
ATOM     15  C   UNL     1     -11.207  -2.786   2.596  0.00  0.00    +0.008 A 
ATOM     16  C   UNL     1     -11.281  -4.049   3.151  0.00  0.00    +0.047 A 
ATOM     17  C   UNL     1     -10.575  -5.098   2.582  0.00  0.00    +0.134 A 
ATOM     18  C   UNL     1      -9.795  -4.876   1.456  0.00  0.00    +0.060 A 
ATOM     19  C   UNL     1      -9.728  -3.611   0.901  0.00  0.00    +0.023 A 
ATOM     20 BR   UNL     1      -8.831  -6.303   0.676  0.00  0.00    -0.047 Br
BRANCH  17  21
ATOM     21  O   UNL     1     -10.648  -6.342   3.125  0.00  0.00    -0.494 OA
ATOM     22  C   UNL     1     -11.470  -6.497   4.283  0.00  0.00    +0.277 C 
ENDBRANCH  17  21
ENDBRANCH   5  14
BRANCH   1  26
ATOM     23  C   UNL     1      -2.143   1.058   1.278  0.00  0.00    -0.048 A 
ATOM     24  C   UNL     1      -3.156   1.797   0.698  0.00  0.00    +0.004 A 
ATOM     25  C   UNL     1      -4.453   1.316   0.704  0.00  0.00    +0.004 A 
ATOM     26  C   UNL     1      -4.737   0.101   1.298  0.00  0.00    -0.043 A 
ATOM     27  C   UNL     1      -3.723  -0.636   1.882  0.00  0.00    +0.004 A 
ATOM     28  C   UNL     1      -2.427  -0.158   1.872  0.00  0.00    +0.004 A 
BRANCH  23  30
ATOM     29  C   UNL     1      -0.013   1.086   0.008  0.00  0.00    +0.009 C 
ATOM     30  C   UNL     1      -0.729   1.579   1.267  0.00  0.00    +0.032 C 
ENDBRANCH  23  30
ENDBRANCH   1  26
TORSDOF 4
