REMARK  Name = ZINC04754072
REMARK  13 active torsions:
REMARK  status: ('A' for Active; 'I' for Inactive)
REMARK    1  A    between atoms: C_1  and  C_2
REMARK    2  A    between atoms: C_7  and  C_32
REMARK    3  A    between atoms: C_9  and  C_10
REMARK    4  A    between atoms: C_9  and  N_62
REMARK    5  A    between atoms: C_10  and  C_12
REMARK    6  A    between atoms: C_10  and  O_31
REMARK    7  A    between atoms: C_12  and  O_13
REMARK    8  A    between atoms: O_13  and  C_14
REMARK    9  A    between atoms: C_17  and  N_20
REMARK   10  A    between atoms: C_21  and  C_22
REMARK   11  A    between atoms: C_26  and  O_29
REMARK   12  A    between atoms: C_27  and  O_28
REMARK   13  A    between atoms: O_29  and  C_30
REMARK                            x       y       z     vdW  Elec       q    Type
REMARK                         _______ _______ _______ _____ _____    ______ ____
ROOT
ATOM      1  C   UNL     1       7.957  -0.443  -1.538  0.00  0.00    +0.121 A 
ATOM      2  C   UNL     1       7.937   0.460  -2.593  0.00  0.00    +0.048 A 
ATOM      3  C   UNL     1       6.800   1.195  -2.852  0.00  0.00    +0.031 A 
ATOM      4  C   UNL     1       5.667   1.031  -2.051  0.00  0.00    +0.064 A 
ATOM      5  C   UNL     1       5.694   0.126  -0.988  0.00  0.00    +0.031 A 
ATOM      6  C   UNL     1       6.833  -0.609  -0.739  0.00  0.00    +0.048 A 
ENDROOT
BRANCH   4   7
ATOM      7  N   UNL     1       4.536   1.759  -2.305  0.00  0.00    -0.255 NA
ATOM      8  C   UNL     1       3.371   1.176  -2.298  0.00  0.00    +0.123 C 
BRANCH   8   9
ATOM      9  C   UNL     1       2.155   1.958  -2.571  0.00  0.00    +0.038 A 
ATOM     10  C   UNL     1       0.902   1.336  -2.565  0.00  0.00    +0.013 A 
ATOM     11  C   UNL     1      -0.233   2.072  -2.826  0.00  0.00    +0.004 A 
ATOM     12  C   UNL     1      -0.143   3.430  -3.084  0.00  0.00    +0.049 A 
ATOM     13  C   UNL     1       1.091   4.061  -3.094  0.00  0.00    +0.162 A 
ATOM     14  C   UNL     1       2.247   3.331  -2.837  0.00  0.00    +0.167 A 
BRANCH  14  15
ATOM     15  O   UNL     1       3.458   3.946  -2.845  0.00  0.00    -0.503 OA
ATOM     16  H   UNL     1       3.890   3.951  -3.710  0.00  0.00    +0.292 HD
ENDBRANCH  14  15
BRANCH  13  17
ATOM     17  O   UNL     1       1.171   5.393  -3.353  0.00  0.00    -0.491 OA
ATOM     18  C   UNL     1      -0.056   6.080  -3.608  0.00  0.00    +0.277 C 
ENDBRANCH  13  17
ENDBRANCH   8   9
ENDBRANCH   4   7
BRANCH   1  19
ATOM     19  O   UNL     1       9.080  -1.166  -1.287  0.00  0.00    -0.489 OA
BRANCH  19  20
ATOM     20  C   UNL     1       9.033  -2.076  -0.186  0.00  0.00    +0.258 C 
BRANCH  20  21
ATOM     21  C   UNL     1      10.378  -2.794  -0.060  0.00  0.00    +0.135 C 
BRANCH  21  22
ATOM     22  O   UNL     1      11.393  -1.847   0.277  0.00  0.00    -0.390 OA
ATOM     23  H   UNL     1      11.238  -1.383   1.111  0.00  0.00    +0.210 HD
ENDBRANCH  21  22
BRANCH  21  24
ATOM     24  C   UNL     1      10.287  -3.857   1.037  0.00  0.00    -0.043 C 
BRANCH  24  32
ATOM     25  C   UNL     1      10.128  -6.666   1.032  0.00  0.00    -0.013 C 
ATOM     26  C   UNL     1      11.304  -5.951   1.701  0.00  0.00    -0.071 C 
ATOM     27  C   UNL     1      12.565  -6.808   1.568  0.00  0.00    -0.016 C 
ATOM     28  C   UNL     1      13.742  -6.080   2.221  0.00  0.00    -0.003 C 
ATOM     29  C   UNL     1      13.918  -4.711   1.558  0.00  0.00    -0.016 C 
ATOM     30  C   UNL     1      12.617  -3.915   1.692  0.00  0.00    -0.071 C 
ATOM     31  C   UNL     1      12.295  -3.710   3.173  0.00  0.00    -0.013 C 
ATOM     32  N   UNL     1      11.529  -4.658   1.022  0.00  0.00    +0.385 N 
ATOM     33  H   UNL     1      11.798  -4.836   0.047  0.00  0.00    -0.081 HD
ENDBRANCH  24  32
ENDBRANCH  21  24
ENDBRANCH  20  21
ENDBRANCH  19  20
ENDBRANCH   1  19
TORSDOF 10
