REMARK  Name = ZINC63453834
REMARK  9 active torsions:
REMARK  status: ('A' for Active; 'I' for Inactive)
REMARK    1  A    between atoms: C_1  and  C_2
REMARK    2  A    between atoms: C_5  and  C_31
REMARK    3  A    between atoms: N_8  and  C_10
REMARK    4  A    between atoms: C_10  and  C_11
REMARK    5  A    between atoms: C_11  and  C_12
REMARK    6  A    between atoms: C_12  and  N_13
REMARK    7  A    between atoms: C_14  and  C_16
REMARK    8  A    between atoms: C_16  and  C_17
REMARK    9  A    between atoms: CA_25  and  C_27
REMARK                            x       y       z     vdW  Elec       q    Type
REMARK                         _______ _______ _______ _____ _____    ______ ____
ROOT
ATOM      1  N   UNL     1       2.298   0.496   6.102  0.00  0.00    -0.315 N 
ATOM      2  C   UNL     1       2.745   0.243   7.348  0.00  0.00    +0.217 C 
ATOM      3  O   UNL     1       3.741  -0.430   7.509  0.00  0.00    -0.275 OA
ATOM      4  H   UNL     1       1.501   1.035   5.973  0.00  0.00    +0.149 HD
ENDROOT
BRANCH   1   5
ATOM      5  C   UNL     1       3.015  -0.041   4.943  0.00  0.00    +0.102 C 
BRANCH   5   6
ATOM      6  C   UNL     1       2.304   0.391   3.659  0.00  0.00    +0.000 C 
BRANCH   6   7
ATOM      7  C   UNL     1       3.052  -0.171   2.448  0.00  0.00    -0.077 C 
BRANCH   7  13
ATOM      8  C   UNL     1       0.154   1.655  -0.017  0.00  0.00    +0.005 C 
ATOM      9  C   UNL     1       0.287   0.132  -0.071  0.00  0.00    -0.031 C 
ATOM     10  C   UNL     1       1.072  -0.269  -1.324  0.00  0.00    +0.003 C 
ATOM     11  C   UNL     1       2.489   0.306  -1.232  0.00  0.00    -0.031 C 
ATOM     12  C   UNL     1       3.153  -0.193   0.053  0.00  0.00    -0.076 C 
ATOM     13  N   UNL     1       2.370   0.244   1.215  0.00  0.00    +0.380 N 
ATOM     14  C   UNL     1       1.032  -0.361   1.171  0.00  0.00    -0.076 C 
ATOM     15  C   UNL     1       3.306  -0.152  -2.442  0.00  0.00    +0.005 C 
ATOM     16  H   UNL     1       2.283   1.249   1.202  0.00  0.00    -0.082 HD
ENDBRANCH   7  13
ENDBRANCH   6   7
ENDBRANCH   5   6
ENDBRANCH   1   5
BRANCH   2  17
ATOM     17  C   UNL     1       2.008   0.796   8.540  0.00  0.00    +0.129 C 
BRANCH  17  18
ATOM     18  C   UNL     1       2.631   0.265   9.806  0.00  0.00    -0.019 C 
ATOM     19  C   UNL     1       2.237  -0.818  10.513  0.00  0.00    +0.002 A 
ATOM     20  C   UNL     1       1.153  -1.789  10.324  0.00  0.00    +0.030 A 
ATOM     21  C   UNL     1       1.004  -2.791  11.222  0.00  0.00    +0.042 A 
ATOM     22  C   UNL     1       1.859  -2.923  12.326  0.00  0.00    +0.022 A 
ATOM     23  C   UNL     1       2.877  -2.070  12.567  0.00  0.00    +0.027 A 
ATOM     24  C   UNL     1       3.125  -0.980  11.687  0.00  0.00    +0.044 A 
ATOM     25  N   UNL     1       4.032  -0.034  11.704  0.00  0.00    -0.368 N 
ATOM     26  CA  UNL     1       3.826   0.833  10.539  0.00  0.00    +0.221 C 
ATOM     27 CL   UNL     1      -0.277  -3.941  11.001  0.00  0.00    -0.084 Cl
ATOM     28  H   UNL     1       4.726   0.073  12.374  0.00  0.00    +0.161 HD
BRANCH  26  29
ATOM     29  C   UNL     1       3.538   2.242  10.988  0.00  0.00    +0.382 C 
ATOM     30  O   UNL     1       3.390   2.486  12.173  0.00  0.00    -0.244 OA
ATOM     31  OXT UNL     1       3.453   3.139  10.166  0.00  0.00    -0.244 OA
ENDBRANCH  26  29
ENDBRANCH  17  18
ENDBRANCH   2  17
TORSDOF 7
