REMARK  Name = ZINC64019282
REMARK  5 active torsions:
REMARK  status: ('A' for Active; 'I' for Inactive)
REMARK    1  A    between atoms: C_1  and  O_2
REMARK    2  A    between atoms: O_2  and  C_3
REMARK    3  A    between atoms: C_3  and  C_4
REMARK    4  A    between atoms: C_4  and  N_5
REMARK    5  A    between atoms: C_8  and  C_14
REMARK                            x       y       z     vdW  Elec       q    Type
REMARK                         _______ _______ _______ _____ _____    ______ ____
ROOT
ATOM      1  C   UNL     1       0.868  -3.187  -3.827  0.00  0.00    +0.121 C 
ATOM      2  C   UNL     1      -0.183  -4.299  -3.775  0.00  0.00    +0.128 C 
ATOM      3  C   UNL     1      -0.917  -4.253  -5.110  0.00  0.00    -0.035 C 
ATOM      4  C   UNL     1      -0.847  -5.475  -5.619  0.00  0.00    -0.001 A 
ATOM      5  C   UNL     1      -1.433  -6.069  -6.832  0.00  0.00    +0.010 A 
ATOM      6  C   UNL     1      -1.138  -7.376  -7.062  0.00  0.00    +0.001 A 
ATOM      7  C   UNL     1      -0.329  -8.142  -6.218  0.00  0.00    +0.002 A 
ATOM      8  C   UNL     1       0.247  -7.680  -5.080  0.00  0.00    +0.026 A 
ATOM      9  C   UNL     1       0.006  -6.320  -4.728  0.00  0.00    +0.043 A 
ATOM     10  N   UNL     1       0.412  -5.631  -3.679  0.00  0.00    -0.376 N 
ATOM     11  C   UNL     1      -1.476  -2.964  -5.663  0.00  0.00    +0.048 C 
ATOM     12  C   UNL     1      -0.353  -1.919  -5.536  0.00  0.00    +0.086 C 
ATOM     13  N   UNL     1       0.193  -1.927  -4.175  0.00  0.00    -0.307 NA
ATOM     14  H   UNL     1      -0.521  -1.700  -3.499  0.00  0.00    +0.123 HD
ATOM     15  H   UNL     1       1.000  -5.940  -2.972  0.00  0.00    +0.160 HD
ENDROOT
BRANCH   1  19
ATOM     16  N   UNL     1       1.401  -2.532  -0.162  0.00  0.00    -0.258 N 
ATOM     17  C   UNL     1       0.789  -2.646  -1.358  0.00  0.00    +0.265 A 
ATOM     18  O   UNL     1      -0.399  -2.397  -1.465  0.00  0.00    -0.267 OA
ATOM     19  C   UNL     1       1.531  -3.052  -2.481  0.00  0.00    +0.100 A 
ATOM     20  C   UNL     1       2.859  -3.324  -2.334  0.00  0.00    +0.263 A 
ATOM     21  N   UNL     1       3.443  -3.195  -1.099  0.00  0.00    -0.274 N 
ATOM     22  C   UNL     1       2.714  -2.799  -0.039  0.00  0.00    +0.332 A 
ATOM     23  O   UNL     1       3.249  -2.686   1.046  0.00  0.00    -0.246 OA
ATOM     24  O   UNL     1       3.595  -3.716  -3.396  0.00  0.00    -0.267 OA
ATOM     25  H   UNL     1       4.387  -3.387  -0.990  0.00  0.00    +0.173 HD
BRANCH  16  26
ATOM     26  C   UNL     1       0.633  -2.108   1.011  0.00  0.00    +0.158 C 
BRANCH  26  27
ATOM     27  C   UNL     1       0.673  -0.582   1.123  0.00  0.00    +0.181 C 
BRANCH  27  29
ATOM     28  C   UNL     1      -0.017   1.425   0.010  0.00  0.00    +0.194 C 
ATOM     29  O   UNL     1       0.002  -0.004   0.002  0.00  0.00    -0.381 OA
ENDBRANCH  27  29
ENDBRANCH  26  27
ENDBRANCH  16  26
ENDBRANCH   1  19
TORSDOF 4
