REMARK  Name = ZINC52296538
REMARK  5 active torsions:
REMARK  status: ('A' for Active; 'I' for Inactive)
REMARK    1  A    between atoms: C_1  and  C_2
REMARK    2  A    between atoms: C_5  and  N_7
REMARK    3  A    between atoms: N_10  and  C_11
REMARK    4  A    between atoms: C_11  and  C_18
REMARK    5  A    between atoms: C_14  and  C_17
REMARK                            x       y       z     vdW  Elec       q    Type
REMARK                         _______ _______ _______ _____ _____    ______ ____
ROOT
ATOM      1  N   UNL     1       0.135  -1.975   1.632  0.00  0.00    -0.296 N 
ATOM      2  C   UNL     1       0.348  -2.384   2.898  0.00  0.00    +0.301 C 
ATOM      3  O   UNL     1       1.014  -1.702   3.653  0.00  0.00    -0.253 OA
ATOM      4  N   UNL     1      -0.175  -3.550   3.326  0.00  0.00    -0.284 N 
ATOM      5  H   UNL     1      -0.396  -2.519   1.029  0.00  0.00    +0.151 HD
ATOM      6  H   UNL     1      -0.705  -4.094   2.724  0.00  0.00    +0.151 HD
ENDROOT
BRANCH   4   7
ATOM      7  C   UNL     1       0.058  -3.995   4.703  0.00  0.00    +0.137 C 
ATOM      8  C   UNL     1       1.561  -4.155   4.940  0.00  0.00    +0.038 C 
ATOM      9  C   UNL     1       2.123  -5.193   3.966  0.00  0.00    +0.006 C 
ATOM     10  C   UNL     1       1.425  -6.536   4.192  0.00  0.00    -0.014 C 
ATOM     11  C   UNL     1      -0.078  -6.376   3.955  0.00  0.00    +0.006 C 
ATOM     12  C   UNL     1      -0.640  -5.338   4.929  0.00  0.00    +0.038 C 
ATOM     13  C   UNL     1       1.668  -7.001   5.630  0.00  0.00    +0.007 C 
BRANCH   7  14
ATOM     14  C   UNL     1      -0.496  -2.973   5.662  0.00  0.00    +0.379 C 
ATOM     15  O   UNL     1      -1.035  -1.966   5.235  0.00  0.00    -0.244 OA
ATOM     16  O   UNL     1      -0.405  -3.153   6.864  0.00  0.00    -0.244 OA
ENDBRANCH   7  14
ENDBRANCH   4   7
BRANCH   1  20
ATOM     17  C   UNL     1      -0.019   1.526   0.010  0.00  0.00    +0.009 C 
ATOM     18  C   UNL     1       0.002  -0.004   0.002  0.00  0.00    +0.008 C 
ATOM     19  C   UNL     1       1.351  -0.691  -0.221  0.00  0.00    +0.027 C 
ATOM     20  C   UNL     1       0.703  -0.708   1.166  0.00  0.00    +0.078 C 
ENDBRANCH   1  20
TORSDOF 3
