REMARK  Name = ZINC63850149
REMARK  7 active torsions:
REMARK  status: ('A' for Active; 'I' for Inactive)
REMARK    1  A    between atoms: C_1  and  C_2
REMARK    2  A    between atoms: N_11  and  N_12
REMARK    3  A    between atoms: C_13  and  C_15
REMARK    4  A    between atoms: C_15  and  C_16
REMARK    5  A    between atoms: C_16  and  C_17
REMARK    6  A    between atoms: C_17  and  N_18
REMARK    7  A    between atoms: C_20  and  C_23
REMARK                            x       y       z     vdW  Elec       q    Type
REMARK                         _______ _______ _______ _____ _____    ______ ____
ROOT
ATOM      1  N   UNL     1       0.024   0.043   2.383  0.00  0.00    -0.219 N 
ATOM      2  C   UNL     1      -1.098   0.115   3.126  0.00  0.00    +0.231 C 
ATOM      3  O   UNL     1      -2.108  -0.444   2.756  0.00  0.00    -0.274 OA
ATOM      4  H   UNL     1       0.832   0.490   2.679  0.00  0.00    +0.176 HD
ENDROOT
BRANCH   1  15
ATOM      5  C   UNL     1      -0.018   1.503   0.010  0.00  0.00    +0.088 C 
ATOM      6  C   UNL     1       0.002  -0.004   0.002  0.00  0.00    +0.129 A 
ATOM      7  N   UNL     1       0.005  -0.639  -1.139  0.00  0.00    -0.225 NA
ATOM      8  C   UNL     1       0.024  -1.968  -1.183  0.00  0.00    +0.115 A 
ATOM      9  C   UNL     1       0.040  -2.751  -0.015  0.00  0.00    +0.074 A 
ATOM     10  C   UNL     1       0.059  -4.185  -0.238  0.00  0.00    +0.023 A 
ATOM     11  C   UNL     1       0.059  -4.653  -1.496  0.00  0.00    +0.048 A 
ATOM     12  S   UNL     1       0.034  -3.171  -2.487  0.00  0.00    -0.077 S 
ATOM     13  C   UNL     1       0.036  -2.023   1.219  0.00  0.00    +0.279 A 
ATOM     14  O   UNL     1       0.050  -2.612   2.286  0.00  0.00    -0.265 OA
ATOM     15  N   UNL     1       0.022  -0.677   1.181  0.00  0.00    -0.210 N 
ENDBRANCH   1  15
BRANCH   2  16
ATOM     16  C   UNL     1      -1.097   0.890   4.419  0.00  0.00    +0.099 C 
BRANCH  16  17
ATOM     17  C   UNL     1      -2.483   0.812   5.061  0.00  0.00    +0.034 C 
BRANCH  17  18
ATOM     18  C   UNL     1      -2.482   1.599   6.373  0.00  0.00    +0.169 C 
BRANCH  18  19
ATOM     19  N   UNL     1      -3.810   1.525   6.989  0.00  0.00    -0.163 N 
ATOM     20  N   UNL     1      -4.776   2.351   6.778  0.00  0.00    -0.130 NA
ATOM     21  C   UNL     1      -5.805   1.962   7.503  0.00  0.00    +0.205 A 
ATOM     22  N   UNL     1      -5.416   0.861   8.162  0.00  0.00    -0.108 NA
ATOM     23  N   UNL     1      -4.196   0.621   7.820  0.00  0.00    -0.046 NA
BRANCH  21  24
ATOM     24  C   UNL     1      -7.137   2.615   7.577  0.00  0.00    +0.023 A 
ATOM     25  C   UNL     1      -7.396   3.758   6.824  0.00  0.00    +0.012 A 
ATOM     26  C   UNL     1      -8.636   4.361   6.896  0.00  0.00    +0.001 A 
ATOM     27  C   UNL     1      -9.619   3.833   7.713  0.00  0.00    +0.000 A 
ATOM     28  C   UNL     1      -9.366   2.698   8.462  0.00  0.00    +0.001 A 
ATOM     29  C   UNL     1      -8.132   2.083   8.393  0.00  0.00    +0.012 A 
ENDBRANCH  21  24
ENDBRANCH  18  19
ENDBRANCH  17  18
ENDBRANCH  16  17
ENDBRANCH   2  16
TORSDOF 6
