REMARK  Name = ZINC17112473
REMARK  10 active torsions:
REMARK  status: ('A' for Active; 'I' for Inactive)
REMARK    1  A    between atoms: C_1  and  C_2
REMARK    2  A    between atoms: C_3  and  C_27
REMARK    3  A    between atoms: C_4  and  C_10
REMARK    4  A    between atoms: N_12  and  C_21
REMARK    5  A    between atoms: C_14  and  C_15
REMARK    6  A    between atoms: C_27  and  O_29
REMARK    7  A    between atoms: O_29  and  C_30
REMARK    8  A    between atoms: C_30  and  C_31
REMARK    9  A    between atoms: C_31  and  O_32
REMARK   10  A    between atoms: O_32  and  C_33
REMARK                            x       y       z     vdW  Elec       q    Type
REMARK                         _______ _______ _______ _____ _____    ______ ____
ROOT
ATOM      1  C   UNL     1       1.393   2.065  -0.754  0.00  0.00    +0.061 C 
ATOM      2  C   UNL     1       0.891   0.740  -0.242  0.00  0.00    +0.021 C 
ATOM      3  C   UNL     1      -0.324   0.295  -0.628  0.00  0.00    +0.078 C 
ATOM      4  C   UNL     1      -0.790  -1.042  -0.090  0.00  0.00    +0.147 C 
ATOM      5  N   UNL     1       0.127  -1.752   0.817  0.00  0.00    -0.288 N 
ATOM      6  C   UNL     1       1.311  -1.179   1.110  0.00  0.00    +0.304 C 
ATOM      7  O   UNL     1       2.075  -1.757   1.858  0.00  0.00    -0.252 OA
ATOM      8  N   UNL     1       1.675   0.005   0.601  0.00  0.00    -0.273 N 
ATOM      9  H   UNL     1      -0.115  -2.613   1.194  0.00  0.00    +0.151 HD
ATOM     10  H   UNL     1       2.542   0.362   0.848  0.00  0.00    +0.156 HD
ENDROOT
BRANCH   4  11
ATOM     11  C   UNL     1      -1.071  -1.943  -1.265  0.00  0.00    +0.023 A 
ATOM     12  C   UNL     1      -0.217  -2.225  -2.273  0.00  0.00    +0.121 A 
ATOM     13  N   UNL     1      -0.848  -3.072  -3.128  0.00  0.00    -0.239 N 
ATOM     14  N   UNL     1      -2.132  -3.318  -2.626  0.00  0.00    -0.166 NA
ATOM     15  C   UNL     1      -2.269  -2.646  -1.502  0.00  0.00    +0.098 A 
BRANCH  15  16
ATOM     16  C   UNL     1      -3.476  -2.629  -0.639  0.00  0.00    +0.002 A 
ATOM     17  C   UNL     1      -3.343  -2.626   0.748  0.00  0.00    +0.010 A 
ATOM     18  C   UNL     1      -4.469  -2.610   1.546  0.00  0.00    +0.001 A 
ATOM     19  C   UNL     1      -5.727  -2.596   0.972  0.00  0.00    +0.000 A 
ATOM     20  C   UNL     1      -5.864  -2.598  -0.405  0.00  0.00    +0.001 A 
ATOM     21  C   UNL     1      -4.745  -2.609  -1.212  0.00  0.00    +0.010 A 
ENDBRANCH  15  16
BRANCH  13  22
ATOM     22  C   UNL     1      -0.307  -3.605  -4.306  0.00  0.00    +0.065 A 
ATOM     23  C   UNL     1       0.988  -3.280  -4.686  0.00  0.00    +0.028 A 
ATOM     24  C   UNL     1       1.517  -3.808  -5.848  0.00  0.00    +0.002 A 
ATOM     25  C   UNL     1       0.759  -4.658  -6.632  0.00  0.00    +0.000 A 
ATOM     26  C   UNL     1      -0.531  -4.983  -6.255  0.00  0.00    +0.002 A 
ATOM     27  C   UNL     1      -1.064  -4.464  -5.092  0.00  0.00    +0.028 A 
ENDBRANCH  13  22
ENDBRANCH   4  11
BRANCH   3  28
ATOM     28  C   UNL     1      -1.135   1.053  -1.506  0.00  0.00    +0.339 C 
ATOM     29  O   UNL     1      -0.699   2.071  -2.011  0.00  0.00    -0.245 OA
BRANCH  28  30
ATOM     30  O   UNL     1      -2.392   0.648  -1.782  0.00  0.00    -0.459 OA
BRANCH  30  31
ATOM     31  C   UNL     1      -3.127   1.418  -2.735  0.00  0.00    +0.260 C 
BRANCH  31  32
ATOM     32  C   UNL     1      -4.560   0.889  -2.822  0.00  0.00    +0.200 C 
BRANCH  32  33
ATOM     33  O   UNL     1      -5.223   1.104  -1.574  0.00  0.00    -0.380 OA
ATOM     34  C   UNL     1      -6.612   0.766  -1.588  0.00  0.00    +0.194 C 
ENDBRANCH  32  33
ENDBRANCH  31  32
ENDBRANCH  30  31
ENDBRANCH  28  30
ENDBRANCH   3  28
TORSDOF 8
