REMARK  Name = ZINC39705124
REMARK  11 active torsions:
REMARK  status: ('A' for Active; 'I' for Inactive)
REMARK    1  A    between atoms: C_1  and  C_2
REMARK    2  A    between atoms: C_2  and  O_3
REMARK    3  A    between atoms: O_3  and  C_4
REMARK    4  A    between atoms: C_4  and  C_6
REMARK    5  A    between atoms: C_7  and  C_37
REMARK    6  A    between atoms: C_9  and  C_20
REMARK    7  A    between atoms: C_10  and  C_12
REMARK    8  A    between atoms: C_15  and  O_18
REMARK    9  A    between atoms: O_18  and  C_19
REMARK   10  A    between atoms: C_20  and  C_22
REMARK   11  A    between atoms: C_30  and  C_32
REMARK                            x       y       z     vdW  Elec       q    Type
REMARK                         _______ _______ _______ _____ _____    ______ ____
ROOT
ATOM      1  C   UNL     1       1.138  -2.332  -2.835  0.00  0.00    +0.071 C 
ATOM      2  C   UNL     1       1.626  -3.591  -2.963  0.00  0.00    +0.050 C 
ATOM      3  N   UNL     1       2.224  -3.782  -4.139  0.00  0.00    -0.251 NA
ATOM      4  C   UNL     1       2.214  -2.731  -4.910  0.00  0.00    +0.105 C 
ATOM      5  C   UNL     1       1.486  -1.644  -4.142  0.00  0.00    +0.110 C 
ATOM      6  C   UNL     1       1.507  -4.651  -1.898  0.00  0.00    +0.066 C 
ENDROOT
BRANCH   5   7
ATOM      7  C   UNL     1       0.238  -1.216  -4.870  0.00  0.00    -0.034 A 
ATOM      8  C   UNL     1      -0.700  -2.161  -5.245  0.00  0.00    +0.008 A 
ATOM      9  C   UNL     1      -1.845  -1.772  -5.913  0.00  0.00    +0.046 A 
ATOM     10  C   UNL     1      -2.054  -0.432  -6.206  0.00  0.00    +0.120 A 
ATOM     11  C   UNL     1      -1.112   0.514  -5.828  0.00  0.00    +0.046 A 
ATOM     12  C   UNL     1       0.029   0.120  -5.156  0.00  0.00    +0.008 A 
BRANCH  10  13
ATOM     13  O   UNL     1      -3.179  -0.046  -6.864  0.00  0.00    -0.495 OA
ATOM     14  C   UNL     1      -3.328   1.349  -7.132  0.00  0.00    +0.277 C 
ENDBRANCH  10  13
ENDBRANCH   5   7
BRANCH   1  15
ATOM     15  C   UNL     1       0.424  -1.763  -1.687  0.00  0.00    +0.338 C 
ATOM     16  O   UNL     1       0.217  -2.443  -0.701  0.00  0.00    -0.245 OA
BRANCH  15  17
ATOM     17  O   UNL     1      -0.004  -0.484  -1.726  0.00  0.00    -0.462 OA
BRANCH  17  19
ATOM     18  C   UNL     1      -1.097   1.462  -0.801  0.00  0.00    +0.048 C 
ATOM     19  C   UNL     1      -0.693   0.004  -0.573  0.00  0.00    +0.229 C 
ENDBRANCH  17  19
ENDBRANCH  15  17
ENDBRANCH   1  15
BRANCH   4  20
ATOM     20  C   UNL     1       2.788  -2.623  -6.261  0.00  0.00    +0.262 C 
ATOM     21  O   UNL     1       2.708  -1.578  -6.872  0.00  0.00    -0.280 OA
BRANCH  20  22
ATOM     22  C   UNL     1       3.469  -3.798  -6.878  0.00  0.00    +0.288 C 
ATOM     23  O   UNL     1       3.425  -4.881  -6.332  0.00  0.00    -0.266 OA
ATOM     24  N   UNL     1       4.133  -3.657  -8.043  0.00  0.00    -0.292 N 
ATOM     25  C   UNL     1       4.348  -2.325  -8.624  0.00  0.00    +0.127 C 
ATOM     26  C   UNL     1       5.851  -2.129  -8.858  0.00  0.00    +0.127 C 
ATOM     27  N   UNL     1       6.373  -3.305  -9.569  0.00  0.00    -0.292 N 
ATOM     28  C   UNL     1       6.157  -4.638  -8.987  0.00  0.00    +0.127 C 
ATOM     29  C   UNL     1       4.659  -4.832  -8.751  0.00  0.00    +0.127 C 
ATOM     30  C   UNL     1       7.036  -3.165 -10.733  0.00  0.00    +0.282 C 
ATOM     31  O   UNL     1       7.311  -4.145 -11.400  0.00  0.00    -0.267 OA
BRANCH  30  32
ATOM     32  C   UNL     1       7.427  -1.830 -11.198  0.00  0.00    +0.189 A 
ATOM     33  C   UNL     1       8.092  -1.546 -12.357  0.00  0.00    +0.054 A 
ATOM     34  C   UNL     1       8.255  -0.152 -12.397  0.00  0.00    +0.042 A 
ATOM     35  C   UNL     1       7.691   0.347 -11.276  0.00  0.00    +0.196 A 
ATOM     36  O   UNL     1       7.188  -0.666 -10.558  0.00  0.00    -0.458 OA
ENDBRANCH  30  32
ENDBRANCH  20  22
ENDBRANCH   4  20
TORSDOF 8
