REMARK  Name = ZINC44714612
REMARK  12 active torsions:
REMARK  status: ('A' for Active; 'I' for Inactive)
REMARK    1  A    between atoms: C_1  and  C_2
REMARK    2  A    between atoms: C_2  and  C_3
REMARK    3  A    between atoms: C_3  and  C_4
REMARK    4  A    between atoms: C_4  and  C_5
REMARK    5  A    between atoms: C_5  and  C_7
REMARK    6  A    between atoms: C_5  and  C_8
REMARK    7  A    between atoms: C_12  and  C_21
REMARK    8  A    between atoms: N_23  and  C_24
REMARK    9  A    between atoms: C_24  and  C_25
REMARK   10  A    between atoms: C_25  and  C_26
REMARK   11  A    between atoms: C_27  and  C_38
REMARK   12  A    between atoms: C_33  and  C_36
REMARK                            x       y       z     vdW  Elec       q    Type
REMARK                         _______ _______ _______ _____ _____    ______ ____
ROOT
ATOM      1  C   UNL     1       1.419  -4.211   2.486  0.00  0.00    +0.218 C 
ATOM      2  O   UNL     1       0.786  -4.839   1.665  0.00  0.00    -0.275 OA
ATOM      3  N   UNL     1       1.985  -4.847   3.531  0.00  0.00    -0.300 N 
ATOM      4  C   UNL     1       2.782  -4.255   4.631  0.00  0.00    +0.121 C 
ATOM      5  C   UNL     1       2.333  -5.022   5.896  0.00  0.00    +0.100 C 
ATOM      6  C   UNL     1       1.789  -6.361   5.370  0.00  0.00    -0.004 C 
ATOM      7  C   UNL     1       1.944  -6.295   3.844  0.00  0.00    +0.115 C 
ATOM      8  C   UNL     1       0.317  -6.514   5.739  0.00  0.00    -0.010 C 
ATOM      9  C   UNL     1      -0.186  -7.877   5.255  0.00  0.00    -0.082 C 
ATOM     10  N   UNL     1       0.608  -8.943   5.878  0.00  0.00    +0.379 N 
ATOM     11  C   UNL     1       2.007  -8.843   5.444  0.00  0.00    -0.082 C 
ATOM     12  C   UNL     1       2.603  -7.521   5.935  0.00  0.00    -0.010 C 
ATOM     13  H   UNL     1       0.562  -8.853   6.882  0.00  0.00    -0.086 HD
ATOM     14  H   UNL     1       0.237  -9.841   5.606  0.00  0.00    -0.086 HD
ENDROOT
BRANCH   5  15
ATOM     15  C   UNL     1       3.506  -5.253   6.814  0.00  0.00    +0.218 C 
ATOM     16  O   UNL     1       4.620  -5.383   6.353  0.00  0.00    -0.275 OA
ATOM     17  N   UNL     1       3.316  -5.315   8.146  0.00  0.00    -0.315 N 
ATOM     18  H   UNL     1       2.425  -5.211   8.515  0.00  0.00    +0.149 HD
BRANCH  17  19
ATOM     19  C   UNL     1       4.456  -5.540   9.039  0.00  0.00    +0.109 C 
BRANCH  19  20
ATOM     20  C   UNL     1       3.970  -5.567  10.489  0.00  0.00    +0.056 C 
BRANCH  20  21
ATOM     21  C   UNL     1       5.143  -5.798  11.407  0.00  0.00    -0.018 A 
ATOM     22  C   UNL     1       5.614  -6.986  11.818  0.00  0.00    +0.017 A 
ATOM     23  N   UNL     1       6.689  -6.802  12.644  0.00  0.00    -0.358 N 
ATOM     24  H   UNL     1       7.197  -7.514  13.064  0.00  0.00    +0.166 HD
ATOM     25  C   UNL     1       6.944  -5.459  12.790  0.00  0.00    +0.047 A 
ATOM     26  C   UNL     1       5.990  -4.769  12.017  0.00  0.00    +0.004 A 
ATOM     27  C   UNL     1       6.006  -3.377  11.969  0.00  0.00    +0.029 A 
ATOM     28  C   UNL     1       6.974  -2.680  12.687  0.00  0.00    +0.052 A 
ATOM     29  C   UNL     1       7.920  -3.379  13.450  0.00  0.00    +0.021 A 
ATOM     30  C   UNL     1       7.902  -4.741  13.504  0.00  0.00    +0.027 A 
ATOM     31  C   UNL     1       5.042  -8.325  11.428  0.00  0.00    +0.063 C 
BRANCH  28  32
ATOM     32  C   UNL     1       7.003  -1.249  12.646  0.00  0.00    +0.099 C 
ATOM     33  N   UNL     1       7.026  -0.114  12.614  0.00  0.00    -0.191 NA
ENDBRANCH  28  32
ENDBRANCH  20  21
ENDBRANCH  19  20
ENDBRANCH  17  19
ENDBRANCH   5  15
BRANCH   1  34
ATOM     34  C   UNL     1       1.573  -2.719   2.339  0.00  0.00    +0.072 C 
ATOM     35  C   UNL     1       3.058  -2.368   2.226  0.00  0.00    +0.017 C 
BRANCH  34  36
ATOM     36  C   UNL     1       0.841  -2.252   1.079  0.00  0.00    +0.012 C 
BRANCH  36  37
ATOM     37  C   UNL     1       0.892  -0.725   0.997  0.00  0.00    +0.000 C 
BRANCH  37  39
ATOM     38  C   UNL     1       0.210   1.268  -0.346  0.00  0.00    +0.004 C 
ATOM     39  C   UNL     1       0.160  -0.259  -0.263  0.00  0.00    -0.003 C 
ENDBRANCH  37  39
ENDBRANCH  36  37
ENDBRANCH  34  36
ENDBRANCH   1  34
TORSDOF 9
