REMARK  Name = ZINC04312319
REMARK  4 active torsions:
REMARK  status: ('A' for Active; 'I' for Inactive)
REMARK    1  A    between atoms: C_6  and  C_7
REMARK    2  A    between atoms: N_8  and  N_9
REMARK    3  A    between atoms: C_10  and  C_12
REMARK    4  A    between atoms: C_14  and  C_18
REMARK                            x       y       z     vdW  Elec       q    Type
REMARK                         _______ _______ _______ _____ _____    ______ ____
ROOT
ATOM      1  N   UNL     1      -2.444  -2.779   0.011  0.00  0.00    -0.202 N 
ATOM      2  C   UNL     1      -2.423  -4.127   0.004  0.00  0.00    +0.281 C 
ATOM      3  O   UNL     1      -1.360  -4.718  -0.010  0.00  0.00    -0.267 OA
ATOM      4  H   UNL     1      -3.292  -2.307   0.022  0.00  0.00    +0.178 HD
ENDROOT
BRANCH   2   5
ATOM      5  C   UNL     1      -3.685  -4.882   0.013  0.00  0.00    +0.122 A 
ATOM      6  C   UNL     1      -3.816  -6.254   0.012  0.00  0.00    +0.063 A 
ATOM      7  C   UNL     1      -5.189  -6.550   0.022  0.00  0.00    +0.100 A 
ATOM      8  N   UNL     1      -5.860  -5.415   0.028  0.00  0.00    -0.173 NA
ATOM      9  N   UNL     1      -4.947  -4.354   0.028  0.00  0.00    -0.272 N 
ATOM     10  H   UNL     1      -5.169  -3.409   0.036  0.00  0.00    +0.189 HD
BRANCH   7  11
ATOM     11  C   UNL     1      -5.781  -7.906   0.024  0.00  0.00    +0.041 A 
ATOM     12  C   UNL     1      -7.100  -8.270   0.028  0.00  0.00    +0.019 A 
ATOM     13  C   UNL     1      -7.418  -9.611   0.029  0.00  0.00    +0.028 A 
ATOM     14  C   UNL     1      -6.415 -10.528   0.026  0.00  0.00    +0.079 A 
ATOM     15  S   UNL     1      -4.961  -9.491   0.015  0.00  0.00    -0.075 S 
ATOM     16 CL   UNL     1      -6.520 -12.261   0.027  0.00  0.00    -0.076 Cl
ENDBRANCH   7  11
ENDBRANCH   2   5
BRANCH   1  18
ATOM     17  C   UNL     1      -1.263  -0.761   0.011  0.00  0.00    +0.138 C 
ATOM     18  N   UNL     1      -1.242  -2.059   0.003  0.00  0.00    -0.187 NA
BRANCH  17  24
ATOM     19  C   UNL     1      -0.017   1.393   0.010  0.00  0.00    +0.012 A 
ATOM     20  C   UNL     1       1.169   2.096   0.002  0.00  0.00    +0.039 A 
ATOM     21  C   UNL     1       2.379   1.419  -0.013  0.00  0.00    +0.123 A 
ATOM     22  C   UNL     1       2.404   0.033  -0.021  0.00  0.00    +0.039 A 
ATOM     23  C   UNL     1       1.224  -0.680  -0.013  0.00  0.00    +0.012 A 
ATOM     24  C   UNL     1       0.002  -0.004   0.002  0.00  0.00    -0.005 A 
ATOM     25  F   UNL     1       3.538   2.113  -0.022  0.00  0.00    -0.205 F 
ENDBRANCH  17  24
ENDBRANCH   1  18
TORSDOF 4
