REMARK  Name = ZINC53112076
REMARK  7 active torsions:
REMARK  status: ('A' for Active; 'I' for Inactive)
REMARK    1  A    between atoms: C_1  and  C_2
REMARK    2  A    between atoms: C_3  and  C_9
REMARK    3  A    between atoms: C_7  and  N_8
REMARK    4  A    between atoms: N_11  and  C_12
REMARK    5  A    between atoms: C_12  and  C_20
REMARK    6  A    between atoms: C_16  and  C_19
REMARK    7  A    between atoms: C_20  and  O_21
REMARK                            x       y       z     vdW  Elec       q    Type
REMARK                         _______ _______ _______ _____ _____    ______ ____
ROOT
ATOM      1  C   UNL     1      -0.708  -1.472  -3.205  0.00  0.00    +0.245 C 
ATOM      2  O   UNL     1      -1.715  -1.675  -3.855  0.00  0.00    -0.270 OA
ATOM      3  N   UNL     1       0.322  -0.795  -3.751  0.00  0.00    -0.304 N 
ATOM      4  H   UNL     1       1.150  -0.690  -3.257  0.00  0.00    +0.150 HD
ENDROOT
BRANCH   1   7
ATOM      5  C   UNL     1      -2.842  -3.093  -2.115  0.00  0.00    +0.046 C 
ATOM      6  C   UNL     1      -1.636  -2.749  -1.279  0.00  0.00    -0.018 A 
ATOM      7  C   UNL     1      -0.613  -1.966  -1.815  0.00  0.00    +0.041 A 
ATOM      8  C   UNL     1       0.501  -1.652  -1.034  0.00  0.00    +0.013 A 
ATOM      9  C   UNL     1       0.588  -2.116   0.263  0.00  0.00    +0.003 A 
ATOM     10  C   UNL     1      -0.425  -2.892   0.794  0.00  0.00    +0.023 A 
ATOM     11  C   UNL     1      -1.542  -3.205   0.027  0.00  0.00    +0.028 A 
BRANCH  11  12
ATOM     12  N   UNL     1      -2.567  -3.984   0.571  0.00  0.00    -0.358 N 
ATOM     13  H   UNL     1      -3.344  -4.206   0.034  0.00  0.00    +0.142 HD
ATOM     14  H   UNL     1      -2.501  -4.303   1.484  0.00  0.00    +0.142 HD
ENDBRANCH  11  12
ENDBRANCH   1   7
BRANCH   3  15
ATOM     15  C   UNL     1       0.190  -0.217  -5.091  0.00  0.00    +0.058 C 
ATOM     16  C   UNL     1       1.468   0.546  -5.445  0.00  0.00    +0.028 C 
ATOM     17  C   UNL     1       2.659  -0.414  -5.419  0.00  0.00    +0.002 C 
ATOM     18  C   UNL     1       2.434  -1.533  -6.437  0.00  0.00    +0.003 C 
ATOM     19  C   UNL     1       1.156  -2.296  -6.083  0.00  0.00    -0.012 C 
ATOM     20  C   UNL     1      -0.035  -1.336  -6.109  0.00  0.00    +0.031 C 
ATOM     21  C   UNL     1       0.932  -3.416  -7.101  0.00  0.00    +0.007 C 
BRANCH  15  22
ATOM     22  C   UNL     1      -1.001   0.743  -5.117  0.00  0.00    +0.181 C 
BRANCH  22  23
ATOM     23  O   UNL     1      -0.838   1.734  -4.100  0.00  0.00    -0.393 OA
ATOM     24  H   UNL     1      -1.558   2.378  -4.059  0.00  0.00    +0.209 HD
ENDBRANCH  22  23
ENDBRANCH  15  22
ENDBRANCH   3  15
TORSDOF 5
