REMARK  Name = ZINC28681720
REMARK  13 active torsions:
REMARK  status: ('A' for Active; 'I' for Inactive)
REMARK    1  A    between atoms: C_1  and  C_2
REMARK    2  A    between atoms: C_2  and  O_3
REMARK    3  A    between atoms: O_3  and  C_4
REMARK    4  A    between atoms: C_7  and  C_10
REMARK    5  A    between atoms: N_12  and  C_13
REMARK    6  A    between atoms: C_13  and  C_14
REMARK    7  A    between atoms: C_14  and  O_16
REMARK    8  A    between atoms: O_16  and  C_17
REMARK    9  A    between atoms: C_17  and  C_18
REMARK   10  A    between atoms: C_20  and  O_21
REMARK   11  A    between atoms: C_30  and  O_32
REMARK   12  A    between atoms: O_32  and  C_33
REMARK   13  A    between atoms: C_33  and  C_34
REMARK                            x       y       z     vdW  Elec       q    Type
REMARK                         _______ _______ _______ _____ _____    ______ ____
ROOT
ATOM      1  C   UNL     1       5.644  -7.975  -0.069  0.00  0.00    +0.007 A 
ATOM      2  C   UNL     1       4.540  -8.743   0.125  0.00  0.00    +0.095 A 
ATOM      3  C   UNL     1       4.675 -10.136   0.295  0.00  0.00    +0.285 A 
ATOM      4  O   UNL     1       5.875 -10.736   0.271  0.00  0.00    -0.425 OA
ATOM      5  C   UNL     1       7.012 -10.031   0.083  0.00  0.00    +0.141 A 
ATOM      6  C   UNL     1       6.949  -8.637  -0.100  0.00  0.00    +0.024 A 
ATOM      7  C   UNL     1       8.125  -7.902  -0.290  0.00  0.00    +0.014 A 
ATOM      8  C   UNL     1       9.330  -8.542  -0.309  0.00  0.00    +0.024 A 
ATOM      9  C   UNL     1       9.398  -9.924  -0.134  0.00  0.00    +0.040 A 
ATOM     10  C   UNL     1       8.243 -10.667   0.061  0.00  0.00    +0.070 A 
ATOM     11  N   UNL     1      10.638 -10.564  -0.155  0.00  0.00    -0.251 N 
ATOM     12  C   UNL     1      10.744 -11.811  -0.656  0.00  0.00    +0.405 C 
ATOM     13  O   UNL     1       9.782 -12.340  -1.176  0.00  0.00    -0.226 OA
ATOM     14  H   UNL     1      11.528 -10.052   0.237  0.00  0.00    +0.158 HD
ENDROOT
BRANCH   3  15
ATOM     15  O   UNL     1       3.677 -10.812   0.469  0.00  0.00    -0.480 OA
ATOM     16  H   UNL     1       3.766 -11.900   0.603  0.00  0.00    +0.295 HD
ENDBRANCH   3  15
BRANCH   1  17
ATOM     17  C   UNL     1       5.527  -6.484  -0.255  0.00  0.00    +0.268 C 
BRANCH  17  18
ATOM     18  O   UNL     1       4.130  -6.096  -0.187  0.00  0.00    -0.459 OA
BRANCH  18  19
ATOM     19  C   UNL     1       3.852  -4.791  -0.334  0.00  0.00    +0.325 C 
ATOM     20  O   UNL     1       4.747  -3.999  -0.513  0.00  0.00    -0.249 OA
BRANCH  19  21
ATOM     21  C   UNL     1       2.424  -4.313  -0.275  0.00  0.00    +0.225 C 
BRANCH  21  24
ATOM     22  C   UNL     1       1.207  -2.209  -0.447  0.00  0.00    +0.245 C 
ATOM     23  O   UNL     1       0.173  -2.827  -0.279  0.00  0.00    -0.270 OA
ATOM     24  N   UNL     1       2.387  -2.861  -0.462  0.00  0.00    -0.301 N 
ATOM     25  H   UNL     1       3.322  -2.302  -0.615  0.00  0.00    +0.150 HD
BRANCH  22  29
ATOM     26  C   UNL     1       1.100   2.002  -0.988  0.00  0.00    +0.121 A 
ATOM     27  C   UNL     1      -0.083   1.297  -0.796  0.00  0.00    +0.046 A 
ATOM     28  C   UNL     1      -0.052  -0.068  -0.620  0.00  0.00    +0.016 A 
ATOM     29  C   UNL     1       1.170  -0.746  -0.635  0.00  0.00    +0.037 A 
ATOM     30  C   UNL     1       2.356  -0.034  -0.829  0.00  0.00    +0.016 A 
ATOM     31  C   UNL     1       2.317   1.331  -1.004  0.00  0.00    +0.046 A 
BRANCH  26  32
ATOM     32  O   UNL     1       1.065   3.347  -1.161  0.00  0.00    -0.492 OA
BRANCH  32  34
ATOM     33  C   UNL     1       2.079   5.510  -1.529  0.00  0.00    +0.048 C 
ATOM     34  C   UNL     1       2.317   4.009  -1.353  0.00  0.00    +0.225 C 
ENDBRANCH  32  34
ENDBRANCH  26  32
ENDBRANCH  22  29
ENDBRANCH  21  24
ENDBRANCH  19  21
ENDBRANCH  18  19
ENDBRANCH  17  18
ENDBRANCH   1  17
BRANCH  12  35
ATOM     35  O   UNL     1      11.915 -12.470  -0.579  0.00  0.00    -0.450 OA
BRANCH  35  36
ATOM     36  C   UNL     1      11.957 -13.809  -1.139  0.00  0.00    +0.230 C 
ATOM     37  C   UNL     1      13.359 -14.394  -0.961  0.00  0.00    +0.048 C 
ENDBRANCH  35  36
ENDBRANCH  12  35
TORSDOF 11
