REMARK  Name = ZINC38659514
REMARK  12 active torsions:
REMARK  status: ('A' for Active; 'I' for Inactive)
REMARK    1  A    between atoms: C_1  and  C_2
REMARK    2  A    between atoms: C_2  and  O_3
REMARK    3  A    between atoms: O_3  and  C_4
REMARK    4  A    between atoms: C_7  and  C_12
REMARK    5  A    between atoms: C_9  and  O_10
REMARK    6  A    between atoms: O_10  and  C_11
REMARK    7  A    between atoms: C_17  and  O_26
REMARK    8  A    between atoms: C_21  and  N_25
REMARK    9  A    between atoms: C_22  and  C_23
REMARK   10  A    between atoms: O_26  and  C_27
REMARK   11  A    between atoms: C_27  and  C_29
REMARK   12  A    between atoms: C_30  and  C_31
REMARK                            x       y       z     vdW  Elec       q    Type
REMARK                         _______ _______ _______ _____ _____    ______ ____
ROOT
ATOM      1  C   UNL     1      -2.028  -6.053   0.026  0.00  0.00    +0.098 C 
ATOM      2  C   UNL     1      -1.373  -6.648   1.244  0.00  0.00    +0.008 A 
ATOM      3  C   UNL     1      -1.954  -6.466   2.487  0.00  0.00    +0.012 A 
ATOM      4  C   UNL     1      -1.367  -7.004   3.615  0.00  0.00    +0.047 A 
ATOM      5  C   UNL     1      -0.190  -7.731   3.505  0.00  0.00    +0.135 A 
ATOM      6  C   UNL     1       0.395  -7.915   2.262  0.00  0.00    +0.093 A 
ATOM      7  C   UNL     1      -0.197  -7.372   1.129  0.00  0.00    +0.138 A 
ATOM      8  O   UNL     1       0.388  -7.561  -0.080  0.00  0.00    -0.441 OA
ATOM      9  C   UNL     1      -0.330  -7.399  -1.204  0.00  0.00    +0.199 C 
ATOM     10  C   UNL     1      -1.483  -6.694  -1.219  0.00  0.00    +0.098 C 
ENDROOT
BRANCH   1  14
ATOM     11  C   UNL     1      -1.246  -1.850  -0.090  0.00  0.00    +0.162 A 
ATOM     12  C   UNL     1      -0.196  -2.754  -0.119  0.00  0.00    +0.050 A 
ATOM     13  C   UNL     1      -0.452  -4.112  -0.081  0.00  0.00    +0.008 A 
ATOM     14  C   UNL     1      -1.755  -4.571  -0.015  0.00  0.00    -0.031 A 
ATOM     15  C   UNL     1      -2.807  -3.675   0.014  0.00  0.00    +0.054 A 
ATOM     16  C   UNL     1      -2.557  -2.312  -0.017  0.00  0.00    +0.162 A 
BRANCH  16  17
ATOM     17  O   UNL     1      -3.590  -1.429   0.017  0.00  0.00    -0.491 OA
ATOM     18  C   UNL     1      -4.908  -1.975   0.092  0.00  0.00    +0.277 C 
ENDBRANCH  16  17
BRANCH  11  19
ATOM     19  O   UNL     1      -0.996  -0.514  -0.127  0.00  0.00    -0.489 OA
BRANCH  19  21
ATOM     20  C   UNL     1       0.456   1.415  -0.234  0.00  0.00    +0.048 C 
ATOM     21  C   UNL     1       0.373  -0.112  -0.202  0.00  0.00    +0.226 C 
ENDBRANCH  19  21
ENDBRANCH  11  19
ENDBRANCH   1  14
BRANCH   9  22
ATOM     22  N   UNL     1       0.122  -7.964  -2.371  0.00  0.00    -0.328 N 
ATOM     23  H   UNL     1       0.948  -8.472  -2.375  0.00  0.00    +0.145 HD
ATOM     24  H   UNL     1      -0.385  -7.855  -3.190  0.00  0.00    +0.145 HD
ENDBRANCH   9  22
BRANCH  10  25
ATOM     25  C   UNL     1      -2.200  -6.557  -2.450  0.00  0.00    +0.101 C 
ATOM     26  N   UNL     1      -2.769  -6.448  -3.428  0.00  0.00    -0.191 NA
ENDBRANCH  10  25
BRANCH   5  27
ATOM     27  O   UNL     1       0.389  -8.262   4.614  0.00  0.00    -0.423 OA
BRANCH  27  28
ATOM     28  C   UNL     1      -0.240  -9.284   5.229  0.00  0.00    +0.337 C 
ATOM     29  O   UNL     1      -1.236  -9.773   4.732  0.00  0.00    -0.245 OA
BRANCH  28  30
ATOM     30  C   UNL     1       0.276  -9.805   6.494  0.00  0.00    +0.092 C 
ATOM     31  C   UNL     1      -0.353 -10.828   7.110  0.00  0.00    +0.016 C 
BRANCH  31  32
ATOM     32  C   UNL     1       0.166 -11.352   8.383  0.00  0.00    -0.006 A 
ATOM     33  C   UNL     1       1.308 -10.789   8.961  0.00  0.00    +0.009 A 
ATOM     34  C   UNL     1       1.788 -11.285  10.154  0.00  0.00    +0.001 A 
ATOM     35  C   UNL     1       1.144 -12.338  10.780  0.00  0.00    +0.001 A 
ATOM     36  C   UNL     1       0.014 -12.902  10.216  0.00  0.00    +0.020 A 
ATOM     37  C   UNL     1      -0.484 -12.412   9.024  0.00  0.00    +0.048 A 
ATOM     38 CL   UNL     1      -1.907 -13.115   8.321  0.00  0.00    -0.083 Cl
ENDBRANCH  31  32
ENDBRANCH  28  30
ENDBRANCH  27  28
ENDBRANCH   5  27
TORSDOF 10
