REMARK  Name = ZINC55000038
REMARK  11 active torsions:
REMARK  status: ('A' for Active; 'I' for Inactive)
REMARK    1  A    between atoms: C_1  and  C_2
REMARK    2  A    between atoms: C_2  and  C_4
REMARK    3  A    between atoms: C_2  and  N_9
REMARK    4  A    between atoms: N_9  and  C_10
REMARK    5  A    between atoms: C_13  and  C_19
REMARK    6  A    between atoms: C_14  and  C_16
REMARK    7  A    between atoms: C_16  and  N_17
REMARK    8  A    between atoms: N_17  and  C_18
REMARK    9  A    between atoms: C_19  and  C_20
REMARK   10  A    between atoms: C_19  and  C_21
REMARK   11  A    between atoms: C_19  and  C_22
REMARK                            x       y       z     vdW  Elec       q    Type
REMARK                         _______ _______ _______ _____ _____    ______ ____
ROOT
ATOM      1  N   UNL     1       0.526  -0.413   2.053  0.00  0.00    -0.305 N 
ATOM      2  C   UNL     1       0.486   0.118   3.417  0.00  0.00    +0.132 C 
ATOM      3  C   UNL     1       1.543  -1.274   1.673  0.00  0.00    +0.161 A 
ATOM      4  N   UNL     1       2.546  -1.725   2.396  0.00  0.00    -0.229 NA
ATOM      5  C   UNL     1       3.442  -2.549   1.882  0.00  0.00    +0.057 A 
ATOM      6  C   UNL     1       3.279  -2.904   0.585  0.00  0.00    -0.002 A 
ATOM      7  S   UNL     1       1.793  -2.003   0.176  0.00  0.00    -0.059 S 
ENDROOT
BRANCH   5   8
ATOM      8  C   UNL     1       4.594  -3.070   2.702  0.00  0.00    +0.005 C 
ATOM      9  C   UNL     1       4.430  -2.622   4.155  0.00  0.00    +0.017 C 
ATOM     10  C   UNL     1       4.614  -4.599   2.639  0.00  0.00    +0.017 C 
ATOM     11  C   UNL     1       5.908  -2.520   2.143  0.00  0.00    +0.017 C 
ENDBRANCH   5   8
BRANCH   1  13
ATOM     12  C   UNL     1      -0.497   1.484   0.896  0.00  0.00    +0.033 C 
ATOM     13  C   UNL     1      -0.511  -0.034   1.089  0.00  0.00    +0.109 C 
BRANCH  13  14
ATOM     14  C   UNL     1      -1.859  -0.462   1.607  0.00  0.00    +0.010 A 
ATOM     15  C   UNL     1      -2.901  -1.004   0.931  0.00  0.00    +0.013 A 
ATOM     16  C   UNL     1      -4.056  -1.323   1.621  0.00  0.00    +0.008 A 
ATOM     17  C   UNL     1      -4.112  -1.084   2.954  0.00  0.00    +0.045 A 
ATOM     18  S   UNL     1      -2.497  -0.393   3.274  0.00  0.00    -0.100 S 
ENDBRANCH  13  14
ENDBRANCH   1  13
BRANCH   6  19
ATOM     19  C   UNL     1       4.119  -3.812  -0.276  0.00  0.00    -0.038 C 
BRANCH  19  20
ATOM     20  N   UNL     1       3.519  -5.153  -0.302  0.00  0.00    +0.380 N 
ATOM     21  C   UNL     1       4.411  -6.074  -1.021  0.00  0.00    -0.100 C 
ATOM     22  H   UNL     1       3.387  -5.481   0.642  0.00  0.00    -0.086 HD
ATOM     23  H   UNL     1       2.627  -5.113  -0.772  0.00  0.00    -0.086 HD
ENDBRANCH  19  20
ENDBRANCH   6  19
TORSDOF 5
