REMARK  Name = ZINC09516675
REMARK  11 active torsions:
REMARK  status: ('A' for Active; 'I' for Inactive)
REMARK    1  A    between atoms: C_1  and  C_2
REMARK    2  A    between atoms: C_2  and  C_4
REMARK    3  A    between atoms: C_2  and  N_60
REMARK    4  A    between atoms: C_7  and  S_10
REMARK    5  A    between atoms: S_10  and  C_13
REMARK    6  A    between atoms: C_14  and  C_15
REMARK    7  A    between atoms: C_14  and  N_60
REMARK    8  A    between atoms: C_18  and  C_31
REMARK    9  A    between atoms: C_21  and  C_23
REMARK   10  A    between atoms: C_26  and  O_29
REMARK   11  A    between atoms: O_29  and  C_30
REMARK                            x       y       z     vdW  Elec       q    Type
REMARK                         _______ _______ _______ _____ _____    ______ ____
ROOT
ATOM      1  C   UNL     1      -0.589   2.596  -3.534  0.00  0.00    +0.218 C 
ATOM      2  O   UNL     1      -1.768   2.860  -3.436  0.00  0.00    -0.276 OA
ATOM      3  N   UNL     1       0.040   2.751  -4.716  0.00  0.00    -0.184 N 
ATOM      4  C   UNL     1      -0.583   3.225  -5.962  0.00  0.00    +0.172 C 
ATOM      5  C   UNL     1       0.578   3.212  -6.976  0.00  0.00    +0.090 C 
ATOM      6  C   UNL     1       1.757   2.711  -6.172  0.00  0.00    +0.069 C 
ATOM      7  N   UNL     1       1.386   2.484  -4.960  0.00  0.00    -0.181 NA
ENDROOT
BRANCH   6   8
ATOM      8  C   UNL     1       3.121   2.513  -6.696  0.00  0.00    -0.002 A 
ATOM      9  C   UNL     1       3.404   2.790  -8.036  0.00  0.00    +0.013 A 
ATOM     10  C   UNL     1       4.681   2.608  -8.520  0.00  0.00    +0.046 A 
ATOM     11  C   UNL     1       5.684   2.140  -7.681  0.00  0.00    +0.120 A 
ATOM     12  C   UNL     1       5.406   1.859  -6.349  0.00  0.00    +0.046 A 
ATOM     13  C   UNL     1       4.133   2.043  -5.855  0.00  0.00    +0.013 A 
BRANCH  11  14
ATOM     14  O   UNL     1       6.941   1.957  -8.163  0.00  0.00    -0.495 OA
ATOM     15  C   UNL     1       7.157   2.266  -9.542  0.00  0.00    +0.277 C 
ENDBRANCH  11  14
ENDBRANCH   6   8
BRANCH   4  16
ATOM     16  C   UNL     1      -1.118   4.623  -5.789  0.00  0.00    +0.128 A 
ATOM     17  C   UNL     1      -2.267   5.096  -6.305  0.00  0.00    +0.046 A 
ATOM     18  C   UNL     1      -2.374   6.445  -5.897  0.00  0.00    +0.041 A 
ATOM     19  C   UNL     1      -1.285   6.716  -5.156  0.00  0.00    +0.195 A 
ATOM     20  O   UNL     1      -0.530   5.608  -5.090  0.00  0.00    -0.466 OA
ENDBRANCH   4  16
BRANCH   1  21
ATOM     21  C   UNL     1       0.174   2.094  -2.335  0.00  0.00    +0.018 C 
BRANCH  21  22
ATOM     22  N   UNL     1      -0.740   2.015  -1.180  0.00  0.00    +0.389 N 
ATOM     23  H   UNL     1      -1.121   2.948  -0.985  0.00  0.00    -0.084 HD
ATOM     24  H   UNL     1      -1.508   1.370  -1.399  0.00  0.00    -0.084 HD
BRANCH  22  26
ATOM     25  C   UNL     1       0.002  -0.004   0.002  0.00  0.00    -0.009 C 
ATOM     26  C   UNL     1      -0.019   1.526   0.010  0.00  0.00    -0.043 C 
BRANCH  26  27
ATOM     27  C   UNL     1      -0.724   2.012   1.250  0.00  0.00    -0.062 A 
ATOM     28  C   UNL     1      -2.106   2.033   1.296  0.00  0.00    +0.004 A 
ATOM     29  C   UNL     1      -2.752   2.474   2.436  0.00  0.00    +0.027 A 
ATOM     30  C   UNL     1      -2.018   2.904   3.525  0.00  0.00    +0.088 A 
ATOM     31  C   UNL     1      -0.637   2.888   3.477  0.00  0.00    +0.027 A 
ATOM     32  C   UNL     1       0.010   2.442   2.340  0.00  0.00    +0.004 A 
BRANCH  30  33
ATOM     33  S   UNL     1      -2.843   3.472   4.974  0.00  0.00    -0.006 S 
ATOM     34  O   UNL     1      -4.102   2.814   4.957  0.00  0.00    -0.170 OA
ATOM     35  O   UNL     1      -1.920   3.242   6.030  0.00  0.00    -0.170 OA
ATOM     36  C   UNL     1      -3.065   5.254   4.716  0.00  0.00    +0.200 C 
ENDBRANCH  30  33
ENDBRANCH  26  27
ENDBRANCH  22  26
ENDBRANCH  21  22
ENDBRANCH   1  21
TORSDOF 8
