REMARK  Name = ZINC36645532
REMARK  11 active torsions:
REMARK  status: ('A' for Active; 'I' for Inactive)
REMARK    1  A    between atoms: C_1  and  C_2
REMARK    2  A    between atoms: C_7  and  C_8
REMARK    3  A    between atoms: N_12  and  C_13
REMARK    4  A    between atoms: C_13  and  C_14
REMARK    5  A    between atoms: C_14  and  C_15
REMARK    6  A    between atoms: C_15  and  N_16
REMARK    7  A    between atoms: N_16  and  C_17
REMARK    8  A    between atoms: N_16  and  C_18
REMARK    9  A    between atoms: C_19  and  C_21
REMARK   10  A    between atoms: C_24  and  N_30
REMARK   11  A    between atoms: C_25  and  N_27
REMARK                            x       y       z     vdW  Elec       q    Type
REMARK                         _______ _______ _______ _____ _____    ______ ____
ROOT
ATOM      1  C   UNL     1       1.174   1.800   1.164  0.00  0.00    +0.044 C 
ATOM      2  C   UNL     1       0.904   0.333   0.954  0.00  0.00    -0.045 A 
ATOM      3  C   UNL     1       0.821  -0.162  -0.340  0.00  0.00    +0.005 A 
ATOM      4  C   UNL     1       0.573  -1.508  -0.535  0.00  0.00    +0.017 A 
ATOM      5  C   UNL     1       0.413  -2.332   0.551  0.00  0.00    +0.041 A 
ATOM      6  C   UNL     1       0.491  -1.864   1.882  0.00  0.00    +0.083 A 
ATOM      7  C   UNL     1       0.751  -0.483   2.044  0.00  0.00    -0.021 A 
ATOM      8  C   UNL     1       0.856   0.098   3.430  0.00  0.00    +0.046 C 
ATOM      9  N   UNL     1       0.312  -2.797   2.842  0.00  0.00    -0.224 NA
ATOM     10  C   UNL     1       0.080  -4.059   2.565  0.00  0.00    +0.168 A 
ATOM     11  S   UNL     1       0.090  -4.065   0.778  0.00  0.00    -0.052 S 
ATOM     12  N   UNL     1      -0.121  -5.116   3.436  0.00  0.00    -0.246 N 
ATOM     13  C   UNL     1      -0.091  -4.908   4.767  0.00  0.00    +0.252 C 
ATOM     14  O   UNL     1       0.039  -3.780   5.203  0.00  0.00    -0.270 OA
ENDROOT
BRANCH  13  15
ATOM     15  C   UNL     1      -0.216  -6.048   5.694  0.00  0.00    +0.040 A 
ATOM     16  C   UNL     1       0.425  -7.257   5.409  0.00  0.00    +0.015 A 
ATOM     17  C   UNL     1       0.306  -8.318   6.276  0.00  0.00    +0.026 A 
ATOM     18  C   UNL     1      -0.451  -8.189   7.438  0.00  0.00    +0.060 A 
ATOM     19  C   UNL     1      -1.090  -6.986   7.725  0.00  0.00    +0.148 A 
ATOM     20  C   UNL     1      -0.972  -5.919   6.864  0.00  0.00    +0.047 A 
BRANCH  18  21
ATOM     21  N   UNL     1      -0.569  -9.263   8.312  0.00  0.00    -0.324 N 
ATOM     22  C   UNL     1      -1.653 -10.247   8.162  0.00  0.00    +0.133 C 
ATOM     23  C   UNL     1      -1.037 -11.651   8.175  0.00  0.00    +0.178 C 
ATOM     24  O   UNL     1      -0.209 -11.791   9.332  0.00  0.00    -0.377 OA
ATOM     25  C   UNL     1       0.903 -10.893   9.368  0.00  0.00    +0.178 C 
ATOM     26  C   UNL     1       0.390  -9.454   9.412  0.00  0.00    +0.133 C 
ENDBRANCH  18  21
BRANCH  19  27
ATOM     27  N   UNL     1      -1.894  -6.853   8.960  0.00  0.00    +0.058 N 
ATOM     28  O   UNL     1      -2.450  -5.809   9.210  0.00  0.00    -0.126 OA
ATOM     29  O   UNL     1      -1.995  -7.789   9.720  0.00  0.00    -0.126 OA
ENDBRANCH  19  27
ENDBRANCH  13  15
BRANCH  12  30
ATOM     30  C   UNL     1      -0.367  -6.461   2.910  0.00  0.00    +0.114 C 
BRANCH  30  31
ATOM     31  C   UNL     1       0.938  -7.040   2.360  0.00  0.00    +0.001 C 
BRANCH  31  32
ATOM     32  C   UNL     1       0.717  -8.498   1.950  0.00  0.00    -0.078 C 
BRANCH  32  33
ATOM     33  N   UNL     1       1.970  -9.053   1.422  0.00  0.00    +0.376 N 
ATOM     34  C   UNL     1       1.791 -10.484   1.141  0.00  0.00    -0.097 C 
ATOM     35  C   UNL     1       2.333  -8.352   0.183  0.00  0.00    -0.097 C 
ATOM     36  H   UNL     1       2.704  -8.934   2.103  0.00  0.00    -0.083 HD
ENDBRANCH  32  33
ENDBRANCH  31  32
ENDBRANCH  30  31
ENDBRANCH  12  30
TORSDOF 7
