REMARK  Name = ZINC16791619
REMARK  8 active torsions:
REMARK  status: ('A' for Active; 'I' for Inactive)
REMARK    1  A    between atoms: C_1  and  C_2
REMARK    2  A    between atoms: C_2  and  C_4
REMARK    3  A    between atoms: C_2  and  S_16
REMARK    4  A    between atoms: N_6  and  C_7
REMARK    5  A    between atoms: N_6  and  C_8
REMARK    6  A    between atoms: S_16  and  C_17
REMARK    7  A    between atoms: N_27  and  C_28
REMARK    8  A    between atoms: C_28  and  C_29
REMARK                            x       y       z     vdW  Elec       q    Type
REMARK                         _______ _______ _______ _____ _____    ______ ____
ROOT
ATOM      1  C   UNL     1       2.540  -6.751   1.975  0.00  0.00    +0.173 A 
ATOM      2  N   UNL     1       2.259  -6.975   0.715  0.00  0.00    -0.223 NA
ATOM      3  C   UNL     1       2.424  -8.193   0.161  0.00  0.00    +0.079 A 
ATOM      4  C   UNL     1       2.124  -8.433  -1.183  0.00  0.00    +0.028 A 
ATOM      5  C   UNL     1       2.305  -9.683  -1.704  0.00  0.00    +0.002 A 
ATOM      6  C   UNL     1       2.785 -10.722  -0.917  0.00  0.00    +0.001 A 
ATOM      7  C   UNL     1       3.088 -10.519   0.401  0.00  0.00    +0.015 A 
ATOM      8  C   UNL     1       2.912  -9.253   0.958  0.00  0.00    +0.065 A 
ATOM      9  C   UNL     1       3.220  -8.977   2.368  0.00  0.00    +0.262 A 
ATOM     10  O   UNL     1       3.643  -9.848   3.104  0.00  0.00    -0.267 OA
ATOM     11  N   UNL     1       3.021  -7.715   2.815  0.00  0.00    -0.285 N 
ENDROOT
BRANCH   1  12
ATOM     12  S   UNL     1       2.294  -5.127   2.614  0.00  0.00    -0.075 S 
BRANCH  12  14
ATOM     13  C   UNL     1       0.332  -4.897   0.728  0.00  0.00    +0.029 C 
ATOM     14  C   UNL     1       1.679  -4.295   1.129  0.00  0.00    +0.137 C 
BRANCH  14  15
ATOM     15  C   UNL     1       1.509  -2.825   1.412  0.00  0.00    +0.229 C 
ATOM     16  O   UNL     1       1.418  -2.434   2.556  0.00  0.00    -0.274 OA
ATOM     17  N   UNL     1       1.457  -1.944   0.393  0.00  0.00    -0.299 N 
ATOM     18  C   UNL     1       1.567  -2.416  -0.990  0.00  0.00    +0.132 C 
BRANCH  17  19
ATOM     19  C   UNL     1       1.291  -0.515   0.668  0.00  0.00    +0.098 C 
ATOM     20  C   UNL     1       0.002  -0.004   0.002  0.00  0.00    +0.046 C 
ATOM     21  C   UNL     1      -0.019   1.544   0.011  0.00  0.00    +0.168 C 
ATOM     22  S   UNL     1       1.770   1.972  -0.004  0.00  0.00    -0.029 S 
ATOM     23  O   UNL     1       2.095   2.556  -1.258  0.00  0.00    -0.174 OA
ATOM     24  O   UNL     1       2.089   2.665   1.194  0.00  0.00    -0.174 OA
ATOM     25  C   UNL     1       2.490   0.278   0.073  0.00  0.00    +0.188 C 
ENDBRANCH  17  19
ENDBRANCH  14  15
ENDBRANCH  12  14
ENDBRANCH   1  12
BRANCH  11  26
ATOM     26  C   UNL     1       3.317  -7.382   4.210  0.00  0.00    +0.159 C 
BRANCH  26  27
ATOM     27  C   UNL     1       2.071  -7.617   5.066  0.00  0.00    +0.138 C 
ATOM     28  C   UNL     1       2.338  -7.160   6.517  0.00  0.00    +0.035 C 
ATOM     29  C   UNL     1       1.617  -8.258   7.346  0.00  0.00    +0.031 C 
ATOM     30  C   UNL     1       1.848  -9.502   6.451  0.00  0.00    +0.160 C 
ATOM     31  O   UNL     1       1.762  -9.015   5.103  0.00  0.00    -0.375 OA
ENDBRANCH  26  27
ENDBRANCH  11  26
TORSDOF 6
