REMARK  Name = ZINC09543243
REMARK  8 active torsions:
REMARK  status: ('A' for Active; 'I' for Inactive)
REMARK    1  A    between atoms: C_1  and  C_2
REMARK    2  A    between atoms: C_2  and  O_3
REMARK    3  A    between atoms: O_3  and  C_4
REMARK    4  A    between atoms: C_9  and  C_10
REMARK    5  A    between atoms: C_12  and  C_24
REMARK    6  A    between atoms: C_15  and  C_17
REMARK    7  A    between atoms: C_20  and  C_23
REMARK    8  A    between atoms: C_29  and  O_30
REMARK                            x       y       z     vdW  Elec       q    Type
REMARK                         _______ _______ _______ _____ _____    ______ ____
ROOT
ATOM      1  C   UNL     1      -2.029   0.924   1.322  0.00  0.00    +0.084 C 
ATOM      2  C   UNL     1      -0.013   1.086   0.008  0.00  0.00    -0.028 C 
ATOM      3  C   UNL     1      -0.766   1.599  -1.223  0.00  0.00    +0.044 C 
ATOM      4  C   UNL     1      -2.238   1.342  -1.052  0.00  0.00    +0.040 C 
ATOM      5  N   UNL     1      -2.771   1.052   0.074  0.00  0.00    -0.298 NA
ATOM      6  N   UNL     1      -0.712   1.570   1.214  0.00  0.00    +0.401 N 
ATOM      7  H   UNL     1      -0.153   1.345   2.045  0.00  0.00    -0.081 HD
ATOM      8  H   UNL     1      -0.836   2.587   1.150  0.00  0.00    -0.081 HD
ENDROOT
BRANCH   4   9
ATOM      9  C   UNL     1      -3.109   1.428  -2.241  0.00  0.00    -0.004 A 
ATOM     10  C   UNL     1      -2.566   1.748  -3.487  0.00  0.00    +0.010 A 
ATOM     11  C   UNL     1      -3.384   1.821  -4.595  0.00  0.00    +0.004 A 
ATOM     12  C   UNL     1      -4.743   1.589  -4.472  0.00  0.00    -0.050 A 
ATOM     13  C   UNL     1      -5.289   1.277  -3.239  0.00  0.00    +0.004 A 
ATOM     14  C   UNL     1      -4.481   1.195  -2.124  0.00  0.00    +0.010 A 
ATOM     15  C   UNL     1      -5.632   1.678  -5.685  0.00  0.00    +0.044 C 
ENDBRANCH   4   9
BRANCH   2  16
ATOM     16  C   UNL     1       1.399   1.613  -0.003  0.00  0.00    -0.018 A 
ATOM     17  C   UNL     1       1.733   2.710   0.769  0.00  0.00    +0.020 A 
ATOM     18  C   UNL     1       3.028   3.195   0.760  0.00  0.00    +0.018 A 
ATOM     19  C   UNL     1       3.992   2.583  -0.022  0.00  0.00    +0.019 A 
ATOM     20  C   UNL     1       3.662   1.487  -0.796  0.00  0.00    +0.047 A 
ATOM     21  C   UNL     1       2.365   0.995  -0.783  0.00  0.00    +0.119 A 
ATOM     22 BR   UNL     1       3.483   4.695   1.817  0.00  0.00    -0.050 Br
BRANCH  21  23
ATOM     23  O   UNL     1       2.040  -0.087  -1.538  0.00  0.00    -0.507 OA
ATOM     24  H   UNL     1       1.741   0.132  -2.431  0.00  0.00    +0.292 HD
ENDBRANCH  21  23
ENDBRANCH   2  16
BRANCH   1  30
ATOM     25  C   UNL     1      -4.196   1.545   2.420  0.00  0.00    +0.124 A 
ATOM     26  C   UNL     1      -4.912   2.148   3.443  0.00  0.00    +0.046 A 
ATOM     27  C   UNL     1      -4.243   2.781   4.472  0.00  0.00    +0.004 A 
ATOM     28  C   UNL     1      -2.860   2.814   4.483  0.00  0.00    +0.000 A 
ATOM     29  C   UNL     1      -2.145   2.209   3.466  0.00  0.00    +0.007 A 
ATOM     30  C   UNL     1      -2.810   1.579   2.432  0.00  0.00    +0.001 A 
BRANCH  25  31
ATOM     31  O   UNL     1      -4.853   0.921   1.406  0.00  0.00    -0.492 OA
BRANCH  31  33
ATOM     32  C   UNL     1      -6.838   0.182   0.242  0.00  0.00    +0.048 C 
ATOM     33  C   UNL     1      -6.281   0.925   1.458  0.00  0.00    +0.225 C 
ENDBRANCH  31  33
ENDBRANCH  25  31
ENDBRANCH   1  30
TORSDOF 6
