REMARK  Name = ZINC20342945
REMARK  7 active torsions:
REMARK  status: ('A' for Active; 'I' for Inactive)
REMARK    1  A    between atoms: C_1  and  C_2
REMARK    2  A    between atoms: C_7  and  C_9
REMARK    3  A    between atoms: C_7  and  C_10
REMARK    4  A    between atoms: N_11  and  C_13
REMARK    5  A    between atoms: C_13  and  C_14
REMARK    6  A    between atoms: N_16  and  C_17
REMARK    7  A    between atoms: C_20  and  C_23
REMARK                            x       y       z     vdW  Elec       q    Type
REMARK                         _______ _______ _______ _____ _____    ______ ____
ROOT
ATOM      1  C   UNL     1       0.583  -2.829  -2.171  0.00  0.00    +0.019 C 
ENDROOT
BRANCH   1  11
ATOM      2  C   UNL     1      -0.027   1.542  -0.006  0.00  0.00    +0.009 C 
ATOM      3  C   UNL     1       0.002   0.006  -0.006  0.00  0.00    -0.048 C 
ATOM      4  C   UNL     1      -1.423  -0.612   0.005  0.00  0.00    -0.011 C 
ATOM      5  C   UNL     1      -1.093  -2.017  -0.574  0.00  0.00    -0.067 C 
ATOM      6  C   UNL     1      -0.381  -2.807   0.507  0.00  0.00    -0.009 C 
ATOM      7  C   UNL     1       0.679  -2.082   1.307  0.00  0.00    -0.036 C 
ATOM      8  C   UNL     1       0.735  -0.571   1.205  0.00  0.00    +0.011 C 
ATOM      9  C   UNL     1       0.436  -2.426   2.800  0.00  0.00    +0.011 C 
ATOM     10  C   UNL     1       2.064  -2.661   0.961  0.00  0.00    +0.011 C 
ATOM     11  N   UNL     1      -0.210  -1.695  -1.713  0.00  0.00    +0.388 N 
ATOM     12  C   UNL     1       0.644  -0.570  -1.289  0.00  0.00    -0.071 C 
ATOM     13  H   UNL     1      -0.793  -1.372  -2.488  0.00  0.00    -0.081 HD
ENDBRANCH   1  11
BRANCH   1  14
ATOM     14  C   UNL     1       1.355  -2.437  -3.404  0.00  0.00    +0.201 C 
ATOM     15  O   UNL     1       1.250  -1.315  -3.854  0.00  0.00    -0.278 OA
ATOM     16  N   UNL     1       2.162  -3.332  -4.008  0.00  0.00    -0.287 N 
ATOM     17  H   UNL     1       2.299  -4.206  -3.611  0.00  0.00    +0.155 HD
BRANCH  16  18
ATOM     18  C   UNL     1       2.801  -3.000  -5.201  0.00  0.00    +0.033 A 
ATOM     19  C   UNL     1       3.244  -1.698  -5.412  0.00  0.00    +0.024 A 
ATOM     20  C   UNL     1       3.874  -1.368  -6.585  0.00  0.00    +0.017 A 
ATOM     21  C   UNL     1       4.070  -2.343  -7.569  0.00  0.00    +0.063 A 
ATOM     22  C   UNL     1       3.624  -3.651  -7.353  0.00  0.00    +0.017 A 
ATOM     23  C   UNL     1       3.000  -3.974  -6.175  0.00  0.00    +0.024 A 
BRANCH  21  24
ATOM     24  C   UNL     1       4.745  -1.992  -8.830  0.00  0.00    +0.387 C 
ATOM     25  O   UNL     1       5.135  -0.848  -9.018  0.00  0.00    -0.241 OA
ATOM     26  O   UNL     1       4.916  -2.846  -9.690  0.00  0.00    -0.241 OA
ENDBRANCH  21  24
ENDBRANCH  16  18
ENDBRANCH   1  14
TORSDOF 4
