REMARK  Name = ZINC24499088
REMARK  8 active torsions:
REMARK  status: ('A' for Active; 'I' for Inactive)
REMARK    1  A    between atoms: C_1  and  C_2
REMARK    2  A    between atoms: C_2  and  O_3
REMARK    3  A    between atoms: O_3  and  C_4
REMARK    4  A    between atoms: C_7  and  S_10
REMARK    5  A    between atoms: S_10  and  N_13
REMARK    6  A    between atoms: N_13  and  C_14
REMARK    7  A    between atoms: C_17  and  C_20
REMARK    8  A    between atoms: C_26  and  C_28
REMARK                            x       y       z     vdW  Elec       q    Type
REMARK                         _______ _______ _______ _____ _____    ______ ____
ROOT
ATOM      1  C   UNL     1       7.311  -4.279  -4.827  0.00  0.00    +0.048 A 
ATOM      2  C   UNL     1       6.486  -3.414  -5.541  0.00  0.00    +0.025 A 
ATOM      3  C   UNL     1       5.742  -2.466  -4.878  0.00  0.00    +0.015 A 
ATOM      4  C   UNL     1       5.814  -2.372  -3.485  0.00  0.00    +0.037 A 
ATOM      5  C   UNL     1       6.647  -3.238  -2.771  0.00  0.00    +0.015 A 
ATOM      6  C   UNL     1       7.385  -4.188  -3.439  0.00  0.00    +0.025 A 
ENDROOT
BRANCH   4   7
ATOM      7  C   UNL     1       5.018  -1.356  -2.770  0.00  0.00    +0.247 C 
ATOM      8  O   UNL     1       5.405  -0.920  -1.703  0.00  0.00    -0.270 OA
ATOM      9  N   UNL     1       3.862  -0.911  -3.300  0.00  0.00    -0.287 N 
ATOM     10  C   UNL     1       3.312  -1.298  -4.612  0.00  0.00    +0.109 C 
ATOM     11  C   UNL     1       1.787  -1.056  -4.492  0.00  0.00    +0.021 C 
ATOM     12  C   UNL     1       1.745   0.231  -3.625  0.00  0.00    +0.032 C 
ATOM     13  C   UNL     1       2.938   0.041  -2.666  0.00  0.00    +0.145 C 
BRANCH  13  14
ATOM     14  C   UNL     1       3.633   1.360  -2.445  0.00  0.00    +0.158 A 
ATOM     15  N   UNL     1       4.388   1.990  -3.308  0.00  0.00    -0.132 NA
ATOM     16  N   UNL     1       4.825   3.089  -2.800  0.00  0.00    -0.129 NA
ATOM     17  C   UNL     1       4.364   3.219  -1.567  0.00  0.00    +0.161 A 
ATOM     18  N   UNL     1       3.591   2.113  -1.313  0.00  0.00    -0.285 N 
ATOM     19  C   UNL     1       2.974   1.963  -0.105  0.00  0.00    +0.094 A 
ATOM     20  C   UNL     1       3.115   2.898   0.857  0.00  0.00    +0.018 A 
ATOM     21  C   UNL     1       3.901   4.041   0.627  0.00  0.00    +0.005 A 
ATOM     22  C   UNL     1       4.521   4.204  -0.573  0.00  0.00    +0.048 A 
ENDBRANCH  13  14
ENDBRANCH   4   7
BRANCH   1  23
ATOM     23  N   UNL     1       8.062  -5.236  -5.500  0.00  0.00    -0.216 N 
ATOM     24  H   UNL     1       7.760  -6.293  -5.470  0.00  0.00    +0.174 HD
BRANCH  23  25
ATOM     25  S   UNL     1       9.411  -4.784  -6.347  0.00  0.00    +0.072 S 
ATOM     26  O   UNL     1       9.949  -5.969  -6.918  0.00  0.00    -0.150 OA
ATOM     27  O   UNL     1       9.040  -3.661  -7.133  0.00  0.00    -0.150 OA
BRANCH  25  31
ATOM     28  C   UNL     1      12.451  -3.306  -3.333  0.00  0.00    +0.121 A 
ATOM     29  C   UNL     1      12.483  -4.624  -3.763  0.00  0.00    +0.047 A 
ATOM     30  C   UNL     1      11.555  -5.073  -4.683  0.00  0.00    +0.032 A 
ATOM     31  C   UNL     1      10.594  -4.209  -5.174  0.00  0.00    +0.109 A 
ATOM     32  C   UNL     1      10.563  -2.893  -4.752  0.00  0.00    +0.032 A 
ATOM     33  C   UNL     1      11.486  -2.441  -3.828  0.00  0.00    +0.047 A 
BRANCH  28  34
ATOM     34  O   UNL     1      13.363  -2.862  -2.429  0.00  0.00    -0.492 OA
BRANCH  34  36
ATOM     35  C   UNL     1      14.371  -1.179  -1.016  0.00  0.00    +0.048 C 
ATOM     36  C   UNL     1      13.269  -1.492  -2.031  0.00  0.00    +0.225 C 
ENDBRANCH  34  36
ENDBRANCH  28  34
ENDBRANCH  25  31
ENDBRANCH  23  25
ENDBRANCH   1  23
TORSDOF 7
