REMARK  Name = ZINC35226512
REMARK  10 active torsions:
REMARK  status: ('A' for Active; 'I' for Inactive)
REMARK    1  A    between atoms: C_1  and  C_2
REMARK    2  A    between atoms: C_7  and  C_10
REMARK    3  A    between atoms: C_11  and  C_13
REMARK    4  A    between atoms: C_16  and  C_18
REMARK    5  A    between atoms: C_18  and  N_19
REMARK    6  A    between atoms: N_19  and  C_20
REMARK    7  A    between atoms: N_19  and  C_28
REMARK    8  A    between atoms: C_20  and  C_21
REMARK    9  A    between atoms: C_28  and  C_29
REMARK   10  A    between atoms: C_28  and  C_30
REMARK                            x       y       z     vdW  Elec       q    Type
REMARK                         _______ _______ _______ _____ _____    ______ ____
ROOT
ATOM      1  C   UNL     1      -0.866  -2.848   0.415  0.00  0.00    +0.190 A 
ATOM      2  C   UNL     1      -1.395  -3.455  -0.687  0.00  0.00    +0.055 A 
ATOM      3  C   UNL     1      -1.375  -4.836  -0.436  0.00  0.00    +0.043 A 
ATOM      4  C   UNL     1      -0.841  -5.009   0.793  0.00  0.00    +0.090 A 
ATOM      5  O   UNL     1      -0.531  -3.809   1.301  0.00  0.00    -0.457 OA
ENDROOT
BRANCH   1  14
ATOM      6  C   UNL     1      -0.586  -1.994   5.410  0.00  0.00    +0.039 C 
ATOM      7  C   UNL     1      -0.885  -1.195   4.140  0.00  0.00    +0.133 C 
ATOM      8  C   UNL     1      -0.131  -1.813   2.957  0.00  0.00    +0.139 C 
ATOM      9  N   UNL     1      -0.283  -0.924   1.795  0.00  0.00    -0.290 N 
ATOM     10  C   UNL     1       0.018   0.505   1.973  0.00  0.00    +0.139 C 
ATOM     11  C   UNL     1      -0.743   1.010   3.204  0.00  0.00    +0.133 C 
ATOM     12  O   UNL     1      -0.460   0.158   4.316  0.00  0.00    -0.371 OA
ATOM     13  C   UNL     1      -0.302   2.439   3.527  0.00  0.00    +0.039 C 
ATOM     14  C   UNL     1      -0.688  -1.404   0.602  0.00  0.00    +0.282 C 
ATOM     15  O   UNL     1      -0.904  -0.640  -0.320  0.00  0.00    -0.267 OA
ENDBRANCH   1  14
BRANCH   4  16
ATOM     16  C   UNL     1      -0.625  -6.334   1.477  0.00  0.00    -0.002 C 
BRANCH  16  17
ATOM     17  N   UNL     1       0.761  -6.774   1.267  0.00  0.00    +0.389 N 
ATOM     18  H   UNL     1       1.394  -6.071   1.618  0.00  0.00    -0.080 HD
BRANCH  17  19
ATOM     19  C   UNL     1       0.999  -6.974  -0.169  0.00  0.00    -0.074 C 
ATOM     20  C   UNL     1       2.461  -7.364  -0.394  0.00  0.00    -0.013 C 
ATOM     21  C   UNL     1       0.088  -8.089  -0.686  0.00  0.00    -0.013 C 
ENDBRANCH  17  19
BRANCH  17  22
ATOM     22  C   UNL     1       0.988  -8.037   1.981  0.00  0.00    -0.041 C 
BRANCH  22  23
ATOM     23  C   UNL     1       2.455  -8.379   1.945  0.00  0.00    -0.046 A 
ATOM     24  C   UNL     1       2.869  -9.597   1.442  0.00  0.00    +0.003 A 
ATOM     25  C   UNL     1       4.215  -9.910   1.409  0.00  0.00    +0.000 A 
ATOM     26  C   UNL     1       5.148  -9.005   1.879  0.00  0.00    +0.001 A 
ATOM     27  C   UNL     1       4.735  -7.786   2.383  0.00  0.00    +0.020 A 
ATOM     28  C   UNL     1       3.388  -7.470   2.411  0.00  0.00    +0.042 A 
ATOM     29 CL   UNL     1       2.869  -5.936   3.038  0.00  0.00    -0.083 Cl
ENDBRANCH  22  23
ENDBRANCH  17  22
ENDBRANCH  16  17
ENDBRANCH   4  16
TORSDOF 6
