REMARK  Name = ZINC38681138
REMARK  4 active torsions:
REMARK  status: ('A' for Active; 'I' for Inactive)
REMARK    1  A    between atoms: C_3  and  N_24
REMARK    2  A    between atoms: C_6  and  C_7
REMARK    3  A    between atoms: C_7  and  C_8
REMARK    4  A    between atoms: N_10  and  C_11
REMARK                            x       y       z     vdW  Elec       q    Type
REMARK                         _______ _______ _______ _____ _____    ______ ____
ROOT
ATOM      1  C   UNL     1      -2.166  -0.597  -1.348  0.00  0.00    +0.222 C 
ATOM      2  O   UNL     1      -1.891   0.201  -2.219  0.00  0.00    -0.275 OA
ATOM      3  N   UNL     1      -2.878  -1.701  -1.647  0.00  0.00    -0.285 N 
ATOM      4  H   UNL     1      -3.043  -2.372  -0.965  0.00  0.00    +0.155 HD
ENDROOT
BRANCH   3   5
ATOM      5  C   UNL     1      -3.381  -1.881  -2.942  0.00  0.00    +0.034 A 
ATOM      6  C   UNL     1      -4.619  -2.500  -3.102  0.00  0.00    +0.028 A 
ATOM      7  C   UNL     1      -5.147  -2.696  -4.355  0.00  0.00    -0.024 A 
ATOM      8  C   UNL     1      -4.388  -2.249  -5.436  0.00  0.00    +0.043 A 
ATOM      9  C   UNL     1      -3.155  -1.631  -5.284  0.00  0.00    -0.015 A 
ATOM     10  C   UNL     1      -2.626  -1.429  -4.029  0.00  0.00    +0.029 A 
ATOM     11  C   UNL     1      -2.695  -1.316  -6.674  0.00  0.00    +0.133 C 
ATOM     12  C   UNL     1      -3.813  -1.835  -7.569  0.00  0.00    +0.224 C 
ATOM     13  O   UNL     1      -3.844  -1.780  -8.780  0.00  0.00    -0.275 OA
ATOM     14  N   UNL     1      -4.756  -2.364  -6.776  0.00  0.00    -0.271 N 
ATOM     15  C   UNL     1      -6.033  -3.002  -7.142  0.00  0.00    +0.114 C 
ATOM     16  C   UNL     1      -6.404  -4.006  -6.044  0.00  0.00    +0.024 C 
ATOM     17  C   UNL     1      -6.465  -3.343  -4.664  0.00  0.00    +0.038 C 
ENDBRANCH   3   5
BRANCH   1  18
ATOM     18  C   UNL     1      -1.712  -0.353   0.068  0.00  0.00    +0.131 C 
BRANCH  18  24
ATOM     19  C   UNL     1      -1.603   2.127   0.386  0.00  0.00    +0.006 A 
ATOM     20  C   UNL     1      -0.895   3.313   0.445  0.00  0.00    +0.033 A 
ATOM     21  C   UNL     1       0.474   3.312   0.252  0.00  0.00    +0.126 A 
ATOM     22  C   UNL     1       1.135   2.125  -0.001  0.00  0.00    +0.033 A 
ATOM     23  C   UNL     1       0.428   0.939  -0.059  0.00  0.00    +0.006 A 
ATOM     24  C   UNL     1      -0.941   0.940   0.133  0.00  0.00    -0.038 A 
BRANCH  21  25
ATOM     25  N   UNL     1       1.231   4.582   0.314  0.00  0.00    +0.056 N 
ATOM     26  O   UNL     1       0.652   5.621   0.534  0.00  0.00    -0.126 OA
ATOM     27  O   UNL     1       2.428   4.582   0.145  0.00  0.00    -0.126 OA
ENDBRANCH  21  25
ENDBRANCH  18  24
ENDBRANCH   1  18
TORSDOF 4
