REMARK  Name = ZINC40390812
REMARK  9 active torsions:
REMARK  status: ('A' for Active; 'I' for Inactive)
REMARK    1  A    between atoms: C_1  and  O_2
REMARK    2  A    between atoms: O_2  and  C_3
REMARK    3  A    between atoms: C_6  and  N_9
REMARK    4  A    between atoms: N_16  and  C_19
REMARK    5  A    between atoms: C_22  and  C_25
REMARK    6  A    between atoms: C_25  and  C_28
REMARK    7  A    between atoms: C_28  and  N_29
REMARK    8  A    between atoms: C_34  and  S_36
REMARK    9  A    between atoms: S_36  and  C_39
REMARK                            x       y       z     vdW  Elec       q    Type
REMARK                         _______ _______ _______ _____ _____    ______ ____
ROOT
ATOM      1  N   UNL     1       2.147  -2.723   5.559  0.00  0.00    -0.210 N 
ATOM      2  C   UNL     1       2.414  -4.050   4.977  0.00  0.00    +0.194 C 
ATOM      3  C   UNL     1       3.069  -4.797   6.139  0.00  0.00    +0.091 C 
ATOM      4  C   UNL     1       2.100  -5.661   6.919  0.00  0.00    +0.033 C 
ATOM      5  C   UNL     1       1.225  -6.541   6.054  0.00  0.00    +0.114 C 
ATOM      6  N   UNL     1       0.648  -5.813   4.937  0.00  0.00    -0.270 N 
ATOM      7  C   UNL     1       1.176  -4.698   4.479  0.00  0.00    +0.243 C 
ATOM      8  O   UNL     1       0.614  -4.186   3.534  0.00  0.00    -0.273 OA
ATOM      9  C   UNL     1       3.558  -3.661   7.025  0.00  0.00    +0.176 C 
ATOM     10  N   UNL     1       3.039  -2.565   6.628  0.00  0.00    -0.164 NA
ENDROOT
BRANCH   1  14
ATOM     11  C   UNL     1      -0.697   0.034   4.263  0.00  0.00    +0.120 A 
ATOM     12  C   UNL     1       0.174  -0.544   3.351  0.00  0.00    +0.047 A 
ATOM     13  C   UNL     1       1.117  -1.458   3.779  0.00  0.00    +0.028 A 
ATOM     14  C   UNL     1       1.193  -1.798   5.124  0.00  0.00    +0.053 A 
ATOM     15  C   UNL     1       0.321  -1.218   6.037  0.00  0.00    +0.028 A 
ATOM     16  C   UNL     1      -0.618  -0.301   5.607  0.00  0.00    +0.047 A 
BRANCH  11  18
ATOM     17  C   UNL     1      -1.651   1.230   2.443  0.00  0.00    +0.277 C 
ATOM     18  O   UNL     1      -1.625   0.933   3.841  0.00  0.00    -0.495 OA
ENDBRANCH  11  18
ENDBRANCH   1  14
BRANCH   6  19
ATOM     19  C   UNL     1      -0.527  -6.300   4.355  0.00  0.00    +0.036 A 
ATOM     20  C   UNL     1      -0.502  -6.821   3.068  0.00  0.00    +0.024 A 
ATOM     21  C   UNL     1      -1.663  -7.301   2.495  0.00  0.00    +0.006 A 
ATOM     22  C   UNL     1      -2.851  -7.264   3.203  0.00  0.00    -0.043 A 
ATOM     23  C   UNL     1      -2.880  -6.745   4.484  0.00  0.00    +0.006 A 
ATOM     24  C   UNL     1      -1.721  -6.269   5.064  0.00  0.00    +0.024 A 
BRANCH  22  25
ATOM     25  C   UNL     1      -4.117  -7.788   2.575  0.00  0.00    -0.019 C 
ATOM     26  C   UNL     1      -4.197  -9.290   2.296  0.00  0.00    +0.010 C 
ATOM     27  C   UNL     1      -4.031  -8.305   1.137  0.00  0.00    +0.010 C 
BRANCH  25  28
ATOM     28  C   UNL     1      -5.405  -7.077   2.994  0.00  0.00    -0.067 C 
BRANCH  28  29
ATOM     29  N   UNL     1      -5.343  -5.668   2.582  0.00  0.00    +0.380 N 
ATOM     30  C   UNL     1      -5.413  -5.564   1.102  0.00  0.00    -0.079 C 
ATOM     31  C   UNL     1      -5.899  -4.111   0.872  0.00  0.00    -0.020 C 
ATOM     32  C   UNL     1      -6.907  -3.896   2.025  0.00  0.00    -0.020 C 
ATOM     33  C   UNL     1      -6.521  -4.935   3.094  0.00  0.00    -0.079 C 
ATOM     34  H   UNL     1      -4.494  -5.243   2.922  0.00  0.00    -0.082 HD
ENDBRANCH  28  29
ENDBRANCH  25  28
ENDBRANCH  22  25
ENDBRANCH   6  19
BRANCH   9  35
ATOM     35  S   UNL     1       4.671  -3.830   8.381  0.00  0.00    +0.009 S 
ATOM     36  O   UNL     1       5.512  -4.919   8.025  0.00  0.00    -0.168 OA
ATOM     37  O   UNL     1       5.211  -2.530   8.571  0.00  0.00    -0.168 OA
ATOM     38  C   UNL     1       3.623  -4.284   9.790  0.00  0.00    +0.201 C 
ENDBRANCH   9  35
TORSDOF 7
