REMARK  Name = ZINC29910610
REMARK  10 active torsions:
REMARK  status: ('A' for Active; 'I' for Inactive)
REMARK    1  A    between atoms: C_1  and  C_2
REMARK    2  A    between atoms: C_2  and  C_3
REMARK    3  A    between atoms: C_3  and  C_5
REMARK    4  A    between atoms: C_3  and  N_21
REMARK    5  A    between atoms: C_5  and  N_6
REMARK    6  A    between atoms: C_7  and  C_9
REMARK    7  A    between atoms: C_9  and  N_10
REMARK    8  A    between atoms: C_11  and  C_13
REMARK    9  A    between atoms: C_16  and  O_19
REMARK   10  A    between atoms: O_19  and  C_20
REMARK                            x       y       z     vdW  Elec       q    Type
REMARK                         _______ _______ _______ _____ _____    ______ ____
ROOT
ATOM      1  N   UNL     1       0.230   0.004   0.043  0.00  0.00    -0.316 N 
ATOM      2  C   UNL     1      -0.872  -0.773   0.030  0.00  0.00    +0.230 C 
ATOM      3  O   UNL     1      -1.970  -0.266  -0.057  0.00  0.00    -0.274 OA
ATOM      4  H   UNL     1       1.226  -0.456   0.122  0.00  0.00    +0.149 HD
ENDROOT
BRANCH   1   5
ATOM      5  C   UNL     1       0.100   1.460  -0.048  0.00  0.00    +0.089 C 
BRANCH   5   6
ATOM      6  C   UNL     1       1.490   2.099  -0.011  0.00  0.00    -0.051 C 
BRANCH   6   7
ATOM      7  N   UNL     1       2.324   1.518  -1.072  0.00  0.00    +0.385 N 
ATOM      8  C   UNL     1       3.724   1.951  -0.939  0.00  0.00    -0.073 C 
ATOM      9  C   UNL     1       4.596   1.051  -1.814  0.00  0.00    +0.017 C 
ATOM     10  C   UNL     1       4.023   0.976  -3.206  0.00  0.00    -0.048 A 
ATOM     11  C   UNL     1       4.834   0.514  -4.232  0.00  0.00    +0.004 A 
ATOM     12  C   UNL     1       4.348   0.426  -5.520  0.00  0.00    +0.000 A 
ATOM     13  C   UNL     1       3.044   0.801  -5.790  0.00  0.00    +0.000 A 
ATOM     14  C   UNL     1       2.237   1.262  -4.771  0.00  0.00    +0.002 A 
ATOM     15  C   UNL     1       2.725   1.353  -3.476  0.00  0.00    -0.061 A 
ATOM     16  C   UNL     1       1.808   1.871  -2.398  0.00  0.00    -0.042 C 
ATOM     17  H   UNL     1       2.284   0.424  -0.966  0.00  0.00    -0.081 HD
ENDBRANCH   6   7
BRANCH   6  19
ATOM     18  C   UNL     1       0.625   4.236   0.953  0.00  0.00    +0.002 C 
ATOM     19  C   UNL     1       1.363   3.608  -0.231  0.00  0.00    -0.017 C 
ENDBRANCH   6  19
ENDBRANCH   5   6
ENDBRANCH   1   5
BRANCH   2  20
ATOM     20  C   UNL     1      -0.738  -2.271   0.123  0.00  0.00    +0.200 C 
BRANCH  20  21
ATOM     21  N   UNL     1      -2.069  -2.883   0.088  0.00  0.00    -0.303 N 
ATOM     22  C   UNL     1      -2.196  -4.223   0.159  0.00  0.00    +0.244 C 
ATOM     23  O   UNL     1      -1.207  -4.924   0.251  0.00  0.00    -0.270 OA
ATOM     24  H   UNL     1      -2.964  -2.249   0.005  0.00  0.00    +0.150 HD
BRANCH  22  25
ATOM     25  C   UNL     1      -3.537  -4.839   0.124  0.00  0.00    +0.037 A 
ATOM     26  C   UNL     1      -4.676  -4.035   0.023  0.00  0.00    +0.016 A 
ATOM     27  C   UNL     1      -5.924  -4.614  -0.015  0.00  0.00    +0.046 A 
ATOM     28  C   UNL     1      -6.054  -5.996   0.058  0.00  0.00    +0.120 A 
ATOM     29  C   UNL     1      -4.924  -6.799   0.164  0.00  0.00    +0.046 A 
ATOM     30  C   UNL     1      -3.672  -6.228   0.197  0.00  0.00    +0.016 A 
BRANCH  28  31
ATOM     31  O   UNL     1      -7.286  -6.563   0.026  0.00  0.00    -0.495 OA
ATOM     32  C   UNL     1      -8.404  -5.679  -0.084  0.00  0.00    +0.277 C 
ENDBRANCH  28  31
ENDBRANCH  22  25
ENDBRANCH  20  21
ENDBRANCH   2  20
TORSDOF 8
