REMARK  Name = ZINC35486856
REMARK  9 active torsions:
REMARK  status: ('A' for Active; 'I' for Inactive)
REMARK    1  A    between atoms: C_1  and  C_2
REMARK    2  A    between atoms: C_2  and  O_3
REMARK    3  A    between atoms: O_3  and  C_4
REMARK    4  A    between atoms: C_8  and  C_10
REMARK    5  A    between atoms: N_25  and  C_26
REMARK    6  A    between atoms: C_26  and  C_27
REMARK    7  A    between atoms: C_27  and  N_28
REMARK    8  A    between atoms: N_28  and  C_29
REMARK    9  A    between atoms: N_28  and  C_30
REMARK                            x       y       z     vdW  Elec       q    Type
REMARK                         _______ _______ _______ _____ _____    ______ ____
ROOT
ATOM      1  C   UNL     1      -4.316  -4.366   0.008  0.00  0.00    +0.145 C 
ATOM      2  C   UNL     1      -4.663  -4.854   1.377  0.00  0.00    +0.072 A 
ATOM      3  C   UNL     1      -4.771  -4.146   2.656  0.00  0.00    +0.199 A 
ATOM      4  O   UNL     1      -4.746  -2.932   2.751  0.00  0.00    -0.287 OA
ATOM      5  C   UNL     1      -4.914  -5.050   3.825  0.00  0.00    +0.066 A 
ATOM      6  C   UNL     1      -4.829  -4.545   5.123  0.00  0.00    +0.035 A 
ATOM      7  C   UNL     1      -4.960  -5.399   6.196  0.00  0.00    +0.042 A 
ATOM      8  C   UNL     1      -5.173  -6.755   5.984  0.00  0.00    +0.023 A 
ATOM      9  C   UNL     1      -5.260  -7.264   4.708  0.00  0.00    +0.048 A 
ATOM     10  C   UNL     1      -5.135  -6.419   3.605  0.00  0.00    +0.140 A 
ATOM     11  O   UNL     1      -5.234  -6.944   2.362  0.00  0.00    -0.450 OA
ATOM     12  C   UNL     1      -4.891  -6.198   1.294  0.00  0.00    +0.199 A 
ATOM     13  C   UNL     1      -4.695  -6.615  -0.106  0.00  0.00    +0.283 C 
ATOM     14  O   UNL     1      -4.818  -7.752  -0.517  0.00  0.00    -0.267 OA
ATOM     15  N   UNL     1      -4.360  -5.550  -0.865  0.00  0.00    -0.285 N 
ATOM     16 CL   UNL     1      -4.856  -4.780   7.815  0.00  0.00    -0.084 Cl
ENDROOT
BRANCH   1  21
ATOM     17  C   UNL     1      -1.498  -1.848   0.006  0.00  0.00    +0.121 A 
ATOM     18  C   UNL     1      -0.387  -2.679  -0.003  0.00  0.00    +0.045 A 
ATOM     19  C   UNL     1      -0.552  -4.051  -0.008  0.00  0.00    +0.004 A 
ATOM     20  C   UNL     1      -1.823  -4.596  -0.004  0.00  0.00    +0.006 A 
ATOM     21  C   UNL     1      -2.932  -3.769   0.004  0.00  0.00    -0.019 A 
ATOM     22  C   UNL     1      -2.772  -2.397   0.016  0.00  0.00    +0.051 A 
BRANCH  17  23
ATOM     23  O   UNL     1      -1.339  -0.499   0.012  0.00  0.00    -0.492 OA
BRANCH  23  25
ATOM     24  C   UNL     1      -0.019   1.526   0.010  0.00  0.00    +0.048 C 
ATOM     25  C   UNL     1       0.002  -0.004   0.002  0.00  0.00    +0.225 C 
ENDBRANCH  23  25
ENDBRANCH  17  23
ENDBRANCH   1  21
BRANCH  15  26
ATOM     26  C   UNL     1      -4.090  -5.569  -2.305  0.00  0.00    +0.090 C 
BRANCH  26  27
ATOM     27  C   UNL     1      -2.600  -5.824  -2.540  0.00  0.00    -0.060 C 
BRANCH  27  28
ATOM     28  N   UNL     1      -2.328  -5.842  -3.984  0.00  0.00    +0.377 N 
ATOM     29  C   UNL     1      -0.882  -5.967  -4.209  0.00  0.00    -0.097 C 
ATOM     30  C   UNL     1      -3.019  -6.984  -4.598  0.00  0.00    -0.097 C 
ATOM     31  H   UNL     1      -2.660  -4.985  -4.400  0.00  0.00    -0.083 HD
ENDBRANCH  27  28
ENDBRANCH  26  27
ENDBRANCH  15  26
TORSDOF 6
