REMARK  Name = ZINC36117537
REMARK  11 active torsions:
REMARK  status: ('A' for Active; 'I' for Inactive)
REMARK    1  A    between atoms: C_1  and  O_2
REMARK    2  A    between atoms: O_2  and  C_3
REMARK    3  A    between atoms: C_8  and  O_9
REMARK    4  A    between atoms: O_9  and  C_10
REMARK    5  A    between atoms: C_10  and  C_11
REMARK    6  A    between atoms: C_21  and  C_23
REMARK    7  A    between atoms: C_23  and  N_24
REMARK    8  A    between atoms: N_24  and  C_25
REMARK    9  A    between atoms: C_25  and  C_26
REMARK   10  A    between atoms: C_26  and  N_27
REMARK   11  A    between atoms: C_32  and  C_34
REMARK                            x       y       z     vdW  Elec       q    Type
REMARK                         _______ _______ _______ _____ _____    ______ ____
ROOT
ATOM      1  C   UNL     1       1.146  -4.822  -0.035  0.00  0.00    +0.144 C 
ATOM      2  C   UNL     1       1.980  -4.282   1.126  0.00  0.00    -0.014 A 
ATOM      3  C   UNL     1       1.766  -4.647   2.454  0.00  0.00    +0.013 A 
ATOM      4  C   UNL     1       2.541  -4.126   3.433  0.00  0.00    +0.046 A 
ATOM      5  S   UNL     1       3.642  -3.067   2.505  0.00  0.00    -0.101 S 
ATOM      6  C   UNL     1       2.989  -3.401   0.890  0.00  0.00    -0.004 A 
ATOM      7  C   UNL     1       3.439  -2.851  -0.424  0.00  0.00    +0.061 C 
ATOM      8  C   UNL     1       2.341  -3.107  -1.468  0.00  0.00    +0.114 C 
ATOM      9  N   UNL     1       1.839  -4.478  -1.284  0.00  0.00    -0.289 N 
ATOM     10  C   UNL     1       2.013  -5.405  -2.246  0.00  0.00    +0.234 C 
ATOM     11  O   UNL     1       1.597  -6.533  -2.084  0.00  0.00    -0.274 OA
ENDROOT
BRANCH   1  12
ATOM     12  C   UNL     1      -0.242  -4.179  -0.018  0.00  0.00    +0.256 C 
BRANCH  12  13
ATOM     13  O   UNL     1      -0.108  -2.756  -0.012  0.00  0.00    -0.486 OA
BRANCH  13  19
ATOM     14  C   UNL     1      -1.201  -0.638   0.010  0.00  0.00    +0.161 A 
ATOM     15  C   UNL     1      -2.374   0.099   0.019  0.00  0.00    +0.049 A 
ATOM     16  C   UNL     1      -3.596  -0.546   0.027  0.00  0.00    +0.004 A 
ATOM     17  C   UNL     1      -3.652  -1.928   0.026  0.00  0.00    +0.004 A 
ATOM     18  C   UNL     1      -2.485  -2.669   0.017  0.00  0.00    +0.049 A 
ATOM     19  C   UNL     1      -1.257  -2.028   0.003  0.00  0.00    +0.162 A 
BRANCH  14  21
ATOM     20  C   UNL     1      -0.017   1.425   0.010  0.00  0.00    +0.277 C 
ATOM     21  O   UNL     1       0.002  -0.004   0.002  0.00  0.00    -0.491 OA
ENDBRANCH  14  21
ENDBRANCH  13  19
ENDBRANCH  12  13
ENDBRANCH   1  12
BRANCH  10  22
ATOM     22  C   UNL     1       2.725  -5.041  -3.524  0.00  0.00    +0.203 C 
BRANCH  22  23
ATOM     23  N   UNL     1       2.785  -6.214  -4.400  0.00  0.00    -0.294 N 
ATOM     24  C   UNL     1       3.831  -7.060  -4.324  0.00  0.00    +0.219 C 
ATOM     25  O   UNL     1       3.881  -8.030  -5.049  0.00  0.00    -0.275 OA
BRANCH  24  26
ATOM     26  C   UNL     1       4.939  -6.800  -3.336  0.00  0.00    +0.075 C 
ATOM     27  C   UNL     1       6.307  -6.405  -3.896  0.00  0.00    +0.013 C 
ATOM     28  C   UNL     1       6.099  -7.797  -3.297  0.00  0.00    +0.013 C 
ENDBRANCH  24  26
BRANCH  23  29
ATOM     29  C   UNL     1       1.708  -6.466  -5.361  0.00  0.00    +0.090 C 
BRANCH  29  30
ATOM     30  C   UNL     1       2.034  -5.776  -6.687  0.00  0.00    -0.060 C 
BRANCH  30  31
ATOM     31  N   UNL     1       0.954  -6.030  -7.649  0.00  0.00    +0.381 N 
ATOM     32  C   UNL     1      -0.282  -5.322  -7.230  0.00  0.00    -0.079 C 
ATOM     33  C   UNL     1      -1.090  -5.207  -8.547  0.00  0.00    -0.020 C 
ATOM     34  C   UNL     1       0.008  -4.943  -9.604  0.00  0.00    -0.020 C 
ATOM     35  C   UNL     1       1.309  -5.472  -8.972  0.00  0.00    -0.079 C 
ATOM     36  H   UNL     1       0.780  -7.021  -7.725  0.00  0.00    -0.082 HD
ENDBRANCH  30  31
ENDBRANCH  29  30
ENDBRANCH  23  29
ENDBRANCH  22  23
ENDBRANCH  10  22
TORSDOF 10
