REMARK  Name = ZINC06574678
REMARK  14 active torsions:
REMARK  status: ('A' for Active; 'I' for Inactive)
REMARK    1  A    between atoms: C_1  and  C_2
REMARK    2  A    between atoms: C_5  and  C_7
REMARK    3  A    between atoms: C_7  and  N_8
REMARK    4  A    between atoms: N_8  and  C_9
REMARK    5  A    between atoms: N_8  and  C_19
REMARK    6  A    between atoms: C_11  and  C_17
REMARK    7  A    between atoms: C_11  and  C_18
REMARK    8  A    between atoms: C_13  and  C_15
REMARK    9  A    between atoms: C_13  and  C_16
REMARK   10  A    between atoms: C_19  and  N_21
REMARK   11  A    between atoms: N_21  and  C_22
REMARK   12  A    between atoms: C_27  and  C_28
REMARK   13  A    between atoms: C_28  and  C_29
REMARK   14  A    between atoms: C_28  and  C_30
REMARK                            x       y       z     vdW  Elec       q    Type
REMARK                         _______ _______ _______ _____ _____    ______ ____
ROOT
ATOM      1  N   UNL     1       2.791  -3.342  -1.357  0.00  0.00    -0.302 N 
ENDROOT
BRANCH   1   2
ATOM      2  C   UNL     1       4.125  -3.023  -1.881  0.00  0.00    +0.073 C 
ATOM      3  C   UNL     1       5.151  -3.146  -0.753  0.00  0.00    +0.009 C 
ATOM      4  C   UNL     1       6.544  -2.805  -1.280  0.00  0.00    -0.072 C 
ATOM      5  N   UNL     1       6.582  -1.502  -1.928  0.00  0.00    +0.386 N 
ATOM      6  C   UNL     1       5.526  -1.190  -2.878  0.00  0.00    -0.072 C 
ATOM      7  C   UNL     1       4.137  -1.580  -2.385  0.00  0.00    +0.009 C 
ATOM      8  C   UNL     1       5.526   0.343  -3.085  0.00  0.00    -0.010 C 
ATOM      9  C   UNL     1       5.791  -1.825  -4.246  0.00  0.00    -0.010 C 
ATOM     10  C   UNL     1       7.050  -3.918  -2.196  0.00  0.00    -0.010 C 
ATOM     11  C   UNL     1       7.494  -2.747  -0.061  0.00  0.00    -0.010 C 
ATOM     12  H   UNL     1       6.583  -0.782  -1.201  0.00  0.00    -0.084 HD
ATOM     13  H   UNL     1       7.482  -1.405  -2.402  0.00  0.00    -0.084 HD
ENDBRANCH   1   2
BRANCH   1  14
ATOM     14  C   UNL     1       2.088  -4.364  -1.883  0.00  0.00    +0.138 C 
ATOM     15  S   UNL     1       0.481  -4.652  -1.367  0.00  0.00    -0.018 S 
BRANCH  14  16
ATOM     16  N   UNL     1       2.649  -5.159  -2.816  0.00  0.00    -0.296 N 
ATOM     17  H   UNL     1       3.582  -5.045  -3.052  0.00  0.00    +0.154 HD
BRANCH  16  18
ATOM     18  C   UNL     1       1.885  -6.150  -3.442  0.00  0.00    +0.036 A 
ATOM     19  C   UNL     1       1.006  -6.926  -2.696  0.00  0.00    +0.023 A 
ATOM     20  C   UNL     1       0.253  -7.902  -3.317  0.00  0.00    +0.002 A 
ATOM     21  C   UNL     1       0.373  -8.109  -4.680  0.00  0.00    +0.000 A 
ATOM     22  C   UNL     1       1.248  -7.339  -5.424  0.00  0.00    +0.006 A 
ATOM     23  C   UNL     1       1.999  -6.356  -4.810  0.00  0.00    -0.024 A 
BRANCH  23  24
ATOM     24  C   UNL     1       2.948  -5.513  -5.623  0.00  0.00    +0.015 C 
ATOM     25  C   UNL     1       3.961  -6.419  -6.326  0.00  0.00    +0.012 C 
ATOM     26  C   UNL     1       2.159  -4.722  -6.668  0.00  0.00    +0.012 C 
ENDBRANCH  23  24
ENDBRANCH  16  18
ENDBRANCH  14  16
ENDBRANCH   1  14
BRANCH   1  27
ATOM     27  C   UNL     1       2.225  -2.550  -0.263  0.00  0.00    +0.181 C 
BRANCH  27  32
ATOM     28  C   UNL     1       1.118   2.043  -2.029  0.00  0.00    +0.086 C 
ATOM     29  C   UNL     1       0.966   0.607  -1.599  0.00  0.00    +0.102 A 
ATOM     30  C   UNL     1      -0.169  -0.113  -1.645  0.00  0.00    +0.045 A 
ATOM     31  C   UNL     1       0.141  -1.400  -1.149  0.00  0.00    +0.046 A 
ATOM     32  C   UNL     1       1.448  -1.391  -0.831  0.00  0.00    +0.122 A 
ATOM     33  O   UNL     1       1.944  -0.174  -1.111  0.00  0.00    -0.463 OA
ENDBRANCH  27  32
ENDBRANCH   1  27
TORSDOF 7
