REMARK  Name = ZINC35361913
REMARK  7 active torsions:
REMARK  status: ('A' for Active; 'I' for Inactive)
REMARK    1  A    between atoms: C_1  and  C_2
REMARK    2  A    between atoms: N_6  and  N_7
REMARK    3  A    between atoms: N_7  and  C_8
REMARK    4  A    between atoms: C_8  and  N_10
REMARK    5  A    between atoms: C_22  and  C_35
REMARK    6  A    between atoms: C_23  and  O_34
REMARK    7  A    between atoms: C_26  and  C_28
REMARK                            x       y       z     vdW  Elec       q    Type
REMARK                         _______ _______ _______ _____ _____    ______ ____
ROOT
ATOM      1  C   UNL     1       0.530   1.611  -0.247  0.00  0.00    +0.012 C 
ATOM      2  C   UNL     1       0.579   0.083  -0.215  0.00  0.00    -0.025 C 
ATOM      3  C   UNL     1      -0.817  -0.461   0.083  0.00  0.00    +0.013 C 
ATOM      4  C   UNL     1      -0.789  -1.993   0.052  0.00  0.00    +0.053 C 
ATOM      5  C   UNL     1       0.284  -2.471   1.005  0.00  0.00    +0.037 C 
ATOM      6  N   UNL     1       0.024  -3.348   1.900  0.00  0.00    -0.190 NA
ATOM      7  C   UNL     1       1.672  -1.885   0.873  0.00  0.00    +0.056 C 
ATOM      8  C   UNL     1       1.563  -0.369   0.865  0.00  0.00    +0.001 C 
ATOM      9  C   UNL     1       2.945   0.216   0.557  0.00  0.00    +0.005 C 
ATOM     10  C   UNL     1       3.419  -0.296  -0.804  0.00  0.00    +0.007 C 
ATOM     11  C   UNL     1       2.430   0.134  -1.888  0.00  0.00    +0.025 C 
ATOM     12  C   UNL     1       1.046  -0.436  -1.576  0.00  0.00    +0.001 C 
ATOM     13  C   UNL     1       0.072   0.035  -2.661  0.00  0.00    +0.005 C 
ATOM     14  C   UNL     1       0.518  -0.545  -4.001  0.00  0.00    +0.010 C 
ATOM     15  C   UNL     1       1.908  -0.028  -4.380  0.00  0.00    +0.004 C 
ATOM     16  C   UNL     1       2.910  -0.308  -3.249  0.00  0.00    +0.075 C 
ATOM     17  C   UNL     1       3.145  -1.828  -3.330  0.00  0.00    +0.036 C 
ATOM     18  C   UNL     1       3.175  -2.107  -4.850  0.00  0.00    +0.011 C 
ATOM     19  C   UNL     1       2.421  -0.935  -5.530  0.00  0.00    +0.027 C 
ATOM     20  C   UNL     1       1.868   1.445  -4.793  0.00  0.00    +0.014 C 
ENDROOT
BRANCH  19  21
ATOM     21  C   UNL     1       3.336  -0.153  -6.437  0.00  0.00    -0.022 C 
ATOM     22  C   UNL     1       3.105   0.175  -7.706  0.00  0.00    +0.094 C 
ATOM     23  C   UNL     1       4.248   0.936  -8.219  0.00  0.00    +0.332 C 
ATOM     24  O   UNL     1       4.343   1.380  -9.347  0.00  0.00    -0.246 OA
ATOM     25  O   UNL     1       5.177   1.069  -7.254  0.00  0.00    -0.457 OA
ATOM     26  C   UNL     1       4.689   0.415  -6.078  0.00  0.00    +0.264 C 
ENDBRANCH  19  21
BRANCH   6  27
ATOM     27  N   UNL     1      -1.267  -3.883   2.003  0.00  0.00    -0.219 N 
ATOM     28  H   UNL     1      -1.943  -3.647   1.349  0.00  0.00    +0.176 HD
BRANCH  27  29
ATOM     29  C   UNL     1      -1.569  -4.725   3.010  0.00  0.00    +0.147 C 
ATOM     30  S   UNL     1      -3.147  -5.378   3.136  0.00  0.00    -0.017 S 
BRANCH  29  31
ATOM     31  N   UNL     1      -0.630  -5.054   3.919  0.00  0.00    -0.339 N 
ATOM     32  H   UNL     1       0.264  -4.684   3.848  0.00  0.00    +0.144 HD
ATOM     33  H   UNL     1      -0.847  -5.660   4.644  0.00  0.00    +0.144 HD
ENDBRANCH  29  31
ENDBRANCH  27  29
ENDBRANCH   6  27
BRANCH  16  34
ATOM     34  O   UNL     1       4.139   0.356  -3.552  0.00  0.00    -0.388 OA
ATOM     35  H   UNL     1       4.846   0.183  -2.916  0.00  0.00    +0.210 HD
ENDBRANCH  16  34
TORSDOF 5
