REMARK  Name = ZINC01263843
REMARK  7 active torsions:
REMARK  status: ('A' for Active; 'I' for Inactive)
REMARK    1  A    between atoms: C_1  and  O_2
REMARK    2  A    between atoms: O_2  and  C_3
REMARK    3  A    between atoms: C_7  and  C_10
REMARK    4  A    between atoms: C_8  and  O_9
REMARK    5  A    between atoms: N_11  and  C_12
REMARK    6  A    between atoms: C_15  and  N_18
REMARK    7  A    between atoms: C_24  and  C_26
REMARK                            x       y       z     vdW  Elec       q    Type
REMARK                         _______ _______ _______ _____ _____    ______ ____
ROOT
ATOM      1  C   UNL     1      -0.653  -6.716  -0.800  0.00  0.00    +0.064 A 
ATOM      2  C   UNL     1      -0.937  -7.356  -2.009  0.00  0.00    +0.029 A 
ATOM      3  C   UNL     1      -0.601  -8.681  -2.181  0.00  0.00    +0.025 A 
ATOM      4  C   UNL     1       0.021  -9.382  -1.153  0.00  0.00    +0.030 A 
ATOM      5  C   UNL     1       0.306  -8.748   0.051  0.00  0.00    +0.025 A 
ATOM      6  C   UNL     1      -0.023  -7.421   0.228  0.00  0.00    +0.029 A 
ENDROOT
BRANCH   4   7
ATOM      7  N   UNL     1       0.361 -10.724  -1.331  0.00  0.00    -0.327 N 
ATOM      8  C   UNL     1      -0.040 -11.442  -2.549  0.00  0.00    +0.124 C 
ATOM      9  C   UNL     1       1.214 -12.040  -3.200  0.00  0.00    +0.127 C 
ATOM     10  N   UNL     1       1.978 -12.760  -2.172  0.00  0.00    -0.294 N 
ATOM     11  C   UNL     1       2.379 -12.043  -0.954  0.00  0.00    +0.127 C 
ATOM     12  C   UNL     1       1.130 -11.443  -0.306  0.00  0.00    +0.124 C 
ATOM     13  C   UNL     1       2.306 -14.056  -2.344  0.00  0.00    +0.253 C 
ATOM     14  O   UNL     1       2.850 -14.671  -1.445  0.00  0.00    -0.269 OA
BRANCH  13  15
ATOM     15  C   UNL     1       2.007 -14.726  -3.613  0.00  0.00    +0.074 A 
ATOM     16  C   UNL     1       1.909 -16.082  -3.884  0.00  0.00    +0.021 A 
ATOM     17  C   UNL     1       1.613 -16.412  -5.185  0.00  0.00    +0.008 A 
ATOM     18  C   UNL     1       1.441 -15.420  -6.093  0.00  0.00    +0.046 A 
ATOM     19  S   UNL     1       1.668 -14.009  -5.209  0.00  0.00    -0.092 S 
ENDBRANCH  13  15
ENDBRANCH   4   7
BRANCH   1  21
ATOM     20  C   UNL     1      -0.734  -4.535  -1.568  0.00  0.00    +0.123 C 
ATOM     21  N   UNL     1      -0.985  -5.400  -0.626  0.00  0.00    -0.255 NA
BRANCH  20  26
ATOM     22  C   UNL     1      -2.035  -1.360  -0.026  0.00  0.00    +0.163 A 
ATOM     23  C   UNL     1      -1.764  -0.448  -1.034  0.00  0.00    +0.064 A 
ATOM     24  C   UNL     1      -1.161  -0.863  -2.210  0.00  0.00    +0.022 A 
ATOM     25  C   UNL     1      -0.824  -2.188  -2.390  0.00  0.00    +0.028 A 
ATOM     26  C   UNL     1      -1.091  -3.120  -1.381  0.00  0.00    +0.039 A 
ATOM     27  C   UNL     1      -1.697  -2.698  -0.190  0.00  0.00    +0.167 A 
ATOM     28 BR   UNL     1      -0.798   0.393  -3.576  0.00  0.00    -0.050 Br
BRANCH  22  30
ATOM     29  C   UNL     1      -2.948   0.445   1.225  0.00  0.00    +0.277 C 
ATOM     30  O   UNL     1      -2.628  -0.944   1.125  0.00  0.00    -0.491 OA
ENDBRANCH  22  30
BRANCH  27  31
ATOM     31  O   UNL     1      -1.957  -3.594   0.798  0.00  0.00    -0.503 OA
ATOM     32  H   UNL     1      -2.827  -4.011   0.732  0.00  0.00    +0.292 HD
ENDBRANCH  27  31
ENDBRANCH  20  26
ENDBRANCH   1  21
TORSDOF 6
