REMARK  Name = ZINC11485767
REMARK  7 active torsions:
REMARK  status: ('A' for Active; 'I' for Inactive)
REMARK    1  A    between atoms: C_3  and  C_6
REMARK    2  A    between atoms: C_6  and  N_7
REMARK    3  A    between atoms: C_11  and  S_12
REMARK    4  A    between atoms: S_12  and  C_13
REMARK    5  A    between atoms: C_13  and  C_14
REMARK    6  A    between atoms: N_16  and  C_17
REMARK    7  A    between atoms: N_16  and  C_25
REMARK                            x       y       z     vdW  Elec       q    Type
REMARK                         _______ _______ _______ _____ _____    ______ ____
ROOT
ATOM      1  N   UNL     1       4.546   0.843   1.387  0.00  0.00    -0.283 N 
ATOM      2  C   UNL     1       4.650   1.965   2.159  0.00  0.00    +0.221 A 
ATOM      3  N   UNL     1       4.930   1.590   3.383  0.00  0.00    -0.112 NA
ATOM      4  N   UNL     1       5.008   0.192   3.401  0.00  0.00    -0.121 NA
ATOM      5  C   UNL     1       4.768  -0.243   2.188  0.00  0.00    +0.194 A 
ATOM      6  N   UNL     1       4.489   3.273   1.723  0.00  0.00    -0.295 N 
ATOM      7  C   UNL     1       3.215   3.985   1.917  0.00  0.00    +0.136 C 
ATOM      8  C   UNL     1       3.513   5.342   2.564  0.00  0.00    +0.179 C 
ATOM      9  O   UNL     1       4.509   6.021   1.795  0.00  0.00    -0.377 OA
ATOM     10  C   UNL     1       5.768   5.347   1.743  0.00  0.00    +0.179 C 
ATOM     11  C   UNL     1       5.588   3.992   1.059  0.00  0.00    +0.136 C 
ENDROOT
BRANCH   1  12
ATOM     12  C   UNL     1       4.243   0.808  -0.046  0.00  0.00    +0.201 C 
BRANCH  12  15
ATOM     13  C   UNL     1       0.610   1.208  -0.518  0.00  0.00    +0.041 A 
ATOM     14  C   UNL     1       1.903   1.751  -0.344  0.00  0.00    +0.046 A 
ATOM     15  C   UNL     1       2.752   0.712  -0.241  0.00  0.00    +0.125 A 
ATOM     16  O   UNL     1       2.044  -0.425  -0.343  0.00  0.00    -0.466 OA
ATOM     17  C   UNL     1       0.745  -0.131  -0.511  0.00  0.00    +0.195 A 
ENDBRANCH  12  15
ENDBRANCH   1  12
BRANCH   5  18
ATOM     18  S   UNL     1       4.741  -1.929   1.677  0.00  0.00    -0.077 S 
BRANCH  18  19
ATOM     19  C   UNL     1       5.108  -2.853   3.195  0.00  0.00    +0.173 C 
BRANCH  19  20
ATOM     20  C   UNL     1       5.115  -4.330   2.895  0.00  0.00    +0.226 C 
ATOM     21  O   UNL     1       4.806  -4.726   1.791  0.00  0.00    -0.275 OA
ATOM     22  N   UNL     1       5.464  -5.210   3.853  0.00  0.00    -0.293 N 
BRANCH  22  23
ATOM     23  C   UNL     1       5.583  -6.635   3.531  0.00  0.00    +0.099 C 
ATOM     24  C   UNL     1       4.231  -7.157   3.020  0.00  0.00    +0.046 C 
ATOM     25  C   UNL     1       4.459  -8.564   2.397  0.00  0.00    +0.168 C 
ATOM     26  S   UNL     1       6.050  -8.285   1.510  0.00  0.00    -0.029 S 
ATOM     27  O   UNL     1       6.913  -9.388   1.750  0.00  0.00    -0.174 OA
ATOM     28  O   UNL     1       5.771  -7.894   0.172  0.00  0.00    -0.174 OA
ATOM     29  C   UNL     1       6.667  -6.826   2.443  0.00  0.00    +0.188 C 
ENDBRANCH  22  23
BRANCH  22  30
ATOM     30  C   UNL     1       5.725  -4.744   5.217  0.00  0.00    +0.077 C 
ATOM     31  C   UNL     1       6.437  -5.707   6.170  0.00  0.00    +0.024 C 
ATOM     32  C   UNL     1       4.947  -5.410   6.353  0.00  0.00    +0.024 C 
ENDBRANCH  22  30
ENDBRANCH  19  20
ENDBRANCH  18  19
ENDBRANCH   5  18
TORSDOF 7
