REMARK  Name = ZINC20547441
REMARK  8 active torsions:
REMARK  status: ('A' for Active; 'I' for Inactive)
REMARK    1  A    between atoms: C_1  and  C_2
REMARK    2  A    between atoms: C_2  and  C_3
REMARK    3  A    between atoms: C_6  and  N_9
REMARK    4  A    between atoms: C_14  and  C_36
REMARK    5  A    between atoms: C_17  and  C_22
REMARK    6  A    between atoms: C_17  and  C_33
REMARK    7  A    between atoms: C_22  and  C_23
REMARK    8  A    between atoms: C_41  and  O_42
REMARK                            x       y       z     vdW  Elec       q    Type
REMARK                         _______ _______ _______ _____ _____    ______ ____
ROOT
ATOM      1  N   UNL     1       4.567   6.074  -0.201  0.00  0.00    -0.210 N 
ATOM      2  C   UNL     1       5.303   5.444   0.723  0.00  0.00    +0.229 C 
ATOM      3  O   UNL     1       6.482   5.181   0.619  0.00  0.00    -0.275 OA
ATOM      4  C   UNL     1       4.435   5.112   1.915  0.00  0.00    +0.077 C 
ATOM      5  C   UNL     1       4.242   3.583   1.992  0.00  0.00    -0.023 C 
ATOM      6  N   UNL     1       2.786   3.397   2.240  0.00  0.00    +0.396 N 
ATOM      7  C   UNL     1       2.140   4.426   1.384  0.00  0.00    +0.052 C 
ATOM      8  C   UNL     1       3.044   5.670   1.513  0.00  0.00    +0.086 C 
ATOM      9  C   UNL     1       3.272   6.263   0.141  0.00  0.00    +0.229 C 
ATOM     10  O   UNL     1       2.428   6.812  -0.534  0.00  0.00    -0.275 OA
ATOM     11  H   UNL     1       2.493   2.377   1.953  0.00  0.00    -0.083 HD
ATOM     12  H   UNL     1       2.573   3.554   3.307  0.00  0.00    -0.083 HD
ENDROOT
BRANCH   1  16
ATOM     13  C   UNL     1       6.138   7.370  -3.838  0.00  0.00    -0.048 A 
ATOM     14  C   UNL     1       6.062   6.017  -3.562  0.00  0.00    +0.005 A 
ATOM     15  C   UNL     1       5.543   5.585  -2.357  0.00  0.00    +0.024 A 
ATOM     16  C   UNL     1       5.096   6.510  -1.424  0.00  0.00    +0.044 A 
ATOM     17  C   UNL     1       5.168   7.867  -1.706  0.00  0.00    +0.024 A 
ATOM     18  C   UNL     1       5.694   8.294  -2.910  0.00  0.00    +0.005 A 
BRANCH  13  20
ATOM     19  C   UNL     1       5.580   7.951  -6.183  0.00  0.00    +0.009 C 
ATOM     20  C   UNL     1       6.705   7.838  -5.153  0.00  0.00    +0.032 C 
ENDBRANCH  13  20
ENDBRANCH   1  16
BRANCH   5  21
ATOM     21  C   UNL     1       5.045   3.008   3.130  0.00  0.00    -0.019 A 
ATOM     22  C   UNL     1       4.478   2.886   4.384  0.00  0.00    +0.005 A 
ATOM     23  C   UNL     1       5.214   2.359   5.429  0.00  0.00    +0.000 A 
ATOM     24  C   UNL     1       6.520   1.953   5.221  0.00  0.00    +0.004 A 
ATOM     25  C   UNL     1       7.091   2.072   3.970  0.00  0.00    +0.045 A 
ATOM     26  C   UNL     1       6.352   2.596   2.918  0.00  0.00    +0.118 A 
BRANCH  26  27
ATOM     27  O   UNL     1       6.910   2.710   1.685  0.00  0.00    -0.507 OA
ATOM     28  H   UNL     1       7.947   2.383   1.518  0.00  0.00    +0.292 HD
ENDBRANCH  26  27
ENDBRANCH   5  21
BRANCH   7  29
ATOM     29  C   UNL     1       0.753   4.730   1.886  0.00  0.00    +0.347 C 
ATOM     30  O   UNL     1       0.334   5.863   1.856  0.00  0.00    -0.248 OA
ATOM     31  O   UNL     1      -0.019   3.742   2.366  0.00  0.00    -0.248 OA
ENDBRANCH   7  29
BRANCH   7  32
ATOM     32  C   UNL     1       2.088   3.953  -0.070  0.00  0.00    +0.037 C 
BRANCH  32  33
ATOM     33  C   UNL     1       1.234   2.715  -0.166  0.00  0.00    -0.023 A 
ATOM     34  C   UNL     1       1.663   1.444  -0.141  0.00  0.00    +0.087 A 
ATOM     35  N   UNL     1       0.600   0.590  -0.251  0.00  0.00    -0.360 N 
ATOM     36  H   UNL     1       0.765  -0.498  -0.244  0.00  0.00    +0.165 HD
ATOM     37  C   UNL     1      -0.569   1.309  -0.357  0.00  0.00    +0.047 A 
ATOM     38  C   UNL     1      -0.224   2.672  -0.303  0.00  0.00    +0.003 A 
ATOM     39  C   UNL     1      -1.221   3.646  -0.386  0.00  0.00    +0.010 A 
ATOM     40  C   UNL     1      -2.528   3.270  -0.513  0.00  0.00    +0.001 A 
ATOM     41  C   UNL     1      -2.874   1.927  -0.562  0.00  0.00    +0.002 A 
ATOM     42  C   UNL     1      -1.907   0.949  -0.482  0.00  0.00    +0.026 A 
ENDBRANCH  32  33
ENDBRANCH   7  32
TORSDOF 7
