REMARK  Name = ZINC15548733
REMARK  5 active torsions:
REMARK  status: ('A' for Active; 'I' for Inactive)
REMARK    1  A    between atoms: C_3  and  C_6
REMARK    2  A    between atoms: C_15  and  C_16
REMARK    3  A    between atoms: C_15  and  N_48
REMARK    4  A    between atoms: N_18  and  C_19
REMARK    5  A    between atoms: C_24  and  N_25
REMARK                            x       y       z     vdW  Elec       q    Type
REMARK                         _______ _______ _______ _____ _____    ______ ____
ROOT
ATOM      1  C   UNL     1      -4.931   3.970   0.272  0.00  0.00    +0.020 C 
ENDROOT
BRANCH   1  10
ATOM      2  C   UNL     1      -7.257   3.430   0.674  0.00  0.00    +0.002 C 
ATOM      3  C   UNL     1      -8.228   2.266   0.847  0.00  0.00    -0.046 A 
ATOM      4  C   UNL     1      -9.492   2.387   1.419  0.00  0.00    +0.010 A 
ATOM      5  C   UNL     1     -10.289   1.299   1.535  0.00  0.00    +0.045 A 
ATOM      6  S   UNL     1      -9.269   0.016   0.822  0.00  0.00    -0.101 S 
ATOM      7  C   UNL     1      -7.866   1.021   0.426  0.00  0.00    -0.010 A 
ATOM      8  C   UNL     1      -6.574   0.637  -0.217  0.00  0.00    +0.024 C 
ATOM      9  C   UNL     1      -5.862   1.931  -0.647  0.00  0.00    -0.072 C 
ATOM     10  N   UNL     1      -5.895   2.874   0.497  0.00  0.00    +0.393 N 
ATOM     11  H   UNL     1      -5.630   2.369   1.351  0.00  0.00    -0.080 HD
BRANCH   2  14
ATOM     12  C   UNL     1      -7.776   6.093   3.348  0.00  0.00    +0.008 A 
ATOM     13  C   UNL     1      -7.905   5.473   2.120  0.00  0.00    +0.010 A 
ATOM     14  C   UNL     1      -7.272   4.293   1.910  0.00  0.00    -0.019 A 
ATOM     15  S   UNL     1      -6.466   4.022   3.480  0.00  0.00    -0.103 S 
ATOM     16  C   UNL     1      -7.020   5.504   4.306  0.00  0.00    +0.045 A 
ENDBRANCH   2  14
ENDBRANCH   1  10
BRANCH   1  17
ATOM     17  C   UNL     1      -3.537   3.399   0.309  0.00  0.00    +0.201 C 
ATOM     18  O   UNL     1      -3.373   2.210   0.480  0.00  0.00    -0.278 OA
ATOM     19  N   UNL     1      -2.473   4.211   0.151  0.00  0.00    -0.285 N 
ATOM     20  H   UNL     1      -2.600   5.170   0.082  0.00  0.00    +0.155 HD
BRANCH  19  21
ATOM     21  C   UNL     1      -1.183   3.670   0.087  0.00  0.00    +0.060 A 
ATOM     22  C   UNL     1      -0.877   2.518   0.797  0.00  0.00    +0.045 A 
ATOM     23  C   UNL     1       0.399   1.988   0.737  0.00  0.00    +0.043 A 
ATOM     24  C   UNL     1       1.370   2.599  -0.038  0.00  0.00    +0.022 A 
ATOM     25  C   UNL     1       1.071   3.744  -0.751  0.00  0.00    +0.031 A 
ATOM     26  C   UNL     1      -0.204   4.285  -0.692  0.00  0.00    +0.088 A 
ATOM     27 CL   UNL     1       0.782   0.549   1.629  0.00  0.00    -0.083 Cl
BRANCH  26  28
ATOM     28  N   UNL     1      -0.509   5.448  -1.415  0.00  0.00    -0.218 N 
ATOM     29  C   UNL     1       0.349   6.207  -2.123  0.00  0.00    +0.225 A 
ATOM     30  N   UNL     1      -0.325   7.198  -2.648  0.00  0.00    -0.222 NA
ATOM     31  C   UNL     1      -1.608   7.107  -2.300  0.00  0.00    +0.245 A 
ATOM     32  N   UNL     1      -1.772   6.049  -1.549  0.00  0.00    -0.153 NA
ENDBRANCH  26  28
ENDBRANCH  19  21
ENDBRANCH   1  17
TORSDOF 5
