REMARK  Name = ZINC59891124
REMARK  11 active torsions:
REMARK  status: ('A' for Active; 'I' for Inactive)
REMARK    1  A    between atoms: C_1  and  C_2
REMARK    2  A    between atoms: C_3  and  C_16
REMARK    3  A    between atoms: C_4  and  C_15
REMARK    4  A    between atoms: C_16  and  C_17
REMARK    5  A    between atoms: C_17  and  C_18
REMARK    6  A    between atoms: N_20  and  C_21
REMARK    7  A    between atoms: C_21  and  C_22
REMARK    8  A    between atoms: C_22  and  N_30
REMARK    9  A    between atoms: C_26  and  C_29
REMARK   10  A    between atoms: N_30  and  C_31
REMARK   11  A    between atoms: N_30  and  C_32
REMARK                            x       y       z     vdW  Elec       q    Type
REMARK                         _______ _______ _______ _____ _____    ______ ____
ROOT
ATOM      1  C   UNL     1      -2.604   0.457   1.682  0.00  0.00    +0.100 C 
ENDROOT
BRANCH   1   2
ATOM      2  C   UNL     1      -3.933   1.166   1.628  0.00  0.00    +0.213 C 
ATOM      3  O   UNL     1      -4.465   1.377   0.558  0.00  0.00    -0.276 OA
ATOM      4  N   UNL     1      -4.530   1.565   2.768  0.00  0.00    -0.317 N 
ATOM      5  H   UNL     1      -4.105   1.396   3.623  0.00  0.00    +0.149 HD
BRANCH   4   6
ATOM      6  C   UNL     1      -5.822   2.254   2.716  0.00  0.00    +0.092 C 
BRANCH   6   7
ATOM      7  C   UNL     1      -6.344   2.469   4.138  0.00  0.00    -0.050 C 
ATOM      8  C   UNL     1      -5.410   3.423   4.885  0.00  0.00    -0.010 C 
ATOM      9  C   UNL     1      -5.360   4.765   4.153  0.00  0.00    -0.001 C 
ATOM     10  C   UNL     1      -6.766   5.367   4.095  0.00  0.00    +0.003 C 
ATOM     11  C   UNL     1      -7.699   4.413   3.348  0.00  0.00    -0.015 C 
ATOM     12  C   UNL     1      -7.749   3.071   4.081  0.00  0.00    -0.007 C 
ATOM     13  C   UNL     1      -9.105   5.015   3.290  0.00  0.00    +0.007 C 
BRANCH   7  14
ATOM     14  N   UNL     1      -6.391   1.180   4.841  0.00  0.00    +0.381 N 
ATOM     15  C   UNL     1      -6.926   1.380   6.195  0.00  0.00    -0.096 C 
ATOM     16  C   UNL     1      -7.260   0.252   4.105  0.00  0.00    -0.096 C 
ATOM     17  H   UNL     1      -5.461   0.794   4.901  0.00  0.00    -0.082 HD
ENDBRANCH   7  14
ENDBRANCH   6   7
ENDBRANCH   4   6
ENDBRANCH   1   2
BRANCH   1  18
ATOM     18  C   UNL     1      -2.151   0.115   0.261  0.00  0.00    +0.048 C 
BRANCH  18  21
ATOM     19  C   UNL     1       0.326   1.645   0.379  0.00  0.00    +0.066 C 
ATOM     20  C   UNL     1       0.369   0.138   0.372  0.00  0.00    +0.045 A 
ATOM     21  C   UNL     1      -0.822  -0.594   0.315  0.00  0.00    -0.005 A 
ATOM     22  C   UNL     1      -0.767  -1.951   0.309  0.00  0.00    +0.047 A 
ATOM     23  N   UNL     1       0.447  -2.568   0.358  0.00  0.00    -0.217 N 
ATOM     24  C   UNL     1       1.587  -1.818   0.413  0.00  0.00    +0.164 A 
ATOM     25  N   UNL     1       1.526  -0.486   0.413  0.00  0.00    -0.232 NA
ATOM     26  C   UNL     1       2.673  -2.718   0.456  0.00  0.00    +0.046 A 
ATOM     27  C   UNL     1       4.064  -2.551   0.520  0.00  0.00    +0.014 A 
ATOM     28  C   UNL     1       4.876  -3.644   0.550  0.00  0.00    +0.001 A 
ATOM     29  C   UNL     1       4.344  -4.932   0.519  0.00  0.00    +0.002 A 
ATOM     30  C   UNL     1       3.002  -5.135   0.457  0.00  0.00    +0.030 A 
ATOM     31  C   UNL     1       2.127  -4.029   0.424  0.00  0.00    +0.095 A 
ATOM     32  N   UNL     1       0.803  -3.922   0.366  0.00  0.00    -0.165 NA
ATOM     33  C   UNL     1      -2.034  -2.765   0.248  0.00  0.00    +0.066 C 
ENDBRANCH  18  21
ENDBRANCH   1  18
TORSDOF 6
