REMARK  Name = ZINC03682919
REMARK  3 active torsions:
REMARK  status: ('A' for Active; 'I' for Inactive)
REMARK    1  A    between atoms: C_4  and  C_7
REMARK    2  A    between atoms: C_26  and  C_30
REMARK    3  A    between atoms: C_27  and  N_29
REMARK                            x       y       z     vdW  Elec       q    Type
REMARK                         _______ _______ _______ _____ _____    ______ ____
ROOT
ATOM      1  C   UNL     1      -0.727   1.579   1.268  0.00  0.00    +0.034 C 
ATOM      2  C   UNL     1      -0.013   1.086   0.008  0.00  0.00    +0.083 C 
ATOM      3  C   UNL     1      -0.742   1.585  -1.217  0.00  0.00    +0.116 C 
ATOM      4  C   UNL     1      -1.395   2.763  -1.194  0.00  0.00    +0.058 C 
ATOM      5  C   UNL     1      -1.431   3.557  -0.032  0.00  0.00    +0.165 C 
ATOM      6  O   UNL     1      -2.014   4.623  -0.056  0.00  0.00    -0.292 OA
ATOM      7  C   UNL     1      -0.762   3.110   1.239  0.00  0.00    +0.088 C 
ATOM      8  C   UNL     1      -2.111   3.260  -2.423  0.00  0.00    +0.144 C 
ATOM      9  C   UNL     1      -3.592   3.114  -2.267  0.00  0.00    -0.000 A 
ATOM     10  C   UNL     1      -4.386   2.000  -2.091  0.00  0.00    +0.022 A 
ATOM     11  C   UNL     1      -5.756   2.214  -1.977  0.00  0.00    +0.018 A 
ATOM     12  C   UNL     1      -6.293   3.485  -2.038  0.00  0.00    +0.017 A 
ATOM     13  C   UNL     1      -5.500   4.608  -2.215  0.00  0.00    +0.025 A 
ATOM     14  C   UNL     1      -4.124   4.407  -2.330  0.00  0.00    +0.038 A 
ATOM     15  N   UNL     1      -3.112   5.335  -2.510  0.00  0.00    -0.284 N 
ATOM     16  C   UNL     1      -1.897   4.752  -2.575  0.00  0.00    +0.238 C 
ATOM     17  O   UNL     1      -0.834   5.316  -2.725  0.00  0.00    -0.274 OA
ATOM     18 BR   UNL     1      -6.907   0.733  -1.734  0.00  0.00    -0.050 Br
ATOM     19  C   UNL     1      -1.624   2.541  -3.647  0.00  0.00    +0.110 C 
ATOM     20  C   UNL     1      -0.956   1.367  -3.526  0.00  0.00    +0.199 C 
ATOM     21  O   UNL     1      -0.720   0.820  -2.323  0.00  0.00    -0.445 OA
ATOM     22  H   UNL     1      -3.259   6.291  -2.581  0.00  0.00    +0.155 HD
ENDROOT
BRANCH   1  26
ATOM     23  C   UNL     1       1.395   0.257   4.731  0.00  0.00    +0.000 A 
ATOM     24  C   UNL     1       0.081  -0.126   4.538  0.00  0.00    +0.000 A 
ATOM     25  C   UNL     1      -0.606   0.302   3.417  0.00  0.00    +0.004 A 
ATOM     26  C   UNL     1       0.021   1.112   2.490  0.00  0.00    -0.043 A 
ATOM     27  C   UNL     1       1.337   1.490   2.680  0.00  0.00    +0.004 A 
ATOM     28  C   UNL     1       2.022   1.067   3.804  0.00  0.00    +0.000 A 
ENDBRANCH   1  26
BRANCH  20  29
ATOM     29  N   UNL     1      -0.512   0.725  -4.656  0.00  0.00    -0.328 N 
ATOM     30  H   UNL     1      -0.034  -0.115  -4.580  0.00  0.00    +0.145 HD
ATOM     31  H   UNL     1      -0.678   1.112  -5.529  0.00  0.00    +0.145 HD
ENDBRANCH  20  29
BRANCH  19  32
ATOM     32  C   UNL     1      -1.865   3.096  -4.945  0.00  0.00    +0.102 C 
ATOM     33  N   UNL     1      -2.056   3.536  -5.975  0.00  0.00    -0.191 NA
ENDBRANCH  19  32
TORSDOF 3
