REMARK  Name = ZINC05002926
REMARK  10 active torsions:
REMARK  status: ('A' for Active; 'I' for Inactive)
REMARK    1  A    between atoms: C_1  and  C_2
REMARK    2  A    between atoms: C_7  and  O_10
REMARK    3  A    between atoms: O_10  and  C_11
REMARK    4  A    between atoms: C_11  and  C_13
REMARK    5  A    between atoms: C_14  and  C_31
REMARK    6  A    between atoms: C_19  and  C_21
REMARK    7  A    between atoms: C_23  and  O_29
REMARK    8  A    between atoms: C_26  and  O_27
REMARK    9  A    between atoms: O_27  and  C_28
REMARK   10  A    between atoms: O_29  and  C_30
REMARK                            x       y       z     vdW  Elec       q    Type
REMARK                         _______ _______ _______ _____ _____    ______ ____
ROOT
ATOM      1  C   UNL     1      -0.214   1.979   2.313  0.00  0.00    +0.078 C 
ATOM      2  C   UNL     1      -1.018   2.163   1.243  0.00  0.00    +0.019 C 
ATOM      3  N   UNL     1      -2.362   2.342   1.395  0.00  0.00    -0.300 N 
ATOM      4  C   UNL     1      -2.983   2.340   2.581  0.00  0.00    +0.135 C 
ATOM      5  S   UNL     1      -4.679   2.569   2.628  0.00  0.00    -0.019 S 
ATOM      6  N   UNL     1      -2.316   2.168   3.739  0.00  0.00    -0.315 N 
ATOM      7  C   UNL     1      -0.857   1.972   3.685  0.00  0.00    +0.145 C 
ATOM      8  C   UNL     1      -0.419   2.176  -0.140  0.00  0.00    +0.061 C 
ATOM      9  H   UNL     1      -2.899   2.474   0.597  0.00  0.00    +0.154 HD
ATOM     10  H   UNL     1      -2.785   2.174   4.588  0.00  0.00    +0.149 HD
ENDROOT
BRANCH   7  11
ATOM     11  C   UNL     1      -0.211   3.059   4.506  0.00  0.00    +0.022 A 
ATOM     12  C   UNL     1       0.674   2.729   5.514  0.00  0.00    +0.055 A 
ATOM     13  C   UNL     1       1.273   3.729   6.265  0.00  0.00    +0.121 A 
ATOM     14  C   UNL     1       0.973   5.060   6.013  0.00  0.00    +0.049 A 
ATOM     15  C   UNL     1       0.083   5.389   5.010  0.00  0.00    +0.049 A 
ATOM     16  C   UNL     1      -0.511   4.389   4.254  0.00  0.00    +0.126 A 
BRANCH  16  17
ATOM     17  O   UNL     1      -1.387   4.713   3.266  0.00  0.00    -0.495 OA
ATOM     18  C   UNL     1      -1.738   6.092   3.136  0.00  0.00    +0.277 C 
ENDBRANCH  16  17
BRANCH  13  19
ATOM     19  O   UNL     1       2.149   3.405   7.253  0.00  0.00    -0.495 OA
ATOM     20  C   UNL     1       2.723   4.486   7.992  0.00  0.00    +0.277 C 
ENDBRANCH  13  19
ENDBRANCH   7  11
BRANCH   1  21
ATOM     21  C   UNL     1       1.180   1.798   2.158  0.00  0.00    +0.339 C 
ATOM     22  O   UNL     1       1.659   1.689   1.045  0.00  0.00    -0.245 OA
BRANCH  21  23
ATOM     23  O   UNL     1       1.979   1.748   3.245  0.00  0.00    -0.458 OA
BRANCH  23  29
ATOM     24  C   UNL     1       6.402   2.765   5.132  0.00  0.00    +0.007 C 
ATOM     25  C   UNL     1       5.647   2.159   3.947  0.00  0.00    -0.011 C 
ATOM     26  C   UNL     1       6.040   0.688   3.790  0.00  0.00    +0.003 C 
ATOM     27  C   UNL     1       5.285   0.082   2.606  0.00  0.00    +0.004 C 
ATOM     28  C   UNL     1       3.779   0.183   2.855  0.00  0.00    +0.045 C 
ATOM     29  C   UNL     1       3.386   1.653   3.012  0.00  0.00    +0.177 C 
ATOM     30  C   UNL     1       4.141   2.260   4.196  0.00  0.00    +0.048 C 
ENDBRANCH  23  29
ENDBRANCH  21  23
ENDBRANCH   1  21
TORSDOF 6
