REMARK  Name = ZINC11866354
REMARK  10 active torsions:
REMARK  status: ('A' for Active; 'I' for Inactive)
REMARK    1  A    between atoms: C_1  and  C_2
REMARK    2  A    between atoms: C_2  and  O_3
REMARK    3  A    between atoms: O_3  and  C_4
REMARK    4  A    between atoms: C_9  and  O_10
REMARK    5  A    between atoms: O_10  and  C_11
REMARK    6  A    between atoms: C_16  and  C_17
REMARK    7  A    between atoms: C_20  and  O_24
REMARK    8  A    between atoms: C_22  and  O_23
REMARK    9  A    between atoms: O_24  and  C_25
REMARK   10  A    between atoms: C_25  and  C_26
REMARK                            x       y       z     vdW  Elec       q    Type
REMARK                         _______ _______ _______ _____ _____    ______ ____
ROOT
ATOM      1  C   UNL     1      -2.479  -0.098   0.135  0.00  0.00    +0.173 A 
ATOM      2  C   UNL     1      -3.620  -0.879   0.250  0.00  0.00    +0.162 A 
ATOM      3  N   UNL     1      -3.517  -2.194   0.135  0.00  0.00    -0.219 NA
ATOM      4  C   UNL     1      -2.347  -2.771  -0.093  0.00  0.00    +0.213 A 
ATOM      5  N   UNL     1      -1.234  -2.066  -0.216  0.00  0.00    -0.211 NA
ATOM      6  C   UNL     1      -1.256  -0.738  -0.112  0.00  0.00    +0.122 A 
ATOM      7  N   UNL     1      -2.286  -4.151  -0.206  0.00  0.00    -0.327 N 
ATOM      8  H   UNL     1      -1.435  -4.587  -0.373  0.00  0.00    +0.145 HD
ATOM      9  H   UNL     1      -3.094  -4.681  -0.119  0.00  0.00    +0.145 HD
ENDROOT
BRANCH   6  10
ATOM     10  C   UNL     1      -0.010   0.049  -0.250  0.00  0.00    +0.046 A 
ATOM     11  C   UNL     1       0.304   1.033   0.688  0.00  0.00    +0.017 A 
ATOM     12  C   UNL     1       1.465   1.764   0.557  0.00  0.00    +0.046 A 
ATOM     13  C   UNL     1       2.326   1.524  -0.507  0.00  0.00    +0.124 A 
ATOM     14  C   UNL     1       2.022   0.547  -1.444  0.00  0.00    +0.091 A 
ATOM     15  C   UNL     1       0.858  -0.192  -1.322  0.00  0.00    +0.130 A 
BRANCH  15  16
ATOM     16  O   UNL     1       0.559  -1.149  -2.238  0.00  0.00    -0.506 OA
ATOM     17  H   UNL     1       0.041  -0.827  -2.988  0.00  0.00    +0.292 HD
ENDBRANCH  15  16
BRANCH  13  18
ATOM     18  O   UNL     1       3.468   2.248  -0.630  0.00  0.00    -0.487 OA
BRANCH  18  19
ATOM     19  C   UNL     1       3.720   3.237   0.369  0.00  0.00    +0.268 C 
BRANCH  19  20
ATOM     20  C   UNL     1       5.022   3.934   0.070  0.00  0.00    +0.043 A 
ATOM     21  C   UNL     1       6.206   3.445   0.594  0.00  0.00    +0.131 A 
ATOM     22  C   UNL     1       7.403   4.083   0.313  0.00  0.00    +0.039 A 
ATOM     23  C   UNL     1       7.413   5.214  -0.481  0.00  0.00    +0.004 A 
ATOM     24  C   UNL     1       6.230   5.707  -0.999  0.00  0.00    +0.020 A 
ATOM     25  C   UNL     1       5.034   5.067  -0.724  0.00  0.00    +0.050 A 
ATOM     26 CL   UNL     1       3.549   5.685  -1.376  0.00  0.00    -0.083 Cl
ATOM     27  F   UNL     1       6.195   2.342   1.375  0.00  0.00    -0.205 F 
ENDBRANCH  19  20
ENDBRANCH  18  19
ENDBRANCH  13  18
ENDBRANCH   6  10
BRANCH   1  28
ATOM     28  O   UNL     1      -2.546   1.255   0.253  0.00  0.00    -0.449 OA
BRANCH  28  34
ATOM     29  C   UNL     1      -2.581   3.382  -0.824  0.00  0.00    +0.163 A 
ATOM     30  C   UNL     1      -2.668   4.128  -1.988  0.00  0.00    +0.049 A 
ATOM     31  C   UNL     1      -2.805   3.493  -3.208  0.00  0.00    +0.004 A 
ATOM     32  C   UNL     1      -2.855   2.112  -3.270  0.00  0.00    +0.004 A 
ATOM     33  C   UNL     1      -2.764   1.361  -2.113  0.00  0.00    +0.050 A 
ATOM     34  C   UNL     1      -2.632   1.992  -0.886  0.00  0.00    +0.170 A 
BRANCH  29  35
ATOM     35  O   UNL     1      -2.446   4.005   0.377  0.00  0.00    -0.489 OA
BRANCH  35  37
ATOM     36  C   UNL     1      -2.247   5.951   1.796  0.00  0.00    +0.048 C 
ATOM     37  C   UNL     1      -2.401   5.434   0.365  0.00  0.00    +0.226 C 
ENDBRANCH  35  37
ENDBRANCH  29  35
ENDBRANCH  28  34
ENDBRANCH   1  28
TORSDOF 9
