REMARK  Name = ZINC00663469
REMARK  11 active torsions:
REMARK  status: ('A' for Active; 'I' for Inactive)
REMARK    1  A    between atoms: C_1  and  C_2
REMARK    2  A    between atoms: C_2  and  O_3
REMARK    3  A    between atoms: O_3  and  C_4
REMARK    4  A    between atoms: C_4  and  C_6
REMARK    5  A    between atoms: C_7  and  C_23
REMARK    6  A    between atoms: C_9  and  N_22
REMARK    7  A    between atoms: C_10  and  C_20
REMARK    8  A    between atoms: C_11  and  C_13
REMARK    9  A    between atoms: C_23  and  S_24
REMARK   10  A    between atoms: S_24  and  C_25
REMARK   11  A    between atoms: C_26  and  C_36
REMARK                            x       y       z     vdW  Elec       q    Type
REMARK                         _______ _______ _______ _____ _____    ______ ____
ROOT
ATOM      1  C   UNL     1      -0.601   3.157   1.203  0.00  0.00    +0.088 C 
ATOM      2  C   UNL     1      -0.560   1.855   0.894  0.00  0.00    +0.128 C 
ATOM      3  O   UNL     1      -0.041   1.408  -0.257  0.00  0.00    -0.444 OA
ATOM      4  C   UNL     1       0.117   2.258  -1.286  0.00  0.00    +0.198 C 
ATOM      5  C   UNL     1       0.119   3.601  -1.109  0.00  0.00    +0.098 C 
ATOM      6  C   UNL     1      -0.054   4.196   0.263  0.00  0.00    +0.105 C 
ENDROOT
BRANCH   6   7
ATOM      7  C   UNL     1       1.280   4.678   0.772  0.00  0.00    -0.034 A 
ATOM      8  C   UNL     1       2.323   3.785   0.928  0.00  0.00    +0.007 A 
ATOM      9  C   UNL     1       3.548   4.227   1.390  0.00  0.00    +0.038 A 
ATOM     10  C   UNL     1       3.727   5.563   1.707  0.00  0.00    +0.123 A 
ATOM     11  C   UNL     1       2.680   6.456   1.555  0.00  0.00    +0.038 A 
ATOM     12  C   UNL     1       1.457   6.013   1.087  0.00  0.00    +0.007 A 
ATOM     13  F   UNL     1       4.923   5.995   2.164  0.00  0.00    -0.205 F 
ENDBRANCH   6   7
BRANCH   4  14
ATOM     14  N   UNL     1       0.276   1.752  -2.552  0.00  0.00    -0.328 N 
ATOM     15  H   UNL     1       0.387   2.354  -3.305  0.00  0.00    +0.145 HD
ATOM     16  H   UNL     1       0.277   0.792  -2.694  0.00  0.00    +0.145 HD
ENDBRANCH   4  14
BRANCH   1  17
ATOM     17  C   UNL     1      -1.169   3.562   2.436  0.00  0.00    +0.339 C 
ATOM     18  O   UNL     1      -1.232   2.778   3.364  0.00  0.00    -0.245 OA
BRANCH  17  19
ATOM     19  O   UNL     1      -1.638   4.819   2.581  0.00  0.00    -0.462 OA
BRANCH  19  21
ATOM     20  C   UNL     1      -2.673   6.613   3.826  0.00  0.00    +0.048 C 
ATOM     21  C   UNL     1      -2.197   5.159   3.852  0.00  0.00    +0.229 C 
ENDBRANCH  19  21
ENDBRANCH  17  19
ENDBRANCH   1  17
BRANCH   5  22
ATOM     22  C   UNL     1       0.287   4.465  -2.239  0.00  0.00    +0.101 C 
ATOM     23  N   UNL     1       0.421   5.149  -3.135  0.00  0.00    -0.191 NA
ENDBRANCH   5  22
BRANCH   2  24
ATOM     24  C   UNL     1      -1.125   0.857   1.872  0.00  0.00    +0.150 C 
BRANCH  24  25
ATOM     25  S   UNL     1       0.232   0.020   2.730  0.00  0.00    -0.097 S 
BRANCH  25  26
ATOM     26  C   UNL     1      -0.688  -1.056   3.779  0.00  0.00    +0.115 A 
ATOM     27  C   UNL     1      -0.011  -1.925   4.655  0.00  0.00    +0.084 A 
ATOM     28  C   UNL     1      -0.764  -2.769   5.480  0.00  0.00    +0.027 A 
ATOM     29  C   UNL     1      -2.143  -2.704   5.388  0.00  0.00    -0.025 A 
ATOM     30  C   UNL     1      -2.737  -1.835   4.509  0.00  0.00    +0.046 A 
ATOM     31  N   UNL     1      -2.011  -1.038   3.741  0.00  0.00    -0.244 NA
ATOM     32  C   UNL     1      -4.249  -1.774   4.410  0.00  0.00    +0.056 C 
ATOM     33  C   UNL     1      -4.743  -3.063   3.750  0.00  0.00    +0.006 C 
ATOM     34  C   UNL     1      -4.928  -4.164   4.775  0.00  0.00    +0.001 C 
ATOM     35  C   UNL     1      -3.638  -4.672   5.388  0.00  0.00    +0.005 C 
ATOM     36  C   UNL     1      -2.992  -3.599   6.268  0.00  0.00    +0.037 C 
BRANCH  27  37
ATOM     37  C   UNL     1       1.421  -1.944   4.701  0.00  0.00    +0.102 C 
ATOM     38  N   UNL     1       2.556  -1.960   4.738  0.00  0.00    -0.191 NA
ENDBRANCH  27  37
ENDBRANCH  25  26
ENDBRANCH  24  25
ENDBRANCH   2  24
TORSDOF 10
