REMARK  Name = ZINC09347478
REMARK  13 active torsions:
REMARK  status: ('A' for Active; 'I' for Inactive)
REMARK    1  A    between atoms: C_1  and  C_2
REMARK    2  A    between atoms: C_2  and  C_3
REMARK    3  A    between atoms: C_3  and  C_4
REMARK    4  A    between atoms: C_3  and  C_6
REMARK    5  A    between atoms: C_4  and  C_5
REMARK    6  A    between atoms: C_12  and  S_14
REMARK    7  A    between atoms: S_14  and  C_15
REMARK    8  A    between atoms: C_15  and  C_16
REMARK    9  A    between atoms: N_18  and  C_19
REMARK   10  A    between atoms: C_20  and  C_29
REMARK   11  A    between atoms: C_29  and  O_31
REMARK   12  A    between atoms: O_31  and  C_32
REMARK   13  A    between atoms: C_32  and  C_33
REMARK                            x       y       z     vdW  Elec       q    Type
REMARK                         _______ _______ _______ _____ _____    ______ ____
ROOT
ATOM      1  C   UNL     1       7.422  -2.425   0.139  0.00  0.00    +0.228 C 
ATOM      2  O   UNL     1       7.858  -1.770  -0.784  0.00  0.00    -0.275 OA
ATOM      3  N   UNL     1       6.110  -2.369   0.444  0.00  0.00    -0.279 N 
ATOM      4  H   UNL     1       5.761  -2.893   1.182  0.00  0.00    +0.155 HD
ENDROOT
BRANCH   3   5
ATOM      5  C   UNL     1       5.260  -1.563  -0.296  0.00  0.00    +0.086 A 
ATOM      6  C   UNL     1       3.895  -1.374  -0.138  0.00  0.00    +0.091 A 
ATOM      7  C   UNL     1       3.227  -0.462  -1.056  0.00  0.00    -0.021 A 
ATOM      8  C   UNL     1       4.029   0.102  -1.984  0.00  0.00    -0.004 A 
ATOM      9  S   UNL     1       5.644  -0.547  -1.645  0.00  0.00    -0.077 S 
ATOM     10  C   UNL     1       3.643   1.054  -3.072  0.00  0.00    +0.043 C 
ATOM     11  C   UNL     1       2.787   2.181  -2.479  0.00  0.00    +0.005 C 
ATOM     12  C   UNL     1       1.323   1.755  -2.532  0.00  0.00    +0.001 C 
ATOM     13  C   UNL     1       1.209   0.243  -2.346  0.00  0.00    +0.005 C 
ATOM     14  C   UNL     1       1.734  -0.166  -0.974  0.00  0.00    +0.037 C 
BRANCH   6  15
ATOM     15  C   UNL     1       3.152  -2.067   0.917  0.00  0.00    +0.342 C 
ATOM     16  O   UNL     1       2.656  -3.156   0.696  0.00  0.00    -0.245 OA
BRANCH  15  17
ATOM     17  O   UNL     1       3.018  -1.499   2.132  0.00  0.00    -0.461 OA
BRANCH  17  18
ATOM     18  C   UNL     1       2.268  -2.243   3.129  0.00  0.00    +0.229 C 
ATOM     19  C   UNL     1       2.223  -1.445   4.434  0.00  0.00    +0.048 C 
ENDBRANCH  17  18
ENDBRANCH  15  17
ENDBRANCH   6  15
ENDBRANCH   3   5
BRANCH   1  20
ATOM     20  C   UNL     1       8.346  -3.302   0.944  0.00  0.00    +0.172 C 
BRANCH  20  21
ATOM     21  S   UNL     1      10.033  -3.162   0.292  0.00  0.00    -0.088 S 
BRANCH  21  28
ATOM     22  C   UNL     1      13.491  -7.270   4.317  0.00  0.00    +0.222 C 
ATOM     23  O   UNL     1      12.363  -7.366   4.753  0.00  0.00    -0.275 OA
ATOM     24  N   UNL     1      13.740  -6.465   3.265  0.00  0.00    -0.263 N 
ATOM     25  C   UNL     1      12.703  -5.743   2.679  0.00  0.00    +0.189 A 
ATOM     26  N   UNL     1      11.418  -5.697   2.989  0.00  0.00    -0.125 NA
ATOM     27  N   UNL     1      10.601  -4.981   2.349  0.00  0.00    -0.133 NA
ATOM     28  C   UNL     1      10.980  -4.230   1.325  0.00  0.00    +0.160 A 
ATOM     29  S   UNL     1      12.728  -4.617   1.287  0.00  0.00    -0.024 S 
ATOM     30  H   UNL     1      14.642  -6.388   2.916  0.00  0.00    +0.157 HD
BRANCH  22  31
ATOM     31  C   UNL     1      14.613  -8.051   4.950  0.00  0.00    +0.075 C 
BRANCH  31  33
ATOM     32  C   UNL     1      15.063  -6.170   6.532  0.00  0.00    +0.004 C 
ATOM     33  C   UNL     1      15.678  -7.084   5.470  0.00  0.00    +0.009 C 
ENDBRANCH  31  33
BRANCH  31  34
ATOM     34  C   UNL     1      14.064  -8.879   6.114  0.00  0.00    +0.009 C 
ATOM     35  C   UNL     1      15.174  -9.771   6.674  0.00  0.00    +0.004 C 
ENDBRANCH  31  34
ENDBRANCH  22  31
ENDBRANCH  21  28
ENDBRANCH  20  21
ENDBRANCH   1  20
TORSDOF 10
