REMARK  Name = ZINC12876748
REMARK  7 active torsions:
REMARK  status: ('A' for Active; 'I' for Inactive)
REMARK    1  A    between atoms: C_1  and  O_2
REMARK    2  A    between atoms: O_2  and  C_3
REMARK    3  A    between atoms: C_6  and  C_9
REMARK    4  A    between atoms: C_9  and  N_10
REMARK    5  A    between atoms: C_15  and  C_32
REMARK    6  A    between atoms: C_32  and  C_33
REMARK    7  A    between atoms: C_33  and  C_34
REMARK                            x       y       z     vdW  Elec       q    Type
REMARK                         _______ _______ _______ _____ _____    ______ ____
ROOT
ATOM      1  N   UNL     1       0.044   7.617   2.595  0.00  0.00    -0.237 N 
ATOM      2  C   UNL     1       1.166   8.023   1.988  0.00  0.00    +0.224 C 
ATOM      3  O   UNL     1       1.353   8.026   0.790  0.00  0.00    -0.275 OA
ATOM      4  C   UNL     1       2.164   8.477   3.029  0.00  0.00    +0.073 C 
ATOM      5  C   UNL     1       3.352   7.493   3.061  0.00  0.00    -0.057 C 
ATOM      6  C   UNL     1       2.212   7.136   5.070  0.00  0.00    +0.050 C 
ATOM      7  C   UNL     1       1.414   8.244   4.370  0.00  0.00    +0.088 C 
ATOM      8  C   UNL     1       0.071   7.707   3.929  0.00  0.00    +0.225 C 
ATOM      9  O   UNL     1      -0.839   7.403   4.670  0.00  0.00    -0.275 OA
ATOM     10  C   UNL     1       3.156   7.700   6.093  0.00  0.00    -0.026 A 
ATOM     11  C   UNL     1       4.206   8.589   6.027  0.00  0.00    +0.004 A 
ATOM     12  C   UNL     1       4.905   8.922   7.173  0.00  0.00    +0.002 A 
ATOM     13  C   UNL     1       4.548   8.361   8.386  0.00  0.00    +0.022 A 
ATOM     14  C   UNL     1       3.498   7.468   8.457  0.00  0.00    +0.062 A 
ATOM     15  C   UNL     1       2.788   7.127   7.307  0.00  0.00    +0.054 A 
ATOM     16  N   UNL     1       1.705   6.263   7.124  0.00  0.00    -0.285 N 
ATOM     17  C   UNL     1       1.308   6.212   5.838  0.00  0.00    +0.211 C 
ATOM     18  O   UNL     1       0.398   5.549   5.388  0.00  0.00    -0.277 OA
ATOM     19 CL   UNL     1       3.058   6.770   9.984  0.00  0.00    -0.082 Cl
ATOM     20  H   UNL     1       1.288   5.759   7.841  0.00  0.00    +0.155 HD
ATOM     21  N   UNL     1       2.927   6.456   4.005  0.00  0.00    +0.394 N 
ATOM     22  H   UNL     1       3.745   5.965   4.384  0.00  0.00    -0.083 HD
ATOM     23  H   UNL     1       2.309   5.782   3.537  0.00  0.00    -0.083 HD
ENDROOT
BRANCH   1  24
ATOM     24  C   UNL     1      -1.120   7.122   1.857  0.00  0.00    +0.151 C 
BRANCH  24  28
ATOM     25  C   UNL     1      -0.787   2.892   1.346  0.00  0.00    +0.120 A 
ATOM     26  C   UNL     1      -0.253   3.751   0.396  0.00  0.00    +0.046 A 
ATOM     27  C   UNL     1      -0.368   5.117   0.561  0.00  0.00    +0.009 A 
ATOM     28  C   UNL     1      -1.003   5.630   1.677  0.00  0.00    -0.029 A 
ATOM     29  C   UNL     1      -1.531   4.776   2.628  0.00  0.00    +0.009 A 
ATOM     30  C   UNL     1      -1.425   3.409   2.465  0.00  0.00    +0.046 A 
BRANCH  25  32
ATOM     31  C   UNL     1      -0.013   1.086   0.008  0.00  0.00    +0.277 C 
ATOM     32  O   UNL     1      -0.682   1.547   1.184  0.00  0.00    -0.495 OA
ENDBRANCH  25  32
ENDBRANCH  24  28
ENDBRANCH   1  24
BRANCH   5  33
ATOM     33  C   UNL     1       3.600   6.912   1.668  0.00  0.00    -0.006 C 
BRANCH  33  34
ATOM     34  C   UNL     1       4.855   6.038   1.696  0.00  0.00    +0.094 C 
BRANCH  34  35
ATOM     35  C   UNL     1       5.100   5.465   0.324  0.00  0.00    +0.210 C 
ATOM     36  O   UNL     1       4.345   5.731  -0.587  0.00  0.00    -0.276 OA
ATOM     37  N   UNL     1       6.158   4.659   0.109  0.00  0.00    -0.329 N 
ATOM     38  H   UNL     1       6.762   4.446   0.837  0.00  0.00    +0.145 HD
ATOM     39  H   UNL     1       6.315   4.290  -0.775  0.00  0.00    +0.145 HD
ENDBRANCH  34  35
ENDBRANCH  33  34
ENDBRANCH   5  33
TORSDOF 6
