REMARK  Name = ZINC13143949
REMARK  7 active torsions:
REMARK  status: ('A' for Active; 'I' for Inactive)
REMARK    1  A    between atoms: C_1  and  C_2
REMARK    2  A    between atoms: C_5  and  S_8
REMARK    3  A    between atoms: S_8  and  C_9
REMARK    4  A    between atoms: C_9  and  C_10
REMARK    5  A    between atoms: C_11  and  C_21
REMARK    6  A    between atoms: N_23  and  N_24
REMARK    7  A    between atoms: C_25  and  C_26
REMARK                            x       y       z     vdW  Elec       q    Type
REMARK                         _______ _______ _______ _____ _____    ______ ____
ROOT
ATOM      1  C   UNL     1       0.097  -6.482   1.870  0.00  0.00    +0.089 A 
ATOM      2  C   UNL     1      -0.989  -7.308   1.943  0.00  0.00    +0.173 A 
ATOM      3  N   UNL     1      -0.553  -8.575   2.058  0.00  0.00    -0.124 NA
ATOM      4  N   UNL     1       0.734  -8.590   2.061  0.00  0.00    -0.058 NA
ATOM      5  N   UNL     1       1.192  -7.271   1.937  0.00  0.00    -0.191 N 
ATOM      6  C   UNL     1       2.527  -6.851   1.894  0.00  0.00    +0.240 A 
ATOM      7  C   UNL     1       3.703  -7.723   1.963  0.00  0.00    +0.206 A 
ATOM      8  N   UNL     1       4.771  -6.977   1.893  0.00  0.00    -0.032 NA
ATOM      9  O   UNL     1       4.352  -5.629   1.780  0.00  0.00    -0.239 OA
ATOM     10  N   UNL     1       2.935  -5.619   1.782  0.00  0.00    -0.027 NA
ATOM     11  N   UNL     1       3.683  -9.108   2.082  0.00  0.00    -0.337 N 
ATOM     12  H   UNL     1       2.836  -9.579   2.127  0.00  0.00    +0.144 HD
ATOM     13  H   UNL     1       4.516  -9.604   2.120  0.00  0.00    +0.144 HD
ENDROOT
BRANCH   2  14
ATOM     14  C   UNL     1      -2.400  -6.882   1.903  0.00  0.00    +0.285 C 
ATOM     15  O   UNL     1      -2.677  -5.702   1.797  0.00  0.00    -0.267 OA
ATOM     16  N   UNL     1      -3.384  -7.800   1.984  0.00  0.00    -0.202 N 
ATOM     17  H   UNL     1      -3.163  -8.741   2.069  0.00  0.00    +0.178 HD
BRANCH  16  18
ATOM     18  N   UNL     1      -4.725  -7.395   1.947  0.00  0.00    -0.192 NA
ATOM     19  C   UNL     1      -5.659  -8.267   2.024  0.00  0.00    +0.107 C 
BRANCH  19  20
ATOM     20  C   UNL     1      -7.101  -7.832   1.983  0.00  0.00    +0.036 C 
ATOM     21  C   UNL     1      -7.808  -8.269   3.272  0.00  0.00    +0.013 C 
ATOM     22  C   UNL     1      -9.213  -7.662   3.283  0.00  0.00    +0.027 C 
ATOM     23  C   UNL     1      -9.901  -7.928   1.976  0.00  0.00    -0.031 C 
ATOM     24  C   UNL     1      -9.288  -8.286   0.894  0.00  0.00    -0.030 C 
ATOM     25  C   UNL     1      -7.803  -8.490   0.794  0.00  0.00    +0.036 C 
ENDBRANCH  19  20
ENDBRANCH  16  18
ENDBRANCH   2  14
BRANCH   1  26
ATOM     26  C   UNL     1       0.077  -4.981   1.735  0.00  0.00    +0.132 C 
BRANCH  26  27
ATOM     27  S   UNL     1       0.062  -4.533  -0.023  0.00  0.00    -0.119 S 
BRANCH  27  32
ATOM     28  C   UNL     1      -0.018   1.503   0.010  0.00  0.00    +0.044 C 
ATOM     29  C   UNL     1       0.002  -0.004   0.002  0.00  0.00    -0.050 A 
ATOM     30  C   UNL     1       0.006  -0.687  -1.200  0.00  0.00    +0.004 A 
ATOM     31  C   UNL     1       0.024  -2.068  -1.212  0.00  0.00    +0.015 A 
ATOM     32  C   UNL     1       0.039  -2.771  -0.013  0.00  0.00    +0.008 A 
ATOM     33  C   UNL     1       0.036  -2.081   1.193  0.00  0.00    +0.015 A 
ATOM     34  C   UNL     1       0.023  -0.700   1.197  0.00  0.00    +0.004 A 
ENDBRANCH  27  32
ENDBRANCH  26  27
ENDBRANCH   1  26
TORSDOF 6
