REMARK  Name = ZINC12482416
REMARK  5 active torsions:
REMARK  status: ('A' for Active; 'I' for Inactive)
REMARK    1  A    between atoms: C_4  and  C_7
REMARK    2  A    between atoms: N_8  and  C_9
REMARK    3  A    between atoms: C_12  and  S_15
REMARK    4  A    between atoms: S_15  and  N_18
REMARK    5  A    between atoms: N_18  and  C_19
REMARK                            x       y       z     vdW  Elec       q    Type
REMARK                         _______ _______ _______ _____ _____    ______ ____
ROOT
ATOM      1  C   UNL     1       6.461  -1.768   0.556  0.00  0.00    +0.064 A 
ATOM      2  C   UNL     1       5.849  -2.970   0.919  0.00  0.00    +0.029 A 
ATOM      3  C   UNL     1       4.595  -3.276   0.434  0.00  0.00    +0.031 A 
ATOM      4  C   UNL     1       3.943  -2.396  -0.411  0.00  0.00    +0.109 A 
ATOM      5  C   UNL     1       4.545  -1.206  -0.780  0.00  0.00    +0.031 A 
ATOM      6  C   UNL     1       5.796  -0.884  -0.297  0.00  0.00    +0.029 A 
ENDROOT
BRANCH   4   7
ATOM      7  S   UNL     1       2.341  -2.795  -1.026  0.00  0.00    +0.072 S 
ATOM      8  O   UNL     1       2.181  -4.198  -0.863  0.00  0.00    -0.150 OA
ATOM      9  O   UNL     1       2.220  -2.156  -2.290  0.00  0.00    -0.150 OA
BRANCH   7  10
ATOM     10  N   UNL     1       1.238  -2.074  -0.024  0.00  0.00    -0.216 N 
ATOM     11  H   UNL     1       0.629  -1.405  -0.374  0.00  0.00    +0.174 HD
BRANCH  10  12
ATOM     12  C   UNL     1       1.183  -2.429   1.326  0.00  0.00    +0.048 A 
ATOM     13  C   UNL     1       1.111  -1.444   2.303  0.00  0.00    +0.025 A 
ATOM     14  C   UNL     1       1.058  -1.798   3.637  0.00  0.00    +0.016 A 
ATOM     15  C   UNL     1       1.077  -3.133   4.000  0.00  0.00    +0.013 A 
ATOM     16  C   UNL     1       1.149  -4.116   3.030  0.00  0.00    +0.016 A 
ATOM     17  C   UNL     1       1.202  -3.768   1.695  0.00  0.00    +0.025 A 
ATOM     18  I   UNL     1       0.997  -3.666   6.025  0.00  0.00    -0.044 I 
ENDBRANCH  10  12
ENDBRANCH   7  10
ENDBRANCH   4   7
BRANCH   1  20
ATOM     19  C   UNL     1       8.612  -0.980   0.230  0.00  0.00    +0.119 C 
ATOM     20  N   UNL     1       7.705  -1.457   1.034  0.00  0.00    -0.255 NA
BRANCH  19  24
ATOM     21  C   UNL     1      12.468  -0.016   1.712  0.00  0.00    +0.000 A 
ATOM     22  C   UNL     1      12.177   0.177   0.373  0.00  0.00    +0.001 A 
ATOM     23  C   UNL     1      10.926  -0.134  -0.116  0.00  0.00    +0.009 A 
ATOM     24  C   UNL     1       9.950  -0.646   0.744  0.00  0.00    -0.007 A 
ATOM     25  C   UNL     1      10.250  -0.834   2.096  0.00  0.00    +0.009 A 
ATOM     26  C   UNL     1      11.508  -0.524   2.570  0.00  0.00    +0.001 A 
ENDBRANCH  19  24
ENDBRANCH   1  20
TORSDOF 5
