REMARK  Name = ZINC09208718
REMARK  7 active torsions:
REMARK  status: ('A' for Active; 'I' for Inactive)
REMARK    1  A    between atoms: C_1  and  N_57
REMARK    2  A    between atoms: C_2  and  C_3
REMARK    3  A    between atoms: C_2  and  N_57
REMARK    4  A    between atoms: C_8  and  N_9
REMARK    5  A    between atoms: C_14  and  C_15
REMARK    6  A    between atoms: C_14  and  N_57
REMARK    7  A    between atoms: C_21  and  C_26
REMARK                            x       y       z     vdW  Elec       q    Type
REMARK                         _______ _______ _______ _____ _____    ______ ____
ROOT
ATOM      1  C   UNL     1       0.981   3.340   0.145  0.00  0.00    +0.094 A 
ATOM      2  N   UNL     1       0.930   1.983   0.132  0.00  0.00    -0.312 N 
ATOM      3  H   UNL     1       1.756   1.477   0.074  0.00  0.00    +0.170 HD
ATOM      4  C   UNL     1      -0.243   1.326   0.196  0.00  0.00    +0.260 A 
ATOM      5  O   UNL     1      -0.272   0.108   0.182  0.00  0.00    -0.267 OA
ATOM      6  C   UNL     1      -1.457   2.081   0.274  0.00  0.00    +0.080 A 
ATOM      7  C   UNL     1      -2.833   1.608   0.359  0.00  0.00    +0.004 A 
ATOM      8  C   UNL     1      -3.832   2.520   0.432  0.00  0.00    +0.056 A 
ATOM      9  S   UNL     1      -2.970   4.080   0.397  0.00  0.00    -0.076 S 
ATOM     10  C   UNL     1      -1.305   3.477   0.287  0.00  0.00    +0.116 A 
ATOM     11  N   UNL     1      -0.109   4.055   0.220  0.00  0.00    -0.229 NA
ENDROOT
BRANCH   7  12
ATOM     12  C   UNL     1      -3.134   0.156   0.360  0.00  0.00    -0.016 A 
ATOM     13  C   UNL     1      -2.580  -0.673  -0.614  0.00  0.00    +0.011 A 
ATOM     14  C   UNL     1      -2.860  -2.025  -0.606  0.00  0.00    +0.039 A 
ATOM     15  C   UNL     1      -3.698  -2.555   0.361  0.00  0.00    +0.123 A 
ATOM     16  C   UNL     1      -4.254  -1.734   1.328  0.00  0.00    +0.039 A 
ATOM     17  C   UNL     1      -3.977  -0.383   1.331  0.00  0.00    +0.011 A 
ATOM     18  F   UNL     1      -3.973  -3.878   0.361  0.00  0.00    -0.205 F 
ENDBRANCH   7  12
BRANCH   1  19
ATOM     19  C   UNL     1       2.318   4.032   0.071  0.00  0.00    -0.003 C 
BRANCH  19  21
ATOM     20  C   UNL     1       1.573   5.917   1.395  0.00  0.00    -0.095 C 
ATOM     21  N   UNL     1       2.099   5.493   0.081  0.00  0.00    +0.385 N 
ATOM     22  H   UNL     1       1.414   5.733  -0.645  0.00  0.00    -0.081 HD
BRANCH  21  23
ATOM     23  C   UNL     1       3.368   6.196  -0.206  0.00  0.00    -0.041 C 
BRANCH  23  24
ATOM     24  C   UNL     1       3.088   7.670  -0.341  0.00  0.00    -0.043 A 
ATOM     25  C   UNL     1       3.493   8.544   0.649  0.00  0.00    +0.003 A 
ATOM     26  C   UNL     1       3.241   9.898   0.524  0.00  0.00    +0.000 A 
ATOM     27  C   UNL     1       2.574  10.381  -0.588  0.00  0.00    +0.002 A 
ATOM     28  C   UNL     1       2.162   9.512  -1.578  0.00  0.00    +0.023 A 
ATOM     29  C   UNL     1       2.418   8.152  -1.458  0.00  0.00    +0.031 A 
BRANCH  29  30
ATOM     30  N   UNL     1       2.002   7.270  -2.458  0.00  0.00    -0.330 N 
ATOM     31  C   UNL     1       1.222   7.981  -3.503  0.00  0.00    +0.105 C 
ATOM     32  C   UNL     1       1.310   7.027  -4.721  0.00  0.00    +0.020 C 
ATOM     33  C   UNL     1       2.752   6.479  -4.627  0.00  0.00    +0.020 C 
ATOM     34  C   UNL     1       3.162   6.674  -3.156  0.00  0.00    +0.105 C 
ENDBRANCH  29  30
ENDBRANCH  23  24
ENDBRANCH  21  23
ENDBRANCH  19  21
ENDBRANCH   1  19
TORSDOF 6
