REMARK  Name = ZINC66658991
REMARK  9 active torsions:
REMARK  status: ('A' for Active; 'I' for Inactive)
REMARK    1  A    between atoms: C_1  and  C_2
REMARK    2  A    between atoms: C_2  and  C_3
REMARK    3  A    between atoms: C_2  and  C_4
REMARK    4  A    between atoms: C_4  and  C_5
REMARK    5  A    between atoms: N_7  and  C_8
REMARK    6  A    between atoms: C_8  and  C_10
REMARK    7  A    between atoms: C_8  and  C_16
REMARK    8  A    between atoms: N_18  and  C_19
REMARK    9  A    between atoms: N_25  and  C_29
REMARK                            x       y       z     vdW  Elec       q    Type
REMARK                         _______ _______ _______ _____ _____    ______ ____
ROOT
ATOM      1  C   UNL     1      -4.188  -0.032  -2.630  0.00  0.00    +0.190 C 
ENDROOT
BRANCH   1   2
ATOM      2  C   UNL     1      -4.705   1.382  -2.683  0.00  0.00    -0.018 A 
ATOM      3  C   UNL     1      -5.390   1.909  -1.604  0.00  0.00    +0.006 A 
ATOM      4  C   UNL     1      -5.864   3.207  -1.654  0.00  0.00    +0.000 A 
ATOM      5  C   UNL     1      -5.654   3.977  -2.782  0.00  0.00    +0.000 A 
ATOM      6  C   UNL     1      -4.969   3.450  -3.861  0.00  0.00    +0.000 A 
ATOM      7  C   UNL     1      -4.491   2.154  -3.810  0.00  0.00    +0.006 A 
ENDBRANCH   1   2
BRANCH   1  10
ATOM      8  C   UNL     1      -2.388   0.031  -0.989  0.00  0.00    +0.214 C 
ATOM      9  O   UNL     1      -1.686   0.563  -1.823  0.00  0.00    -0.276 OA
ATOM     10  N   UNL     1      -3.657  -0.307  -1.292  0.00  0.00    -0.300 N 
ATOM     11  H   UNL     1      -4.218  -0.733  -0.625  0.00  0.00    +0.150 HD
BRANCH   8  12
ATOM     12  C   UNL     1      -1.841  -0.252   0.387  0.00  0.00    +0.098 C 
BRANCH  12  14
ATOM     13  C   UNL     1      -0.346   1.749   0.319  0.00  0.00    +0.008 C 
ATOM     14  C   UNL     1      -0.390   0.227   0.467  0.00  0.00    -0.008 C 
ATOM     15  C   UNL     1       0.204  -0.171   1.819  0.00  0.00    +0.008 C 
ENDBRANCH  12  14
ENDBRANCH   8  12
ENDBRANCH   1  10
BRANCH   1  16
ATOM     16  C   UNL     1      -5.312  -0.990  -2.930  0.00  0.00    +0.242 C 
ATOM     17  O   UNL     1      -5.638  -1.821  -2.108  0.00  0.00    -0.273 OA
ATOM     18  N   UNL     1      -5.957  -0.924  -4.112  0.00  0.00    -0.284 N 
ATOM     19  H   UNL     1      -5.749  -0.212  -4.738  0.00  0.00    +0.155 HD
BRANCH  18  20
ATOM     20  C   UNL     1      -6.926  -1.882  -4.436  0.00  0.00    +0.036 A 
ATOM     21  C   UNL     1      -8.024  -1.525  -5.210  0.00  0.00    +0.027 A 
ATOM     22  C   UNL     1      -8.981  -2.465  -5.534  0.00  0.00    +0.050 A 
ATOM     23  C   UNL     1      -8.850  -3.771  -5.086  0.00  0.00    +0.157 A 
ATOM     24  C   UNL     1      -7.749  -4.131  -4.309  0.00  0.00    +0.092 A 
ATOM     25  C   UNL     1      -6.786  -3.188  -3.989  0.00  0.00    +0.053 A 
ATOM     26  N   UNL     1      -7.895  -5.486  -4.015  0.00  0.00    -0.277 N 
ATOM     27  C   UNL     1      -9.036  -5.907  -4.597  0.00  0.00    +0.421 A 
ATOM     28  O   UNL     1      -9.474  -7.040  -4.545  0.00  0.00    -0.223 OA
ATOM     29  O   UNL     1      -9.614  -4.881  -5.241  0.00  0.00    -0.407 OA
ATOM     30  C   UNL     1      -6.975  -6.304  -3.221  0.00  0.00    +0.156 C 
ENDBRANCH  18  20
ENDBRANCH   1  16
TORSDOF 6
