REMARK  Name = ZINC39226475
REMARK  10 active torsions:
REMARK  status: ('A' for Active; 'I' for Inactive)
REMARK    1  A    between atoms: C_1  and  C_2
REMARK    2  A    between atoms: C_2  and  C_3
REMARK    3  A    between atoms: C_2  and  C_4
REMARK    4  A    between atoms: C_2  and  O_5
REMARK    5  A    between atoms: O_5  and  C_6
REMARK    6  A    between atoms: C_6  and  C_8
REMARK    7  A    between atoms: C_8  and  N_9
REMARK    8  A    between atoms: C_10  and  C_12
REMARK    9  A    between atoms: C_15  and  C_18
REMARK   10  A    between atoms: N_30  and  C_33
REMARK                            x       y       z     vdW  Elec       q    Type
REMARK                         _______ _______ _______ _____ _____    ______ ____
ROOT
ATOM      1  C   UNL     1       6.324   0.284  -3.428  0.00  0.00    +0.037 A 
ATOM      2  C   UNL     1       6.716   1.077  -2.346  0.00  0.00    +0.013 A 
ATOM      3  C   UNL     1       7.994   1.585  -2.294  0.00  0.00    +0.009 A 
ATOM      4  C   UNL     1       8.898   1.309  -3.321  0.00  0.00    -0.018 A 
ATOM      5  C   UNL     1       8.507   0.517  -4.401  0.00  0.00    +0.009 A 
ATOM      6  C   UNL     1       7.231   0.004  -4.452  0.00  0.00    +0.013 A 
ENDROOT
BRANCH   4   7
ATOM      7  C   UNL     1      10.274   1.857  -3.264  0.00  0.00    -0.017 A 
ATOM      8  C   UNL     1      10.669   2.645  -2.183  0.00  0.00    +0.012 A 
ATOM      9  C   UNL     1      11.948   3.153  -2.137  0.00  0.00    +0.046 A 
ATOM     10  C   UNL     1      12.850   2.884  -3.164  0.00  0.00    +0.124 A 
ATOM     11  C   UNL     1      12.461   2.098  -4.237  0.00  0.00    -0.005 A 
ATOM     12  C   UNL     1      11.179   1.584  -4.287  0.00  0.00    +0.015 A 
ATOM     13  C   UNL     1      13.413   1.775  -5.361  0.00  0.00    +0.043 C 
ATOM     14  C   UNL     1      14.581   2.764  -5.347  0.00  0.00    +0.052 C 
ATOM     15  C   UNL     1      15.116   2.860  -3.914  0.00  0.00    +0.108 C 
ATOM     16  O   UNL     1      14.099   3.412  -3.081  0.00  0.00    -0.486 OA
ATOM     17  C   UNL     1      16.352   3.761  -3.889  0.00  0.00    +0.029 C 
ATOM     18  C   UNL     1      16.930   3.787  -2.473  0.00  0.00    -0.075 C 
ATOM     19  N   UNL     1      17.303   2.426  -2.068  0.00  0.00    +0.378 N 
ATOM     20  C   UNL     1      16.107   1.577  -2.017  0.00  0.00    -0.075 C 
ATOM     21  C   UNL     1      15.496   1.464  -3.416  0.00  0.00    +0.029 C 
ATOM     22  C   UNL     1      17.931   2.466  -0.741  0.00  0.00    -0.096 C 
ATOM     23  H   UNL     1      17.956   2.045  -2.736  0.00  0.00    -0.082 HD
ENDBRANCH   4   7
BRANCH   1  25
ATOM     24  N   UNL     1       4.078   0.009  -2.496  0.00  0.00    -0.301 N 
ATOM     25  C   UNL     1       4.953  -0.262  -3.484  0.00  0.00    +0.245 C 
ATOM     26  O   UNL     1       4.614  -0.956  -4.423  0.00  0.00    -0.270 OA
ATOM     27  H   UNL     1       4.349   0.562  -1.747  0.00  0.00    +0.150 HD
BRANCH  24  28
ATOM     28  C   UNL     1       2.718  -0.533  -2.552  0.00  0.00    +0.225 C 
BRANCH  28  29
ATOM     29  C   UNL     1       1.948  -0.086  -1.336  0.00  0.00    +0.325 C 
ATOM     30  O   UNL     1       2.481   0.614  -0.508  0.00  0.00    -0.249 OA
BRANCH  29  31
ATOM     31  O   UNL     1       0.671  -0.465  -1.174  0.00  0.00    -0.458 OA
BRANCH  31  33
ATOM     32  C   UNL     1      -0.019   1.526   0.010  0.00  0.00    +0.055 C 
ATOM     33  C   UNL     1       0.002  -0.004   0.002  0.00  0.00    +0.105 C 
ATOM     34  C   UNL     1       0.742  -0.511   1.242  0.00  0.00    +0.055 C 
ATOM     35  C   UNL     1      -1.433  -0.534   0.013  0.00  0.00    +0.055 C 
ENDBRANCH  31  33
ENDBRANCH  29  31
ENDBRANCH  28  29
ENDBRANCH  24  28
ENDBRANCH   1  25
TORSDOF 6
