REMARK  Name = ZINC25899773
REMARK  9 active torsions:
REMARK  status: ('A' for Active; 'I' for Inactive)
REMARK    1  A    between atoms: C_1  and  C_2
REMARK    2  A    between atoms: C_2  and  C_3
REMARK    3  A    between atoms: C_3  and  C_4
REMARK    4  A    between atoms: C_4  and  N_5
REMARK    5  A    between atoms: C_6  and  N_37
REMARK    6  A    between atoms: C_7  and  N_14
REMARK    7  A    between atoms: N_14  and  C_15
REMARK    8  A    between atoms: C_15  and  C_16
REMARK    9  A    between atoms: C_22  and  C_24
REMARK                            x       y       z     vdW  Elec       q    Type
REMARK                         _______ _______ _______ _____ _____    ______ ____
ROOT
ATOM      1  N   UNL     1       3.971   5.296  -1.809  0.00  0.00    -0.259 N 
ATOM      2  C   UNL     1       2.881   4.505  -1.732  0.00  0.00    +0.228 C 
ATOM      3  O   UNL     1       1.982   4.630  -2.538  0.00  0.00    -0.275 OA
ENDROOT
BRANCH   2   4
ATOM      4  C   UNL     1       2.779   3.465  -0.646  0.00  0.00    +0.116 C 
ATOM      5  C   UNL     1       2.184   4.098   0.613  0.00  0.00    +0.113 C 
ATOM      6  C   UNL     1       0.723   4.386   0.399  0.00  0.00    +0.218 C 
ATOM      7  O   UNL     1       0.227   5.373   0.902  0.00  0.00    -0.275 OA
ATOM      8  N   UNL     1      -0.041   3.562  -0.342  0.00  0.00    -0.285 N 
ATOM      9  C   UNL     1       0.516   2.429  -0.942  0.00  0.00    +0.040 A 
ATOM     10  C   UNL     1       1.892   2.339  -1.111  0.00  0.00    -0.014 A 
ATOM     11  C   UNL     1       2.444   1.220  -1.703  0.00  0.00    +0.009 A 
ATOM     12  C   UNL     1       1.628   0.188  -2.128  0.00  0.00    +0.039 A 
ATOM     13  C   UNL     1       0.255   0.276  -1.968  0.00  0.00    +0.125 A 
ATOM     14  C   UNL     1      -0.302   1.393  -1.370  0.00  0.00    +0.062 A 
ATOM     15  F   UNL     1      -0.540  -0.731  -2.390  0.00  0.00    -0.205 F 
ATOM     16  H   UNL     1      -1.111   3.778  -0.478  0.00  0.00    +0.155 HD
ENDBRANCH   2   4
BRANCH   1  19
ATOM     17  N   UNL     1       4.593   6.954  -5.028  0.00  0.00    -0.280 N 
ATOM     18  C   UNL     1       4.527   5.969  -4.070  0.00  0.00    +0.127 A 
ATOM     19  C   UNL     1       4.056   6.285  -2.812  0.00  0.00    +0.140 A 
ATOM     20  C   UNL     1       3.667   7.611  -2.545  0.00  0.00    +0.277 A 
ATOM     21  O   UNL     1       3.251   7.918  -1.440  0.00  0.00    -0.266 OA
ATOM     22  N   UNL     1       3.756   8.538  -3.518  0.00  0.00    -0.273 N 
ATOM     23  H   UNL     1       3.454   9.577  -3.317  0.00  0.00    +0.173 HD
ATOM     24  C   UNL     1       4.213   8.212  -4.740  0.00  0.00    +0.331 A 
ATOM     25  O   UNL     1       4.284   9.069  -5.599  0.00  0.00    -0.246 OA
BRANCH  18  26
ATOM     26  N   UNL     1       4.922   4.686  -4.363  0.00  0.00    -0.343 N 
ATOM     27  H   UNL     1       4.867   3.904  -3.592  0.00  0.00    +0.144 HD
ATOM     28  H   UNL     1       5.293   4.441  -5.369  0.00  0.00    +0.144 HD
ENDBRANCH  18  26
BRANCH  17  29
ATOM     29  C   UNL     1       5.086   6.632  -6.370  0.00  0.00    +0.128 C 
BRANCH  29  30
ATOM     30  C   UNL     1       6.603   6.830  -6.417  0.00  0.00    +0.021 C 
BRANCH  30  32
ATOM     31  C   UNL     1       8.634   6.691  -7.865  0.00  0.00    +0.004 C 
ATOM     32  C   UNL     1       7.118   6.494  -7.818  0.00  0.00    -0.002 C 
ENDBRANCH  30  32
ENDBRANCH  29  30
ENDBRANCH  17  29
ENDBRANCH   1  19
BRANCH   1  33
ATOM     33  C   UNL     1       5.066   5.128  -0.851  0.00  0.00    +0.149 C 
BRANCH  33  34
ATOM     34  C   UNL     1       6.135   4.256  -1.457  0.00  0.00    -0.030 A 
ATOM     35  C   UNL     1       6.178   2.907  -1.158  0.00  0.00    +0.005 A 
ATOM     36  C   UNL     1       7.156   2.106  -1.718  0.00  0.00    +0.000 A 
ATOM     37  C   UNL     1       8.096   2.655  -2.569  0.00  0.00    +0.000 A 
ATOM     38  C   UNL     1       8.056   4.005  -2.864  0.00  0.00    +0.000 A 
ATOM     39  C   UNL     1       7.076   4.806  -2.308  0.00  0.00    +0.005 A 
ENDBRANCH  33  34
ENDBRANCH   1  33
TORSDOF 8
