REMARK  Name = ZINC35549368
REMARK  8 active torsions:
REMARK  status: ('A' for Active; 'I' for Inactive)
REMARK    1  A    between atoms: C_4  and  C_7
REMARK    2  A    between atoms: C_7  and  C_9
REMARK    3  A    between atoms: C_14  and  N_15
REMARK    4  A    between atoms: N_15  and  C_16
REMARK    5  A    between atoms: C_16  and  C_17
REMARK    6  A    between atoms: N_19  and  N_20
REMARK    7  A    between atoms: N_20  and  C_21
REMARK    8  A    between atoms: C_24  and  N_27
REMARK                            x       y       z     vdW  Elec       q    Type
REMARK                         _______ _______ _______ _____ _____    ______ ____
ROOT
ATOM      1  N   UNL     1       6.238  -1.960   0.007  0.00  0.00    -0.335 N 
ATOM      2  H   UNL     1       6.158  -0.998   0.107  0.00  0.00    +0.147 HD
ENDROOT
BRANCH   1   8
ATOM      3  C   UNL     1       3.826  -2.151  -0.076  0.00  0.00    +0.044 A 
ATOM      4  C   UNL     1       2.685  -2.957  -0.143  0.00  0.00    +0.028 A 
ATOM      5  C   UNL     1       2.815  -4.328  -0.181  0.00  0.00    +0.019 A 
ATOM      6  C   UNL     1       4.072  -4.915  -0.153  0.00  0.00    +0.017 A 
ATOM      7  C   UNL     1       5.206  -4.133  -0.087  0.00  0.00    +0.025 A 
ATOM      8  C   UNL     1       5.097  -2.748  -0.054  0.00  0.00    +0.039 A 
ATOM      9 BR   UNL     1       1.271  -5.417  -0.272  0.00  0.00    -0.050 Br
BRANCH   3  10
ATOM     10  C   UNL     1       3.696  -0.684  -0.036  0.00  0.00    +0.195 C 
ATOM     11  O   UNL     1       3.420  -0.070  -1.048  0.00  0.00    -0.287 OA
BRANCH  10  15
ATOM     12  C   UNL     1       4.280   1.400   3.619  0.00  0.00    +0.000 A 
ATOM     13  C   UNL     1       4.079   2.108   2.447  0.00  0.00    +0.001 A 
ATOM     14  C   UNL     1       3.889   1.437   1.257  0.00  0.00    +0.012 A 
ATOM     15  C   UNL     1       3.899   0.041   1.236  0.00  0.00    +0.022 A 
ATOM     16  C   UNL     1       4.102  -0.667   2.422  0.00  0.00    +0.012 A 
ATOM     17  C   UNL     1       4.291   0.016   3.606  0.00  0.00    +0.001 A 
ENDBRANCH  10  15
ENDBRANCH   3  10
ENDBRANCH   1   8
BRANCH   1  18
ATOM     18  C   UNL     1       7.563  -2.579  -0.079  0.00  0.00    +0.199 C 
BRANCH  18  19
ATOM     19  C   UNL     1       8.623  -1.513   0.012  0.00  0.00    +0.246 C 
ATOM     20  O   UNL     1       8.304  -0.349   0.137  0.00  0.00    -0.273 OA
ATOM     21  N   UNL     1       9.927  -1.852  -0.045  0.00  0.00    -0.235 N 
ATOM     22  H   UNL     1      10.182  -2.782  -0.144  0.00  0.00    +0.173 HD
BRANCH  21  23
ATOM     23  N   UNL     1      10.913  -0.860   0.040  0.00  0.00    -0.264 N 
ATOM     24  H   UNL     1      10.657   0.070   0.139  0.00  0.00    +0.170 HD
BRANCH  23  25
ATOM     25  C   UNL     1      12.263  -1.212  -0.019  0.00  0.00    +0.045 A 
ATOM     26  C   UNL     1      12.630  -2.543  -0.168  0.00  0.00    +0.026 A 
ATOM     27  C   UNL     1      13.966  -2.887  -0.227  0.00  0.00    +0.034 A 
ATOM     28  C   UNL     1      14.939  -1.907  -0.138  0.00  0.00    +0.126 A 
ATOM     29  C   UNL     1      14.577  -0.581   0.011  0.00  0.00    +0.034 A 
ATOM     30  C   UNL     1      13.242  -0.230   0.064  0.00  0.00    +0.026 A 
BRANCH  28  31
ATOM     31  N   UNL     1      16.370  -2.280  -0.201  0.00  0.00    +0.056 N 
ATOM     32  O   UNL     1      16.688  -3.439  -0.330  0.00  0.00    -0.126 OA
ATOM     33  O   UNL     1      17.221  -1.425  -0.123  0.00  0.00    -0.126 OA
ENDBRANCH  28  31
ENDBRANCH  23  25
ENDBRANCH  21  23
ENDBRANCH  18  19
ENDBRANCH   1  18
TORSDOF 8
