REMARK  Name = ZINC09777217
REMARK  13 active torsions:
REMARK  status: ('A' for Active; 'I' for Inactive)
REMARK    1  A    between atoms: C_1  and  C_2
REMARK    2  A    between atoms: C_7  and  N_12
REMARK    3  A    between atoms: C_9  and  C_11
REMARK    4  A    between atoms: C_13  and  C_15
REMARK    5  A    between atoms: C_23  and  C_35
REMARK    6  A    between atoms: N_29  and  C_30
REMARK    7  A    between atoms: C_30  and  C_31
REMARK    8  A    between atoms: C_31  and  C_32
REMARK    9  A    between atoms: C_32  and  C_33
REMARK   10  A    between atoms: C_32  and  C_34
REMARK   11  A    between atoms: N_37  and  C_38
REMARK   12  A    between atoms: C_41  and  O_44
REMARK   13  A    between atoms: O_44  and  C_45
REMARK                            x       y       z     vdW  Elec       q    Type
REMARK                         _______ _______ _______ _____ _____    ______ ____
ROOT
ATOM      1  C   UNL     1      -2.545   7.318  -0.614  0.00  0.00    +0.198 C 
ATOM      2  C   UNL     1      -3.243   7.818   0.613  0.00  0.00    +0.127 C 
ATOM      3  C   UNL     1      -4.546   7.090   0.888  0.00  0.00    +0.009 C 
ATOM      4  C   UNL     1      -5.034   7.631   1.994  0.00  0.00    +0.004 C 
ATOM      5  C   UNL     1      -4.045   8.744   2.361  0.00  0.00    +0.155 C 
ATOM      6  O   UNL     1      -2.760   8.159   1.891  0.00  0.00    -0.358 OA
ATOM      7  C   UNL     1      -4.339   9.829   1.254  0.00  0.00    +0.123 C 
ATOM      8  C   UNL     1      -3.578   9.268   0.079  0.00  0.00    +0.128 C 
ATOM      9  C   UNL     1      -4.117   8.940  -1.253  0.00  0.00    +0.223 C 
ATOM     10  O   UNL     1      -5.002   9.527  -1.839  0.00  0.00    -0.275 OA
ATOM     11  N   UNL     1      -3.425   7.842  -1.705  0.00  0.00    -0.287 N 
ENDROOT
BRANCH   1  13
ATOM     12  N   UNL     1      -1.502   5.158  -0.009  0.00  0.00    -0.311 N 
ATOM     13  C   UNL     1      -2.502   5.812  -0.633  0.00  0.00    +0.237 C 
ATOM     14  O   UNL     1      -3.368   5.188  -1.210  0.00  0.00    -0.274 OA
ATOM     15  H   UNL     1      -0.810   5.657   0.452  0.00  0.00    +0.149 HD
BRANCH  12  21
ATOM     16  C   UNL     1       0.149   1.158   2.381  0.00  0.00    +0.008 C 
ATOM     17  C   UNL     1      -0.634   1.661   1.167  0.00  0.00    -0.009 C 
ATOM     18  C   UNL     1       0.053   1.187  -0.115  0.00  0.00    +0.003 C 
ATOM     19  C   UNL     1      -0.730   1.690  -1.329  0.00  0.00    +0.002 C 
ATOM     20  C   UNL     1      -0.774   3.219  -1.310  0.00  0.00    +0.022 C 
ATOM     21  C   UNL     1      -1.461   3.694  -0.028  0.00  0.00    +0.076 C 
ATOM     22  C   UNL     1      -0.677   3.191   1.187  0.00  0.00    +0.009 C 
ATOM     23  C   UNL     1       0.749   3.742   1.138  0.00  0.00    +0.009 C 
ENDBRANCH  12  21
ENDBRANCH   1  13
BRANCH   7  24
ATOM     24  C   UNL     1      -5.814   9.910   0.954  0.00  0.00    +0.224 C 
ATOM     25  O   UNL     1      -6.317   9.134   0.169  0.00  0.00    -0.275 OA
ATOM     26  N   UNL     1      -6.574  10.844   1.560  0.00  0.00    -0.285 N 
ATOM     27  H   UNL     1      -6.163  11.499   2.144  0.00  0.00    +0.155 HD
BRANCH  26  28
ATOM     28  C   UNL     1      -7.958  10.867   1.344  0.00  0.00    +0.034 A 
ATOM     29  C   UNL     1      -8.473  10.532   0.099  0.00  0.00    +0.027 A 
ATOM     30  C   UNL     1      -9.838  10.552  -0.111  0.00  0.00    +0.047 A 
ATOM     31  C   UNL     1     -10.694  10.915   0.919  0.00  0.00    +0.120 A 
ATOM     32  C   UNL     1     -10.180  11.255   2.162  0.00  0.00    +0.047 A 
ATOM     33  C   UNL     1      -8.815  11.231   2.374  0.00  0.00    +0.027 A 
BRANCH  31  34
ATOM     34  O   UNL     1     -12.037  10.940   0.709  0.00  0.00    -0.495 OA
ATOM     35  C   UNL     1     -12.497  10.579  -0.594  0.00  0.00    +0.277 C 
ENDBRANCH  31  34
ENDBRANCH  26  28
ENDBRANCH   7  24
BRANCH  11  36
ATOM     36  C   UNL     1      -3.534   7.271  -3.050  0.00  0.00    +0.109 C 
BRANCH  36  37
ATOM     37  C   UNL     1      -2.425   7.841  -3.937  0.00  0.00    +0.022 C 
BRANCH  37  38
ATOM     38  C   UNL     1      -2.614   7.345  -5.372  0.00  0.00    -0.016 C 
ATOM     39  C   UNL     1      -1.582   8.012  -6.282  0.00  0.00    +0.007 C 
ATOM     40  C   UNL     1      -2.427   5.827  -5.415  0.00  0.00    +0.007 C 
ENDBRANCH  37  38
ENDBRANCH  36  37
ENDBRANCH  11  36
TORSDOF 8
