REMARK  Name = ZINC04490942
REMARK  11 active torsions:
REMARK  status: ('A' for Active; 'I' for Inactive)
REMARK    1  A    between atoms: C_1  and  C_2
REMARK    2  A    between atoms: C_10  and  O_37
REMARK    3  A    between atoms: C_21  and  N_23
REMARK    4  A    between atoms: N_23  and  C_24
REMARK    5  A    between atoms: C_24  and  C_25
REMARK    6  A    between atoms: C_25  and  C_26
REMARK    7  A    between atoms: C_26  and  C_27
REMARK    8  A    between atoms: C_27  and  C_28
REMARK    9  A    between atoms: C_28  and  C_29
REMARK   10  A    between atoms: C_29  and  N_30
REMARK   11  A    between atoms: O_37  and  C_38
REMARK                            x       y       z     vdW  Elec       q    Type
REMARK                         _______ _______ _______ _____ _____    ______ ____
ROOT
ATOM      1  C   UNL     1      -0.019   1.526   0.010  0.00  0.00    +0.010 C 
ATOM      2  C   UNL     1       0.002  -0.004   0.002  0.00  0.00    -0.041 C 
ATOM      3  C   UNL     1      -1.416  -0.537   0.072  0.00  0.00    +0.006 C 
ATOM      4  C   UNL     1      -2.080   0.103   1.302  0.00  0.00    +0.009 C 
ATOM      5  C   UNL     1      -1.299  -0.184   2.578  0.00  0.00    +0.023 C 
ATOM      6  C   UNL     1      -1.445  -1.630   2.965  0.00  0.00    -0.041 A 
ATOM      7  C   UNL     1      -2.682  -2.232   2.764  0.00  0.00    +0.008 A 
ATOM      8  C   UNL     1      -2.885  -3.552   3.103  0.00  0.00    +0.046 A 
ATOM      9  C   UNL     1      -1.844  -4.290   3.649  0.00  0.00    +0.120 A 
ATOM     10  C   UNL     1      -0.612  -3.691   3.848  0.00  0.00    +0.049 A 
ATOM     11  C   UNL     1      -0.410  -2.362   3.504  0.00  0.00    -0.040 A 
ATOM     12  C   UNL     1       0.959  -1.777   3.735  0.00  0.00    +0.036 C 
ATOM     13  C   UNL     1       0.898  -0.251   3.732  0.00  0.00    +0.009 C 
ATOM     14  C   UNL     1       0.181   0.185   2.451  0.00  0.00    +0.000 C 
ATOM     15  C   UNL     1       0.751  -0.527   1.257  0.00  0.00    -0.003 C 
ATOM     16  C   UNL     1       2.207  -0.190   0.911  0.00  0.00    +0.003 C 
ATOM     17  C   UNL     1       2.304  -0.571  -0.591  0.00  0.00    -0.015 C 
ATOM     18  C   UNL     1       0.863  -0.503  -1.154  0.00  0.00    -0.066 C 
ENDROOT
BRANCH  18  19
ATOM     19  N   UNL     1       0.800   0.440  -2.279  0.00  0.00    +0.381 N 
ATOM     20  H   UNL     1      -0.163   0.589  -2.539  0.00  0.00    -0.086 HD
ATOM     21  H   UNL     1       1.214   1.318  -2.005  0.00  0.00    -0.086 HD
BRANCH  19  22
ATOM     22  C   UNL     1       1.536  -0.113  -3.423  0.00  0.00    -0.082 C 
BRANCH  22  23
ATOM     23  C   UNL     1       1.471   0.869  -4.595  0.00  0.00    -0.019 C 
BRANCH  23  24
ATOM     24  C   UNL     1       2.238   0.292  -5.787  0.00  0.00    -0.002 C 
BRANCH  24  25
ATOM     25  C   UNL     1       2.172   1.274  -6.958  0.00  0.00    +0.001 C 
BRANCH  25  26
ATOM     26  C   UNL     1       2.939   0.697  -8.150  0.00  0.00    +0.019 C 
BRANCH  26  27
ATOM     27  C   UNL     1       2.873   1.679  -9.322  0.00  0.00    +0.117 C 
BRANCH  27  28
ATOM     28  N   UNL     1       3.608   1.127 -10.463  0.00  0.00    -0.235 N 
ATOM     29  C   UNL     1       4.917   1.317 -10.708  0.00  0.00    +0.246 C 
ATOM     30  O   UNL     1       5.680   1.968 -10.025  0.00  0.00    -0.270 OA
ATOM     31  C   UNL     1       5.269   0.596 -11.951  0.00  0.00    +0.073 C 
ATOM     32  C   UNL     1       4.144   0.007 -12.390  0.00  0.00    +0.073 C 
ATOM     33  C   UNL     1       3.077   0.349 -11.423  0.00  0.00    +0.246 C 
ATOM     34  O   UNL     1       1.919  -0.010 -11.487  0.00  0.00    -0.270 OA
ENDBRANCH  27  28
ENDBRANCH  26  27
ENDBRANCH  25  26
ENDBRANCH  24  25
ENDBRANCH  23  24
ENDBRANCH  22  23
ENDBRANCH  19  22
ENDBRANCH  18  19
BRANCH   9  35
ATOM     35  O   UNL     1      -2.034  -5.592   3.989  0.00  0.00    -0.495 OA
ATOM     36  C   UNL     1      -3.333  -6.140   3.755  0.00  0.00    +0.277 C 
ENDBRANCH   9  35
TORSDOF 9
