REMARK  Name = ZINC40814889
REMARK  8 active torsions:
REMARK  status: ('A' for Active; 'I' for Inactive)
REMARK    1  A    between atoms: C_1  and  C_2
REMARK    2  A    between atoms: C_2  and  N_3
REMARK    3  A    between atoms: C_9  and  C_11
REMARK    4  A    between atoms: C_12  and  C_34
REMARK    5  A    between atoms: N_20  and  N_21
REMARK    6  A    between atoms: N_21  and  C_22
REMARK    7  A    between atoms: C_25  and  N_31
REMARK    8  A    between atoms: C_27  and  N_28
REMARK                            x       y       z     vdW  Elec       q    Type
REMARK                         _______ _______ _______ _____ _____    ______ ____
ROOT
ATOM      1  C   UNL     1       3.359  -4.132  -3.377  0.00  0.00    +0.193 A 
ATOM      2  C   UNL     1       4.348  -5.068  -3.503  0.00  0.00    +0.009 A 
ATOM      3  C   UNL     1       3.708  -6.311  -3.550  0.00  0.00    +0.042 A 
ATOM      4  C   UNL     1       2.356  -6.083  -3.451  0.00  0.00    +0.115 A 
ATOM      5  O   UNL     1       2.167  -4.770  -3.341  0.00  0.00    -0.454 OA
ATOM      6  C   UNL     1       1.333  -7.191  -3.470  0.00  0.00    +0.075 C 
ATOM      7  C   UNL     1       1.947  -8.439  -4.109  0.00  0.00    +0.014 C 
ATOM      8  C   UNL     1       3.268  -8.803  -3.424  0.00  0.00    +0.058 C 
ATOM      9  C   UNL     1       4.262  -7.678  -3.675  0.00  0.00    +0.070 C 
ATOM     10  N   UNL     1       5.503  -7.901  -3.978  0.00  0.00    -0.186 NA
ATOM     11  C   UNL     1       5.832  -4.811  -3.579  0.00  0.00    +0.048 C 
ENDROOT
BRANCH   1  18
ATOM     12  N   UNL     1       0.622  -0.423  -1.559  0.00  0.00    +0.382 N 
ATOM     13  C   UNL     1       2.026   0.008  -1.548  0.00  0.00    -0.060 C 
ATOM     14  C   UNL     1       2.703  -0.424  -2.853  0.00  0.00    +0.089 C 
ATOM     15  N   UNL     1       2.514  -1.873  -3.019  0.00  0.00    -0.299 N 
ATOM     16  C   UNL     1       1.153  -2.415  -2.883  0.00  0.00    +0.089 C 
ATOM     17  C   UNL     1       0.550  -1.890  -1.576  0.00  0.00    -0.060 C 
ATOM     18  C   UNL     1       3.558  -2.681  -3.289  0.00  0.00    +0.282 C 
ATOM     19  O   UNL     1       4.666  -2.208  -3.460  0.00  0.00    -0.267 OA
ATOM     20  H   UNL     1       0.167  -0.056  -2.381  0.00  0.00    -0.082 HD
BRANCH  12  22
ATOM     21  C   UNL     1      -0.089   1.614  -0.401  0.00  0.00    -0.017 C 
ATOM     22  C   UNL     1      -0.054   0.085  -0.359  0.00  0.00    -0.082 C 
ENDBRANCH  12  22
ENDBRANCH   1  18
BRANCH  10  23
ATOM     23  N   UNL     1       5.974  -9.217  -4.084  0.00  0.00    -0.235 N 
ATOM     24  H   UNL     1       5.371  -9.961  -3.931  0.00  0.00    +0.174 HD
BRANCH  23  25
ATOM     25  C   UNL     1       7.309  -9.456  -4.410  0.00  0.00    +0.079 A 
ATOM     26  C   UNL     1       8.196  -8.394  -4.539  0.00  0.00    +0.029 A 
ATOM     27  C   UNL     1       9.517  -8.635  -4.861  0.00  0.00    +0.035 A 
ATOM     28  C   UNL     1       9.957  -9.931  -5.056  0.00  0.00    +0.128 A 
ATOM     29  C   UNL     1       9.078 -10.991  -4.929  0.00  0.00    +0.067 A 
ATOM     30  C   UNL     1       7.756 -10.758  -4.601  0.00  0.00    +0.151 A 
BRANCH  30  31
ATOM     31  N   UNL     1       6.815 -11.896  -4.460  0.00  0.00    +0.058 N 
ATOM     32  O   UNL     1       5.966 -11.874  -3.599  0.00  0.00    -0.126 OA
ATOM     33  O   UNL     1       6.896 -12.844  -5.206  0.00  0.00    -0.126 OA
ENDBRANCH  30  31
BRANCH  28  34
ATOM     34  N   UNL     1      11.377 -10.186  -5.404  0.00  0.00    +0.056 N 
ATOM     35  O   UNL     1      12.147  -9.261  -5.515  0.00  0.00    -0.126 OA
ATOM     36  O   UNL     1      11.764 -11.319  -5.575  0.00  0.00    -0.126 OA
ENDBRANCH  28  34
ENDBRANCH  23  25
ENDBRANCH  10  23
TORSDOF 6
