REMARK  Name = ZINC16613190
REMARK  7 active torsions:
REMARK  status: ('A' for Active; 'I' for Inactive)
REMARK    1  A    between atoms: C_4  and  C_7
REMARK    2  A    between atoms: C_7  and  N_8
REMARK    3  A    between atoms: N_19  and  C_28
REMARK    4  A    between atoms: N_21  and  C_22
REMARK    5  A    between atoms: C_28  and  C_29
REMARK    6  A    between atoms: N_31  and  C_32
REMARK    7  A    between atoms: C_32  and  C_33
REMARK                            x       y       z     vdW  Elec       q    Type
REMARK                         _______ _______ _______ _____ _____    ______ ____
ROOT
ATOM      1  N   UNL     1      -0.040   8.642  -2.973  0.00  0.00    -0.295 N 
ATOM      2  C   UNL     1      -0.221   8.330  -1.674  0.00  0.00    +0.302 C 
ATOM      3  O   UNL     1      -1.237   8.674  -1.102  0.00  0.00    -0.253 OA
ATOM      4  N   UNL     1       0.725   7.636  -1.010  0.00  0.00    -0.285 N 
ATOM      5  C   UNL     1       2.009   7.319  -1.651  0.00  0.00    +0.112 C 
ATOM      6  C   UNL     1       2.241   5.806  -1.565  0.00  0.00    +0.054 C 
ATOM      7  C   UNL     1       2.122   5.356  -0.112  0.00  0.00    +0.115 C 
ATOM      8  C   UNL     1       0.735   5.672   0.438  0.00  0.00    +0.054 C 
ATOM      9  C   UNL     1       0.491   7.184   0.368  0.00  0.00    +0.112 C 
ATOM     10  C   UNL     1       3.186   6.016   0.731  0.00  0.00    +0.241 C 
ATOM     11  O   UNL     1       3.495   7.188   0.695  0.00  0.00    -0.273 OA
ATOM     12  N   UNL     1       3.734   5.079   1.534  0.00  0.00    -0.275 N 
ATOM     13  C   UNL     1       3.082   3.784   1.295  0.00  0.00    +0.217 C 
ATOM     14  N   UNL     1       2.389   3.906  -0.009  0.00  0.00    -0.300 N 
ATOM     15  H   UNL     1       0.734   8.303  -3.450  0.00  0.00    +0.151 HD
ENDROOT
BRANCH  14  16
ATOM     16  C   UNL     1       1.198   3.176  -0.012  0.00  0.00    +0.032 A 
ATOM     17  C   UNL     1       0.304   3.307  -1.067  0.00  0.00    +0.023 A 
ATOM     18  C   UNL     1      -0.873   2.585  -1.067  0.00  0.00    +0.002 A 
ATOM     19  C   UNL     1      -1.165   1.736  -0.015  0.00  0.00    +0.000 A 
ATOM     20  C   UNL     1      -0.274   1.598   1.034  0.00  0.00    +0.002 A 
ATOM     21  C   UNL     1       0.904   2.318   1.040  0.00  0.00    +0.023 A 
ENDBRANCH  14  16
BRANCH   1  22
ATOM     22  C   UNL     1      -1.010   9.495  -3.663  0.00  0.00    +0.141 C 
BRANCH  22  26
ATOM     23  C   UNL     1       0.211  10.049  -7.719  0.00  0.00    +0.000 A 
ATOM     24  C   UNL     1      -0.611   8.989  -7.383  0.00  0.00    +0.000 A 
ATOM     25  C   UNL     1      -1.006   8.810  -6.070  0.00  0.00    +0.005 A 
ATOM     26  C   UNL     1      -0.579   9.690  -5.094  0.00  0.00    -0.030 A 
ATOM     27  C   UNL     1       0.238  10.753  -5.431  0.00  0.00    +0.005 A 
ATOM     28  C   UNL     1       0.637  10.930  -6.742  0.00  0.00    +0.000 A 
ENDBRANCH  22  26
ENDBRANCH   1  22
BRANCH  12  29
ATOM     29  C   UNL     1       4.814   5.316   2.495  0.00  0.00    +0.205 C 
BRANCH  29  30
ATOM     30  C   UNL     1       4.224   5.697   3.829  0.00  0.00    +0.231 C 
ATOM     31  O   UNL     1       3.021   5.763   3.963  0.00  0.00    -0.274 OA
ATOM     32  N   UNL     1       5.035   5.964   4.872  0.00  0.00    -0.310 N 
ATOM     33  H   UNL     1       5.997   5.911   4.764  0.00  0.00    +0.149 HD
BRANCH  32  34
ATOM     34  C   UNL     1       4.462   6.334   6.168  0.00  0.00    +0.139 C 
BRANCH  34  35
ATOM     35  C   UNL     1       5.572   6.579   7.157  0.00  0.00    -0.030 A 
ATOM     36  C   UNL     1       6.049   5.537   7.931  0.00  0.00    +0.008 A 
ATOM     37  C   UNL     1       7.071   5.760   8.835  0.00  0.00    +0.038 A 
ATOM     38  C   UNL     1       7.610   7.028   8.972  0.00  0.00    +0.123 A 
ATOM     39  C   UNL     1       7.128   8.071   8.200  0.00  0.00    +0.038 A 
ATOM     40  C   UNL     1       6.109   7.845   7.293  0.00  0.00    +0.008 A 
ATOM     41  F   UNL     1       8.606   7.247   9.858  0.00  0.00    -0.205 F 
ENDBRANCH  34  35
ENDBRANCH  32  34
ENDBRANCH  29  30
ENDBRANCH  12  29
TORSDOF 7
