REMARK  Name = ZINC39780805
REMARK  6 active torsions:
REMARK  status: ('A' for Active; 'I' for Inactive)
REMARK    1  A    between atoms: C_1  and  C_2
REMARK    2  A    between atoms: C_2  and  C_4
REMARK    3  A    between atoms: C_2  and  O_21
REMARK    4  A    between atoms: C_9  and  C_12
REMARK    5  A    between atoms: O_21  and  C_22
REMARK    6  A    between atoms: C_25  and  C_28
REMARK                            x       y       z     vdW  Elec       q    Type
REMARK                         _______ _______ _______ _____ _____    ______ ____
ROOT
ATOM      1  C   UNL     1       0.891  -0.484  -1.337  0.00  0.00    +0.256 C 
ATOM      2  O   UNL     1       1.991  -0.977  -1.208  0.00  0.00    -0.272 OA
ATOM      3  N   UNL     1       0.366  -0.320  -2.568  0.00  0.00    -0.294 N 
ATOM      4  C   UNL     1       1.101  -0.735  -3.775  0.00  0.00    +0.113 C 
ATOM      5  C   UNL     1       0.291  -1.834  -4.468  0.00  0.00    +0.054 C 
ATOM      6  C   UNL     1      -1.156  -1.447  -4.545  0.00  0.00    -0.043 C 
ATOM      7  C   UNL     1      -1.720  -0.517  -3.784  0.00  0.00    -0.004 C 
ATOM      8  C   UNL     1      -0.965   0.274  -2.757  0.00  0.00    +0.135 C 
ENDROOT
BRANCH   6   9
ATOM      9  C   UNL     1      -1.969  -2.115  -5.484  0.00  0.00    -0.016 C 
ATOM     10  C   UNL     1      -1.613  -3.190  -6.288  0.00  0.00    +0.003 A 
ATOM     11  C   UNL     1      -0.411  -3.922  -6.427  0.00  0.00    +0.010 A 
ATOM     12  C   UNL     1      -0.347  -4.947  -7.312  0.00  0.00    +0.001 A 
ATOM     13  C   UNL     1      -1.446  -5.306  -8.100  0.00  0.00    +0.002 A 
ATOM     14  C   UNL     1      -2.628  -4.651  -8.020  0.00  0.00    +0.026 A 
ATOM     15  C   UNL     1      -2.774  -3.564  -7.116  0.00  0.00    +0.043 A 
ATOM     16  N   UNL     1      -3.797  -2.780  -6.854  0.00  0.00    -0.380 N 
ATOM     17  C   UNL     1      -3.412  -1.813  -5.822  0.00  0.00    +0.149 C 
ATOM     18  H   UNL     1      -4.669  -2.835  -7.275  0.00  0.00    +0.160 HD
ENDBRANCH   6   9
BRANCH   1  20
ATOM     19  C   UNL     1      -0.070   1.465  -0.142  0.00  0.00    +0.062 C 
ATOM     20  C   UNL     1       0.110  -0.054  -0.122  0.00  0.00    +0.256 C 
BRANCH  20  21
ATOM     21  O   UNL     1       0.820  -0.434   1.059  0.00  0.00    -0.480 OA
BRANCH  21  22
ATOM     22  C   UNL     1       0.093  -0.573   2.197  0.00  0.00    +0.122 A 
ATOM     23  C   UNL     1      -1.289  -0.428   2.159  0.00  0.00    +0.047 A 
ATOM     24  C   UNL     1      -2.030  -0.569   3.311  0.00  0.00    +0.022 A 
ATOM     25  C   UNL     1      -1.391  -0.858   4.520  0.00  0.00    +0.052 A 
ATOM     26  C   UNL     1      -0.001  -1.003   4.554  0.00  0.00    +0.022 A 
ATOM     27  C   UNL     1       0.732  -0.866   3.396  0.00  0.00    +0.047 A 
BRANCH  25  28
ATOM     28  C   UNL     1      -2.158  -1.005   5.720  0.00  0.00    +0.099 C 
ATOM     29  N   UNL     1      -2.766  -1.121   6.672  0.00  0.00    -0.191 NA
ENDBRANCH  25  28
ENDBRANCH  21  22
ENDBRANCH  20  21
ENDBRANCH   1  20
TORSDOF 5
