REMARK  Name = ZINC57783069
REMARK  7 active torsions:
REMARK  status: ('A' for Active; 'I' for Inactive)
REMARK    1  A    between atoms: C_1  and  C_2
REMARK    2  A    between atoms: C_11  and  C_13
REMARK    3  A    between atoms: N_15  and  C_16
REMARK    4  A    between atoms: C_19  and  S_22
REMARK    5  A    between atoms: S_22  and  N_25
REMARK    6  A    between atoms: N_25  and  C_26
REMARK    7  A    between atoms: N_25  and  C_27
REMARK                            x       y       z     vdW  Elec       q    Type
REMARK                         _______ _______ _______ _____ _____    ______ ____
ROOT
ATOM      1  C   UNL     1      -6.530   1.021   0.068  0.00  0.00    +0.248 C 
ATOM      2  O   UNL     1      -7.397   0.169   0.064  0.00  0.00    -0.270 OA
ATOM      3  N   UNL     1      -6.868   2.326   0.080  0.00  0.00    -0.282 N 
ATOM      4  H   UNL     1      -6.179   3.005   0.152  0.00  0.00    +0.155 HD
ENDROOT
BRANCH   1  15
ATOM      5  C   UNL     1      -0.018   1.503   0.053  0.00  0.00    +0.109 C 
ATOM      6  C   UNL     1       0.003  -0.004   0.040  0.00  0.00    +0.217 C 
ATOM      7  O   UNL     1       1.061  -0.595   0.032  0.00  0.00    -0.276 OA
ATOM      8  N   UNL     1      -1.155  -0.693   0.037  0.00  0.00    -0.271 N 
ATOM      9  C   UNL     1      -1.261  -2.155   0.031  0.00  0.00    +0.118 C 
ATOM     10  C   UNL     1      -2.770  -2.450   0.030  0.00  0.00    +0.056 C 
ATOM     11  C   UNL     1      -3.423  -1.086   0.037  0.00  0.00    -0.024 A 
ATOM     12  C   UNL     1      -2.426  -0.120   0.047  0.00  0.00    +0.040 A 
ATOM     13  C   UNL     1      -2.784   1.233   0.059  0.00  0.00    +0.024 A 
ATOM     14  C   UNL     1      -4.107   1.603   0.065  0.00  0.00    +0.015 A 
ATOM     15  C   UNL     1      -5.108   0.627   0.060  0.00  0.00    +0.037 A 
ATOM     16  C   UNL     1      -4.752  -0.724   0.039  0.00  0.00    +0.018 A 
ENDBRANCH   1  15
BRANCH   3  17
ATOM     17  C   UNL     1      -8.212   2.701  -0.010  0.00  0.00    +0.034 A 
ATOM     18  C   UNL     1      -8.569   3.851  -0.702  0.00  0.00    +0.025 A 
ATOM     19  C   UNL     1      -9.897   4.218  -0.790  0.00  0.00    +0.030 A 
ATOM     20  C   UNL     1     -10.872   3.442  -0.190  0.00  0.00    +0.106 A 
ATOM     21  C   UNL     1     -10.520   2.297   0.500  0.00  0.00    +0.030 A 
ATOM     22  C   UNL     1      -9.194   1.921   0.586  0.00  0.00    +0.025 A 
BRANCH  20  23
ATOM     23  S   UNL     1     -12.565   3.915  -0.304  0.00  0.00    +0.060 S 
ATOM     24  O   UNL     1     -13.229   3.319   0.803  0.00  0.00    -0.153 OA
ATOM     25  O   UNL     1     -12.581   5.316  -0.538  0.00  0.00    -0.153 OA
BRANCH  23  26
ATOM     26  N   UNL     1     -13.182   3.201  -1.665  0.00  0.00    -0.183 NA
ATOM     27  C   UNL     1     -13.785   1.868  -1.585  0.00  0.00    +0.131 C 
ATOM     28  C   UNL     1     -13.125   3.903  -2.950  0.00  0.00    +0.131 C 
ENDBRANCH  23  26
ENDBRANCH  20  23
ENDBRANCH   3  17
TORSDOF 4
