REMARK  Name = ZINC35574391
REMARK  5 active torsions:
REMARK  status: ('A' for Active; 'I' for Inactive)
REMARK    1  A    between atoms: C_6  and  C_7
REMARK    2  A    between atoms: C_7  and  N_8
REMARK    3  A    between atoms: N_11  and  C_14
REMARK    4  A    between atoms: C_14  and  C_15
REMARK    5  A    between atoms: C_30  and  C_32
REMARK                            x       y       z     vdW  Elec       q    Type
REMARK                         _______ _______ _______ _____ _____    ______ ____
ROOT
ATOM      1  C   UNL     1      -5.240  -2.080  -4.938  0.00  0.00    +0.034 A 
ATOM      2  C   UNL     1      -6.397  -1.577  -5.457  0.00  0.00    +0.091 A 
ATOM      3  C   UNL     1      -7.545  -2.390  -5.472  0.00  0.00    +0.253 A 
ATOM      4  O   UNL     1      -8.596  -1.973  -5.929  0.00  0.00    -0.268 OA
ATOM      5  N   UNL     1      -7.460  -3.641  -4.971  0.00  0.00    -0.295 N 
ATOM      6  H   UNL     1      -8.239  -4.219  -4.972  0.00  0.00    +0.172 HD
ATOM      7  C   UNL     1      -6.279  -4.089  -4.466  0.00  0.00    +0.198 A 
ATOM      8  N   UNL     1      -5.206  -3.322  -4.460  0.00  0.00    -0.223 NA
ATOM      9  N   UNL     1      -6.201  -5.358  -3.960  0.00  0.00    -0.300 N 
ATOM     10  C   UNL     1      -4.914  -5.816  -3.415  0.00  0.00    +0.109 C 
ATOM     11  C   UNL     1      -5.072  -6.583  -2.100  0.00  0.00    +0.038 C 
ATOM     12  C   UNL     1      -6.104  -5.910  -1.217  0.00  0.00    +0.109 C 
ATOM     13  N   UNL     1      -7.421  -6.428  -1.586  0.00  0.00    -0.300 N 
ATOM     14  C   UNL     1      -8.196  -5.954  -2.679  0.00  0.00    +0.126 C 
ATOM     15  C   UNL     1      -7.395  -6.185  -3.983  0.00  0.00    +0.127 C 
ATOM     16  C   UNL     1      -7.936  -7.423  -0.837  0.00  0.00    +0.219 C 
ATOM     17  O   UNL     1      -9.062  -7.821  -1.048  0.00  0.00    -0.275 OA
ENDROOT
BRANCH  16  18
ATOM     18  C   UNL     1      -7.111  -8.043   0.262  0.00  0.00    +0.075 C 
ATOM     19  C   UNL     1      -6.549  -9.445   0.018  0.00  0.00    +0.013 C 
ATOM     20  C   UNL     1      -7.706  -9.245   0.998  0.00  0.00    +0.013 C 
ENDBRANCH  16  18
BRANCH   1  21
ATOM     21  C   UNL     1      -3.996  -1.230  -4.910  0.00  0.00    -0.022 C 
BRANCH  21  25
ATOM     22  N   UNL     1      -1.735  -1.009  -1.366  0.00  0.00    -0.302 NA
ATOM     23  C   UNL     1      -2.088   0.250  -2.037  0.00  0.00    +0.066 C 
ATOM     24  C   UNL     1      -2.474  -0.040  -3.489  0.00  0.00    -0.063 C 
ATOM     25  N   UNL     1      -3.614  -0.966  -3.517  0.00  0.00    +0.385 N 
ATOM     26  C   UNL     1      -3.239  -2.227  -2.865  0.00  0.00    -0.063 C 
ATOM     27  C   UNL     1      -2.859  -1.955  -1.407  0.00  0.00    +0.066 C 
ATOM     28  H   UNL     1      -4.394  -0.553  -3.027  0.00  0.00    -0.081 HD
BRANCH  22  29
ATOM     29  C   UNL     1      -1.303  -0.765   0.017  0.00  0.00    +0.119 C 
BRANCH  29  35
ATOM     30  C   UNL     1      -0.029   1.388   0.017  0.00  0.00    +0.009 A 
ATOM     31  C   UNL     1       1.157   2.100   0.011  0.00  0.00    +0.050 A 
ATOM     32  C   UNL     1       2.368   1.429  -0.002  0.00  0.00    +0.166 A 
ATOM     33  C   UNL     1       2.389   0.036  -0.009  0.00  0.00    +0.167 A 
ATOM     34  C   UNL     1       1.198  -0.670  -0.003  0.00  0.00    +0.054 A 
ATOM     35  C   UNL     1      -0.008   0.006   0.010  0.00  0.00    -0.030 A 
ATOM     36  O   UNL     1       3.688  -0.381  -0.023  0.00  0.00    -0.453 OA
ATOM     37  C   UNL     1       4.456   0.766  -0.436  0.00  0.00    +0.466 C 
ATOM     38  O   UNL     1       3.655   1.885  -0.011  0.00  0.00    -0.453 OA
ENDBRANCH  29  35
ENDBRANCH  22  29
ENDBRANCH  21  25
ENDBRANCH   1  21
TORSDOF 5
