REMARK  Name = ZINC59158415
REMARK  9 active torsions:
REMARK  status: ('A' for Active; 'I' for Inactive)
REMARK    1  A    between atoms: C_5  and  C_7
REMARK    2  A    between atoms: C_7  and  S_8
REMARK    3  A    between atoms: S_8  and  C_9
REMARK    4  A    between atoms: C_9  and  C_10
REMARK    5  A    between atoms: N_12  and  N_13
REMARK    6  A    between atoms: C_14  and  C_15
REMARK    7  A    between atoms: C_16  and  O_23
REMARK    8  A    between atoms: C_18  and  O_22
REMARK    9  A    between atoms: C_20  and  O_21
REMARK                            x       y       z     vdW  Elec       q    Type
REMARK                         _______ _______ _______ _____ _____    ______ ____
ROOT
ATOM      1  C   UNL     1       1.299  -5.248   2.864  0.00  0.00    +0.242 C 
ATOM      2  O   UNL     1       1.300  -4.557   3.861  0.00  0.00    -0.273 OA
ATOM      3  N   UNL     1       1.318  -6.591   2.975  0.00  0.00    -0.206 N 
ATOM      4  H   UNL     1       1.318  -7.144   2.178  0.00  0.00    +0.177 HD
ENDROOT
BRANCH   3   5
ATOM      5  N   UNL     1       1.339  -7.189   4.242  0.00  0.00    -0.187 NA
ATOM      6  C   UNL     1       1.357  -8.483   4.349  0.00  0.00    +0.145 C 
BRANCH   6   7
ATOM      7  C   UNL     1       1.379  -9.111   5.680  0.00  0.00    +0.078 A 
ATOM      8  C   UNL     1       1.374  -8.316   6.835  0.00  0.00    +0.132 A 
ATOM      9  C   UNL     1       1.394  -8.914   8.082  0.00  0.00    +0.091 A 
ATOM     10  C   UNL     1       1.420 -10.297   8.192  0.00  0.00    +0.124 A 
ATOM     11  C   UNL     1       1.425 -11.091   7.054  0.00  0.00    +0.091 A 
ATOM     12  C   UNL     1       1.399 -10.508   5.799  0.00  0.00    +0.132 A 
BRANCH  12  13
ATOM     13  O   UNL     1       1.399 -11.287   4.687  0.00  0.00    -0.506 OA
ATOM     14  H   UNL     1       2.282 -11.500   4.356  0.00  0.00    +0.292 HD
ENDBRANCH  12  13
BRANCH  10  15
ATOM     15  O   UNL     1       1.440 -10.877   9.421  0.00  0.00    -0.507 OA
ATOM     16  H   UNL     1       0.563 -11.061   9.784  0.00  0.00    +0.292 HD
ENDBRANCH  10  15
BRANCH   8  17
ATOM     17  O   UNL     1       1.350  -6.962   6.729  0.00  0.00    -0.506 OA
ATOM     18  H   UNL     1       0.460  -6.585   6.705  0.00  0.00    +0.292 HD
ENDBRANCH   8  17
ENDBRANCH   6   7
ENDBRANCH   3   5
BRANCH   1  19
ATOM     19  C   UNL     1       1.276  -4.605   1.502  0.00  0.00    +0.166 C 
BRANCH  19  20
ATOM     20  S   UNL     1       1.254  -2.800   1.685  0.00  0.00    -0.147 S 
BRANCH  20  21
ATOM     21  C   UNL     1       1.229  -2.186  -0.022  0.00  0.00    +0.106 C 
BRANCH  21  26
ATOM     22  C   UNL     1      -0.017   1.378   0.010  0.00  0.00    +0.000 A 
ATOM     23  C   UNL     1       1.171   2.086   0.002  0.00  0.00    +0.001 A 
ATOM     24  C   UNL     1       2.377   1.412  -0.013  0.00  0.00    +0.020 A 
ATOM     25  C   UNL     1       2.397   0.029  -0.021  0.00  0.00    +0.045 A 
ATOM     26  C   UNL     1       1.208  -0.679  -0.013  0.00  0.00    -0.019 A 
ATOM     27  C   UNL     1       0.002  -0.004   0.002  0.00  0.00    +0.006 A 
ATOM     28 CL   UNL     1       3.912  -0.818  -0.041  0.00  0.00    -0.083 Cl
ENDBRANCH  21  26
ENDBRANCH  20  21
ENDBRANCH  19  20
ENDBRANCH   1  19
TORSDOF 9
