REMARK  Name = ZINC14748470
REMARK  7 active torsions:
REMARK  status: ('A' for Active; 'I' for Inactive)
REMARK    1  A    between atoms: C_2  and  C_3
REMARK    2  A    between atoms: C_3  and  N_4
REMARK    3  A    between atoms: C_7  and  C_9
REMARK    4  A    between atoms: C_18  and  N_69
REMARK    5  A    between atoms: C_22  and  C_23
REMARK    6  A    between atoms: C_22  and  N_69
REMARK    7  A    between atoms: C_23  and  C_29
REMARK                            x       y       z     vdW  Elec       q    Type
REMARK                         _______ _______ _______ _____ _____    ______ ____
ROOT
ATOM      1  N   UNL     1       2.297   1.543   1.061  0.00  0.00    -0.264 N 
ATOM      2  C   UNL     1       2.974   0.383   1.083  0.00  0.00    +0.043 A 
ATOM      3  C   UNL     1       3.439   0.214   2.345  0.00  0.00    +0.004 A 
ATOM      4  C   UNL     1       3.001   1.334   3.071  0.00  0.00    +0.151 A 
ATOM      5  N   UNL     1       2.323   2.092   2.226  0.00  0.00    -0.166 NA
ATOM      6  C   UNL     1       4.256  -0.962   2.804  0.00  0.00    +0.023 C 
ATOM      7  C   UNL     1       4.801  -1.683   1.564  0.00  0.00    -0.067 C 
ATOM      8  C   UNL     1       3.660  -1.930   0.573  0.00  0.00    -0.009 C 
ATOM      9  C   UNL     1       3.211  -0.597  -0.038  0.00  0.00    +0.054 C 
ENDROOT
BRANCH   4  10
ATOM     10  C   UNL     1       3.253   1.613   4.500  0.00  0.00    +0.267 C 
ATOM     11  O   UNL     1       3.993   0.891   5.139  0.00  0.00    -0.268 OA
ATOM     12  N   UNL     1       2.662   2.668   5.094  0.00  0.00    -0.292 N 
ATOM     13  C   UNL     1       1.658   3.475   4.383  0.00  0.00    +0.136 C 
ATOM     14  C   UNL     1       0.420   3.604   5.286  0.00  0.00    +0.179 C 
ATOM     15  O   UNL     1       0.825   4.084   6.570  0.00  0.00    -0.377 OA
ATOM     16  C   UNL     1       1.708   3.206   7.271  0.00  0.00    +0.179 C 
ATOM     17  C   UNL     1       3.008   3.053   6.472  0.00  0.00    +0.136 C 
ENDBRANCH   4  10
BRANCH   7  18
ATOM     18  N   UNL     1       5.386  -2.974   1.972  0.00  0.00    +0.382 N 
ATOM     19  H   UNL     1       4.643  -3.682   2.022  0.00  0.00    -0.085 HD
ATOM     20  H   UNL     1       5.823  -2.871   2.896  0.00  0.00    -0.085 HD
BRANCH  18  21
ATOM     21  C   UNL     1       6.405  -3.407   0.998  0.00  0.00    -0.071 C 
BRANCH  21  22
ATOM     22  C   UNL     1       6.993  -4.746   1.447  0.00  0.00    -0.015 C 
ATOM     23  C   UNL     1       7.647  -4.583   2.822  0.00  0.00    +0.038 C 
ATOM     24  C   UNL     1       8.809  -3.593   2.712  0.00  0.00    +0.160 C 
ATOM     25  O   UNL     1       9.743  -4.063   1.738  0.00  0.00    -0.380 OA
ATOM     26  C   UNL     1       9.199  -4.190   0.422  0.00  0.00    +0.160 C 
ATOM     27  C   UNL     1       8.053  -5.204   0.441  0.00  0.00    +0.038 C 
BRANCH  22  28
ATOM     28  C   UNL     1       5.896  -5.776   1.527  0.00  0.00    -0.043 A 
ATOM     29  C   UNL     1       4.594  -5.426   1.219  0.00  0.00    +0.004 A 
ATOM     30  C   UNL     1       3.589  -6.372   1.289  0.00  0.00    +0.000 A 
ATOM     31  C   UNL     1       3.883  -7.666   1.675  0.00  0.00    +0.000 A 
ATOM     32  C   UNL     1       5.184  -8.015   1.989  0.00  0.00    +0.000 A 
ATOM     33  C   UNL     1       6.190  -7.070   1.915  0.00  0.00    +0.004 A 
ENDBRANCH  22  28
ENDBRANCH  21  22
ENDBRANCH  18  21
ENDBRANCH   7  18
BRANCH   1  34
ATOM     34  C   UNL     1       1.633   2.105  -0.118  0.00  0.00    +0.170 C 
BRANCH  34  36
ATOM     35  C   UNL     1      -0.779   2.463  -0.251  0.00  0.00    +0.006 C 
ATOM     36  C   UNL     1       0.211   1.608  -0.177  0.00  0.00    -0.012 C 
ENDBRANCH  34  36
ENDBRANCH   1  34
TORSDOF 7
