REMARK  Name = ZINC34715802
REMARK  8 active torsions:
REMARK  status: ('A' for Active; 'I' for Inactive)
REMARK    1  A    between atoms: C_1  and  C_2
REMARK    2  A    between atoms: C_4  and  C_9
REMARK    3  A    between atoms: C_12  and  C_23
REMARK    4  A    between atoms: N_19  and  C_20
REMARK    5  A    between atoms: C_20  and  C_21
REMARK    6  A    between atoms: C_20  and  C_22
REMARK    7  A    between atoms: N_25  and  C_26
REMARK    8  A    between atoms: C_26  and  C_27
REMARK                            x       y       z     vdW  Elec       q    Type
REMARK                         _______ _______ _______ _____ _____    ______ ____
ROOT
ATOM      1  C   UNL     1      -0.556  -3.311  -2.494  0.00  0.00    +0.037 C 
ATOM      2  C   UNL     1       0.912  -3.730  -2.606  0.00  0.00    +0.024 C 
ATOM      3  C   UNL     1       1.193  -4.238  -4.022  0.00  0.00    +0.093 C 
ATOM      4  C   UNL     1       0.317  -5.463  -4.304  0.00  0.00    +0.122 C 
ATOM      5  N   UNL     1      -1.087  -5.107  -4.059  0.00  0.00    -0.284 N 
ATOM      6  C   UNL     1      -1.452  -4.524  -2.760  0.00  0.00    +0.117 C 
ATOM      7  C   UNL     1      -2.023  -5.310  -5.007  0.00  0.00    +0.302 C 
ATOM      8  O   UNL     1      -1.728  -5.880  -6.040  0.00  0.00    -0.253 OA
ATOM      9  N   UNL     1      -3.285  -4.881  -4.811  0.00  0.00    -0.297 N 
ATOM     10  H   UNL     1      -3.503  -4.360  -4.022  0.00  0.00    +0.150 HD
ENDROOT
BRANCH   1  14
ATOM     11  C   UNL     1      -2.004   0.418   0.513  0.00  0.00    +0.047 C 
ATOM     12  C   UNL     1      -1.517  -0.997   0.329  0.00  0.00    -0.015 A 
ATOM     13  C   UNL     1      -1.270  -1.484  -0.941  0.00  0.00    +0.010 A 
ATOM     14  C   UNL     1      -0.824  -2.781  -1.109  0.00  0.00    -0.042 A 
ATOM     15  C   UNL     1      -0.624  -3.593  -0.008  0.00  0.00    +0.007 A 
ATOM     16  C   UNL     1      -0.869  -3.108   1.262  0.00  0.00    +0.039 A 
ATOM     17  C   UNL     1      -1.312  -1.807   1.433  0.00  0.00    +0.126 A 
ATOM     18  F   UNL     1      -1.547  -1.331   2.675  0.00  0.00    -0.205 F 
ENDBRANCH   1  14
BRANCH   3  19
ATOM     19  C   UNL     1       0.876  -3.152  -5.018  0.00  0.00    +0.218 C 
ATOM     20  O   UNL     1       0.654  -2.023  -4.634  0.00  0.00    -0.275 OA
ATOM     21  N   UNL     1       0.840  -3.435  -6.335  0.00  0.00    -0.311 N 
ATOM     22  H   UNL     1       0.946  -4.351  -6.637  0.00  0.00    +0.149 HD
BRANCH  21  23
ATOM     23  C   UNL     1       0.641  -2.360  -7.310  0.00  0.00    +0.139 C 
BRANCH  23  24
ATOM     24  C   UNL     1       0.522  -2.951  -8.691  0.00  0.00    -0.028 A 
ATOM     25  C   UNL     1       1.660  -3.228  -9.425  0.00  0.00    +0.005 A 
ATOM     26  C   UNL     1       1.552  -3.770 -10.692  0.00  0.00    +0.003 A 
ATOM     27  C   UNL     1       0.306  -4.034 -11.227  0.00  0.00    +0.038 A 
ATOM     28  C   UNL     1      -0.835  -3.757 -10.493  0.00  0.00    +0.124 A 
ATOM     29  C   UNL     1      -0.725  -3.220  -9.222  0.00  0.00    +0.043 A 
ATOM     30  F   UNL     1      -2.054  -4.014 -11.016  0.00  0.00    -0.205 F 
ENDBRANCH  23  24
ENDBRANCH  21  23
ENDBRANCH   3  19
BRANCH   9  31
ATOM     31  C   UNL     1      -4.329  -5.203  -5.788  0.00  0.00    +0.068 C 
ATOM     32  C   UNL     1      -4.888  -6.597  -5.497  0.00  0.00    +0.027 C 
ATOM     33  C   UNL     1      -5.454  -4.171  -5.690  0.00  0.00    +0.027 C 
ENDBRANCH   9  31
TORSDOF 5
