REMARK  Name = ZINC01177153
REMARK  8 active torsions:
REMARK  status: ('A' for Active; 'I' for Inactive)
REMARK    1  A    between atoms: C_1  and  C_2
REMARK    2  A    between atoms: C_2  and  O_3
REMARK    3  A    between atoms: O_3  and  C_4
REMARK    4  A    between atoms: C_6  and  C_11
REMARK    5  A    between atoms: C_9  and  O_10
REMARK    6  A    between atoms: N_18  and  C_21
REMARK    7  A    between atoms: C_23  and  C_28
REMARK    8  A    between atoms: C_26  and  C_27
REMARK                            x       y       z     vdW  Elec       q    Type
REMARK                         _______ _______ _______ _____ _____    ______ ____
ROOT
ATOM      1  C   UNL     1      -2.507   1.296   0.020  0.00  0.00    +0.026 C 
ATOM      2  C   UNL     1      -1.292   1.917   0.239  0.00  0.00    +0.100 C 
ATOM      3  C   UNL     1      -1.212   3.275   0.814  0.00  0.00    +0.257 C 
ATOM      4  O   UNL     1      -2.220   3.887   1.113  0.00  0.00    -0.270 OA
ATOM      5  N   UNL     1       0.009   3.819   0.994  0.00  0.00    -0.235 N 
ATOM      6  C   UNL     1       1.127   3.156   0.669  0.00  0.00    +0.320 C 
ATOM      7  O   UNL     1       2.196   3.704   0.857  0.00  0.00    -0.251 OA
ATOM      8  N   UNL     1       1.131   1.921   0.149  0.00  0.00    -0.190 N 
ATOM      9  C   UNL     1      -0.016   1.250  -0.086  0.00  0.00    +0.263 C 
ATOM     10  O   UNL     1       0.001   0.130  -0.558  0.00  0.00    -0.269 OA
ATOM     11  H   UNL     1       0.080   4.712   1.367  0.00  0.00    +0.159 HD
ENDROOT
BRANCH   8  12
ATOM     12  C   UNL     1       2.355   1.310  -0.156  0.00  0.00    +0.049 A 
ATOM     13  C   UNL     1       2.918   1.473  -1.415  0.00  0.00    +0.027 A 
ATOM     14  C   UNL     1       4.125   0.871  -1.714  0.00  0.00    -0.049 A 
ATOM     15  C   UNL     1       4.772   0.106  -0.760  0.00  0.00    +0.004 A 
ATOM     16  C   UNL     1       4.213  -0.058   0.494  0.00  0.00    +0.005 A 
ATOM     17  C   UNL     1       3.010   0.547   0.801  0.00  0.00    -0.029 A 
ATOM     18  C   UNL     1       2.406   0.374   2.170  0.00  0.00    +0.045 C 
ATOM     19  C   UNL     1       4.737   1.047  -3.079  0.00  0.00    +0.044 C 
ENDBRANCH   8  12
BRANCH   1  22
ATOM     20  C   UNL     1      -6.007   2.247   0.954  0.00  0.00    +0.162 A 
ATOM     21  C   UNL     1      -4.840   1.521   0.841  0.00  0.00    +0.057 A 
ATOM     22  C   UNL     1      -3.749   2.058   0.141  0.00  0.00    -0.020 A 
ATOM     23  C   UNL     1      -3.857   3.327  -0.449  0.00  0.00    +0.012 A 
ATOM     24  C   UNL     1      -5.028   4.041  -0.334  0.00  0.00    +0.050 A 
ATOM     25  C   UNL     1      -6.105   3.508   0.365  0.00  0.00    +0.158 A 
BRANCH  25  26
ATOM     26  O   UNL     1      -7.257   4.218   0.474  0.00  0.00    -0.503 OA
ATOM     27  H   UNL     1      -7.890   4.053  -0.238  0.00  0.00    +0.292 HD
ENDBRANCH  25  26
BRANCH  20  28
ATOM     28  O   UNL     1      -7.065   1.731   1.636  0.00  0.00    -0.489 OA
BRANCH  28  30
ATOM     29  C   UNL     1      -8.181   0.025   2.935  0.00  0.00    +0.048 C 
ATOM     30  C   UNL     1      -6.895   0.435   2.213  0.00  0.00    +0.226 C 
ENDBRANCH  28  30
ENDBRANCH  20  28
ENDBRANCH   1  22
TORSDOF 5
