REMARK  Name = ZINC67412402
REMARK  10 active torsions:
REMARK  status: ('A' for Active; 'I' for Inactive)
REMARK    1  A    between atoms: C_1  and  C_2
REMARK    2  A    between atoms: C_2  and  C_4
REMARK    3  A    between atoms: C_2  and  N_9
REMARK    4  A    between atoms: C_4  and  C_5
REMARK    5  A    between atoms: C_5  and  N_6
REMARK    6  A    between atoms: N_6  and  C_7
REMARK    7  A    between atoms: N_6  and  C_8
REMARK    8  A    between atoms: C_15  and  N_18
REMARK    9  A    between atoms: C_19  and  O_21
REMARK   10  A    between atoms: O_21  and  C_22
REMARK                            x       y       z     vdW  Elec       q    Type
REMARK                         _______ _______ _______ _____ _____    ______ ____
ROOT
ATOM      1  N   UNL     1      -1.526  -0.220  -2.252  0.00  0.00    -0.297 N 
ATOM      2  C   UNL     1      -2.099  -0.593  -1.091  0.00  0.00    +0.302 C 
ATOM      3  O   UNL     1      -1.450  -0.583  -0.063  0.00  0.00    -0.253 OA
ATOM      4  N   UNL     1      -3.390  -0.977  -1.069  0.00  0.00    -0.286 N 
ATOM      5  C   UNL     1      -4.065  -1.263   0.204  0.00  0.00    +0.111 C 
ATOM      6  C   UNL     1      -4.685  -2.662   0.131  0.00  0.00    +0.041 C 
ATOM      7  C   UNL     1      -5.596  -2.748  -1.097  0.00  0.00    +0.079 C 
ATOM      8  C   UNL     1      -4.769  -2.519  -2.364  0.00  0.00    +0.041 C 
ATOM      9  C   UNL     1      -4.152  -1.113  -2.319  0.00  0.00    +0.111 C 
ATOM     10  H   UNL     1      -2.020  -0.295  -3.083  0.00  0.00    +0.151 HD
ENDROOT
BRANCH   7  11
ATOM     11  N   UNL     1      -6.216  -4.074  -1.152  0.00  0.00    -0.278 N 
ATOM     12  C   UNL     1      -7.389  -4.243  -1.793  0.00  0.00    +0.406 C 
ATOM     13  O   UNL     1      -7.932  -3.295  -2.326  0.00  0.00    -0.226 OA
ATOM     14  H   UNL     1      -5.783  -4.830  -0.726  0.00  0.00    +0.152 HD
BRANCH  12  15
ATOM     15  O   UNL     1      -7.960  -5.462  -1.844  0.00  0.00    -0.412 OA
BRANCH  15  16
ATOM     16  C   UNL     1      -9.086  -5.609  -2.591  0.00  0.00    +0.133 A 
ATOM     17  C   UNL     1     -10.295  -5.898  -1.976  0.00  0.00    +0.046 A 
ATOM     18  C   UNL     1     -11.438  -6.048  -2.737  0.00  0.00    +0.004 A 
ATOM     19  C   UNL     1     -11.377  -5.908  -4.112  0.00  0.00    +0.000 A 
ATOM     20  C   UNL     1     -10.173  -5.620  -4.727  0.00  0.00    +0.004 A 
ATOM     21  C   UNL     1      -9.029  -5.464  -3.970  0.00  0.00    +0.046 A 
ENDBRANCH  15  16
ENDBRANCH  12  15
ENDBRANCH   7  11
BRANCH   1  23
ATOM     22  C   UNL     1       0.832  -0.866  -2.317  0.00  0.00    +0.028 C 
ATOM     23  C   UNL     1      -0.156   0.301  -2.260  0.00  0.00    +0.070 C 
BRANCH  23  24
ATOM     24  C   UNL     1       0.042   1.198  -3.484  0.00  0.00    +0.003 C 
BRANCH  24  25
ATOM     25  C   UNL     1      -0.858   2.429  -3.365  0.00  0.00    -0.078 C 
BRANCH  25  26
ATOM     26  N   UNL     1      -0.668   3.290  -4.540  0.00  0.00    +0.376 N 
ATOM     27  C   UNL     1      -1.617   4.410  -4.485  0.00  0.00    -0.097 C 
ATOM     28  C   UNL     1       0.705   3.812  -4.547  0.00  0.00    -0.097 C 
ATOM     29  H   UNL     1      -0.829   2.754  -5.379  0.00  0.00    -0.083 HD
ENDBRANCH  25  26
ENDBRANCH  24  25
ENDBRANCH  23  24
ENDBRANCH   1  23
TORSDOF 7
