REMARK  Name = ZINC20181202
REMARK  9 active torsions:
REMARK  status: ('A' for Active; 'I' for Inactive)
REMARK    1  A    between atoms: C_1  and  N_2
REMARK    2  A    between atoms: N_2  and  C_3
REMARK    3  A    between atoms: N_2  and  C_28
REMARK    4  A    between atoms: C_3  and  C_4
REMARK    5  A    between atoms: C_4  and  N_5
REMARK    6  A    between atoms: C_6  and  C_8
REMARK    7  A    between atoms: C_8  and  N_9
REMARK    8  A    between atoms: C_18  and  C_19
REMARK    9  A    between atoms: C_28  and  C_29
REMARK                            x       y       z     vdW  Elec       q    Type
REMARK                         _______ _______ _______ _____ _____    ______ ____
ROOT
ATOM      1  N   UNL     1       3.667   2.365  -0.207  0.00  0.00    -0.257 N 
ATOM      2  C   UNL     1       3.863   3.697   0.136  0.00  0.00    +0.051 A 
ATOM      3  C   UNL     1       5.021   4.335  -0.307  0.00  0.00    +0.024 A 
ATOM      4  C   UNL     1       5.253   5.658   0.005  0.00  0.00    +0.002 A 
ATOM      5  C   UNL     1       4.341   6.372   0.761  0.00  0.00    +0.001 A 
ATOM      6  C   UNL     1       3.189   5.755   1.210  0.00  0.00    +0.017 A 
ATOM      7  C   UNL     1       2.951   4.426   0.900  0.00  0.00    +0.034 A 
ATOM      8  S   UNL     1       1.478   3.636   1.478  0.00  0.00    -0.082 S 
ATOM      9  C   UNL     1       1.268   2.358   0.266  0.00  0.00    +0.076 C 
ATOM     10  C   UNL     1       0.044   2.000  -0.194  0.00  0.00    +0.031 C 
ATOM     11  C   UNL     1       2.506   1.706  -0.214  0.00  0.00    +0.258 C 
ATOM     12  O   UNL     1       2.465   0.560  -0.621  0.00  0.00    -0.269 OA
ENDROOT
BRANCH  10  13
ATOM     13  C   UNL     1      -1.166   2.567   0.419  0.00  0.00    +0.011 A 
ATOM     14  C   UNL     1      -1.192   2.854   1.788  0.00  0.00    +0.011 A 
ATOM     15  C   UNL     1      -2.329   3.390   2.355  0.00  0.00    +0.001 A 
ATOM     16  C   UNL     1      -3.447   3.634   1.577  0.00  0.00    +0.003 A 
ATOM     17  C   UNL     1      -3.434   3.348   0.223  0.00  0.00    +0.039 A 
ATOM     18  C   UNL     1      -2.301   2.816  -0.362  0.00  0.00    +0.131 A 
ATOM     19  F   UNL     1      -2.289   2.537  -1.684  0.00  0.00    -0.205 F 
ENDBRANCH  10  13
BRANCH   1  20
ATOM     20  C   UNL     1       4.857   1.605  -0.599  0.00  0.00    +0.209 C 
BRANCH  20  22
ATOM     21  N   UNL     1       6.044   1.019  -2.688  0.00  0.00    -0.316 N 
ATOM     22  C   UNL     1       5.012   1.653  -2.097  0.00  0.00    +0.231 C 
ATOM     23  O   UNL     1       4.209   2.262  -2.771  0.00  0.00    -0.274 OA
ATOM     24  H   UNL     1       6.773   0.467  -2.077  0.00  0.00    +0.149 HD
BRANCH  21  25
ATOM     25  C   UNL     1       6.196   1.066  -4.144  0.00  0.00    +0.086 C 
BRANCH  25  26
ATOM     26  C   UNL     1       7.438   0.272  -4.554  0.00  0.00    -0.060 C 
BRANCH  26  28
ATOM     27  C   UNL     1       6.488  -0.388  -6.681  0.00  0.00    -0.096 C 
ATOM     28  N   UNL     1       7.589   0.319  -6.014  0.00  0.00    +0.382 N 
ATOM     29  H   UNL     1       7.551   1.374  -6.324  0.00  0.00    -0.082 HD
BRANCH  28  30
ATOM     30  C   UNL     1       8.890  -0.226  -6.426  0.00  0.00    -0.043 C 
BRANCH  30  31
ATOM     31  C   UNL     1       9.114   0.060  -7.889  0.00  0.00    -0.064 A 
ATOM     32  C   UNL     1       8.697  -0.850  -8.842  0.00  0.00    +0.002 A 
ATOM     33  C   UNL     1       8.897  -0.585 -10.184  0.00  0.00    +0.000 A 
ATOM     34  C   UNL     1       9.524   0.584 -10.572  0.00  0.00    +0.000 A 
ATOM     35  C   UNL     1       9.946   1.491  -9.618  0.00  0.00    +0.000 A 
ATOM     36  C   UNL     1       9.741   1.229  -8.277  0.00  0.00    +0.002 A 
ENDBRANCH  30  31
ENDBRANCH  28  30
ENDBRANCH  26  28
ENDBRANCH  25  26
ENDBRANCH  21  25
ENDBRANCH  20  22
ENDBRANCH   1  20
TORSDOF 8
