REMARK  Name = ZINC04108758
REMARK  5 active torsions:
REMARK  status: ('A' for Active; 'I' for Inactive)
REMARK    1  A    between atoms: C_1  and  C_2
REMARK    2  A    between atoms: C_3  and  C_9
REMARK    3  A    between atoms: N_5  and  C_7
REMARK    4  A    between atoms: C_14  and  S_16
REMARK    5  A    between atoms: S_16  and  C_17
REMARK                            x       y       z     vdW  Elec       q    Type
REMARK                         _______ _______ _______ _____ _____    ______ ____
ROOT
ATOM      1  C   UNL     1       3.546   0.757  -0.029  0.00  0.00    +0.033 C 
ATOM      2  C   UNL     1       4.253   0.013   0.861  0.00  0.00    +0.079 C 
ATOM      3  C   UNL     1       3.776  -0.897   1.925  0.00  0.00    +0.275 C 
ATOM      4  O   UNL     1       2.586  -1.086   2.125  0.00  0.00    -0.267 OA
ATOM      5  N   UNL     1       4.702  -1.493   2.643  0.00  0.00    -0.162 NA
ATOM      6  C   UNL     1       5.995  -1.297   2.437  0.00  0.00    +0.128 C 
ATOM      7  S   UNL     1       6.021  -0.146   1.071  0.00  0.00    -0.060 S 
ENDROOT
BRANCH   1  10
ATOM      8  C   UNL     1       1.629   3.285   0.005  0.00  0.00    +0.068 C 
ATOM      9  C   UNL     1       1.210   1.837   0.000  0.00  0.00    +0.069 A 
ATOM     10  C   UNL     1       2.079   0.721  -0.014  0.00  0.00    +0.035 A 
ATOM     11  C   UNL     1       1.283  -0.414  -0.012  0.00  0.00    +0.134 A 
ATOM     12  N   UNL     1       0.002  -0.004   0.002  0.00  0.00    -0.255 N 
ATOM     13  N   UNL     1      -0.017   1.395   0.010  0.00  0.00    -0.175 NA
ATOM     14  C   UNL     1      -1.175  -0.876   0.008  0.00  0.00    +0.174 C 
ATOM     15 CL   UNL     1       1.837  -2.059  -0.027  0.00  0.00    -0.062 Cl
ENDBRANCH   1  10
BRANCH   6  16
ATOM     16  S   UNL     1       7.360  -2.006   3.297  0.00  0.00    -0.105 S 
ATOM     17  C   UNL     1       6.476  -3.035   4.495  0.00  0.00    +0.092 C 
ENDBRANCH   6  16
TORSDOF 2
