REMARK  Name = ZINC22335099
REMARK  3 active torsions:
REMARK  status: ('A' for Active; 'I' for Inactive)
REMARK    1  A    between atoms: C_1  and  C_2
REMARK    2  A    between atoms: C_13  and  N_17
REMARK    3  A    between atoms: C_18  and  C_20
REMARK                            x       y       z     vdW  Elec       q    Type
REMARK                         _______ _______ _______ _____ _____    ______ ____
ROOT
ATOM      1  C   UNL     1     -11.181  -2.568  -4.979  0.00  0.00    +0.046 C 
ATOM      2  C   UNL     1     -10.620  -1.229  -4.578  0.00  0.00    -0.025 A 
ATOM      3  C   UNL     1     -11.310  -0.054  -4.822  0.00  0.00    +0.025 A 
ATOM      4  C   UNL     1     -10.809   1.187  -4.461  0.00  0.00    +0.042 A 
ATOM      5  C   UNL     1      -9.583   1.326  -3.832  0.00  0.00    +0.030 A 
ATOM      6  C   UNL     1      -8.870   0.152  -3.576  0.00  0.00    +0.005 A 
ATOM      7  C   UNL     1      -9.383  -1.118  -3.946  0.00  0.00    +0.050 A 
ATOM      8  N   UNL     1      -8.464  -2.054  -3.565  0.00  0.00    -0.357 N 
ATOM      9  H   UNL     1      -8.655  -3.121  -3.755  0.00  0.00    +0.166 HD
ATOM     10  C   UNL     1      -7.394  -1.439  -2.970  0.00  0.00    +0.020 A 
ATOM     11  C   UNL     1      -7.588  -0.102  -2.952  0.00  0.00    -0.017 A 
ATOM     12  C   UNL     1      -6.612   0.892  -2.374  0.00  0.00    +0.059 C 
ATOM     13  C   UNL     1      -5.253   0.202  -2.208  0.00  0.00    +0.078 C 
ATOM     14  C   UNL     1      -5.446  -1.131  -1.480  0.00  0.00    +0.028 C 
ATOM     15  C   UNL     1      -6.168  -2.117  -2.405  0.00  0.00    +0.055 C 
ATOM     16 CL   UNL     1     -11.744   2.607  -4.808  0.00  0.00    -0.084 Cl
ENDROOT
BRANCH  13  17
ATOM     17  N   UNL     1      -4.361   1.062  -1.426  0.00  0.00    -0.310 N 
ATOM     18  C   UNL     1      -3.025   0.945  -1.559  0.00  0.00    +0.242 C 
ATOM     19  O   UNL     1      -2.561   0.129  -2.327  0.00  0.00    -0.273 OA
ATOM     20  H   UNL     1      -4.782   1.802  -0.730  0.00  0.00    +0.149 HD
BRANCH  18  21
ATOM     21  C   UNL     1      -2.107   1.829  -0.754  0.00  0.00    +0.204 C 
ATOM     22  C   UNL     1      -2.249   1.504   0.749  0.00  0.00    +0.043 C 
ATOM     23  C   UNL     1      -0.780   1.606   1.249  0.00  0.00    +0.031 C 
ATOM     24  C   UNL     1      -0.013   1.086   0.008  0.00  0.00    +0.161 C 
ATOM     25  O   UNL     1      -0.746   1.581  -1.124  0.00  0.00    -0.367 OA
ENDBRANCH  18  21
ENDBRANCH  13  17
TORSDOF 2
