REMARK  Name = ZINC08072094
REMARK  12 active torsions:
REMARK  status: ('A' for Active; 'I' for Inactive)
REMARK    1  A    between atoms: C_1  and  C_2
REMARK    2  A    between atoms: C_2  and  C_4
REMARK    3  A    between atoms: C_2  and  N_14
REMARK    4  A    between atoms: C_15  and  C_17
REMARK    5  A    between atoms: C_17  and  C_18
REMARK    6  A    between atoms: C_17  and  C_19
REMARK    7  A    between atoms: C_17  and  O_20
REMARK    8  A    between atoms: O_20  and  C_21
REMARK    9  A    between atoms: C_24  and  C_27
REMARK   10  A    between atoms: C_27  and  C_28
REMARK   11  A    between atoms: C_27  and  C_29
REMARK   12  A    between atoms: C_27  and  C_30
REMARK                            x       y       z     vdW  Elec       q    Type
REMARK                         _______ _______ _______ _____ _____    ______ ____
ROOT
ATOM      1  N   UNL     1       1.374  -0.962  -1.337  0.00  0.00    -0.309 N 
ATOM      2  C   UNL     1       0.456  -0.855  -2.317  0.00  0.00    +0.257 C 
ATOM      3  O   UNL     1      -0.644  -0.407  -2.071  0.00  0.00    -0.271 OA
ATOM      4  H   UNL     1       2.254  -1.320  -1.533  0.00  0.00    +0.149 HD
ENDROOT
BRANCH   2   5
ATOM      5  C   UNL     1       0.795  -1.292  -3.719  0.00  0.00    +0.180 C 
ATOM      6  C   UNL     1       1.982  -0.475  -4.234  0.00  0.00    +0.065 C 
ATOM      7  C   UNL     1       1.161  -2.778  -3.715  0.00  0.00    +0.065 C 
BRANCH   5   8
ATOM      8  O   UNL     1      -0.334  -1.081  -4.570  0.00  0.00    -0.477 OA
BRANCH   8   9
ATOM      9  C   UNL     1      -1.473  -1.755  -4.261  0.00  0.00    +0.122 A 
ATOM     10  C   UNL     1      -1.546  -2.499  -3.093  0.00  0.00    +0.046 A 
ATOM     11  C   UNL     1      -2.705  -3.183  -2.782  0.00  0.00    +0.008 A 
ATOM     12  C   UNL     1      -3.793  -3.125  -3.634  0.00  0.00    -0.042 A 
ATOM     13  C   UNL     1      -3.723  -2.384  -4.799  0.00  0.00    +0.008 A 
ATOM     14  C   UNL     1      -2.568  -1.694  -5.112  0.00  0.00    +0.046 A 
BRANCH  12  15
ATOM     15  C   UNL     1      -5.056  -3.872  -3.292  0.00  0.00    -0.013 C 
ATOM     16  C   UNL     1      -5.604  -3.363  -1.957  0.00  0.00    +0.015 C 
ATOM     17  C   UNL     1      -6.097  -3.643  -4.390  0.00  0.00    +0.015 C 
ATOM     18  C   UNL     1      -4.751  -5.367  -3.181  0.00  0.00    +0.015 C 
ENDBRANCH  12  15
ENDBRANCH   8   9
ENDBRANCH   5   8
ENDBRANCH   2   5
BRANCH   1  20
ATOM     19  C   UNL     1       1.286   0.967   0.164  0.00  0.00    +0.028 C 
ATOM     20  C   UNL     1       1.044  -0.537   0.026  0.00  0.00    +0.076 C 
BRANCH  20  21
ATOM     21  C   UNL     1       1.928  -1.290   1.023  0.00  0.00    -0.010 C 
ATOM     22  C   UNL     1       1.686  -2.794   0.885  0.00  0.00    +0.012 C 
ATOM     23  C   UNL     1       2.570  -3.547   1.881  0.00  0.00    -0.010 C 
ATOM     24  C   UNL     1       2.226  -3.103   3.305  0.00  0.00    +0.007 C 
ATOM     25  C   UNL     1       2.468  -1.599   3.443  0.00  0.00    -0.010 C 
ATOM     26  C   UNL     1       1.584  -0.846   2.446  0.00  0.00    +0.012 C 
ATOM     27  C   UNL     1       3.938  -1.290   3.154  0.00  0.00    +0.007 C 
ATOM     28  C   UNL     1       4.283  -1.734   1.731  0.00  0.00    -0.010 C 
ATOM     29  C   UNL     1       4.041  -3.238   1.593  0.00  0.00    +0.007 C 
ATOM     30  C   UNL     1       3.399  -0.981   0.735  0.00  0.00    +0.012 C 
ENDBRANCH  20  21
ENDBRANCH   1  20
TORSDOF 6
