REMARK  Name = ZINC38636977
REMARK  18 active torsions:
REMARK  status: ('A' for Active; 'I' for Inactive)
REMARK    1  A    between atoms: C_1  and  C_2
REMARK    2  A    between atoms: C_2  and  O_3
REMARK    3  A    between atoms: O_3  and  C_4
REMARK    4  A    between atoms: C_4  and  C_6
REMARK    5  A    between atoms: C_7  and  C_35
REMARK    6  A    between atoms: C_8  and  C_31
REMARK    7  A    between atoms: C_10  and  N_11
REMARK    8  A    between atoms: C_12  and  C_14
REMARK    9  A    between atoms: C_14  and  O_15
REMARK   10  A    between atoms: O_15  and  C_16
REMARK   11  A    between atoms: C_16  and  C_18
REMARK   12  A    between atoms: C_20  and  C_30
REMARK   13  A    between atoms: C_22  and  C_25
REMARK   14  A    between atoms: C_23  and  C_24
REMARK   15  A    between atoms: C_25  and  O_27
REMARK   16  A    between atoms: O_27  and  C_28
REMARK   17  A    between atoms: C_28  and  C_29
REMARK   18  A    between atoms: N_33  and  C_34
REMARK                            x       y       z     vdW  Elec       q    Type
REMARK                         _______ _______ _______ _____ _____    ______ ____
ROOT
ATOM      1  N   UNL     1      -0.607  -2.456  -3.930  0.00  0.00    -0.277 N 
ATOM      2  C   UNL     1      -1.123  -2.783  -5.131  0.00  0.00    +0.255 C 
ATOM      3  O   UNL     1      -0.403  -3.225  -6.000  0.00  0.00    -0.272 OA
ATOM      4  H   UNL     1      -1.183  -2.103  -3.234  0.00  0.00    +0.155 HD
ENDROOT
BRANCH   1   9
ATOM      5  C   UNL     1       1.450  -2.345  -2.518  0.00  0.00    +0.091 A 
ATOM      6  C   UNL     1       2.814  -2.606  -2.513  0.00  0.00    -0.015 A 
ATOM      7  C   UNL     1       3.339  -3.113  -3.671  0.00  0.00    +0.079 A 
ATOM      8  S   UNL     1       1.916  -3.213  -4.737  0.00  0.00    -0.068 S 
ATOM      9  C   UNL     1       0.743  -2.625  -3.689  0.00  0.00    +0.087 A 
ATOM     10  C   UNL     1       3.668  -2.345  -1.299  0.00  0.00    +0.046 C 
BRANCH   7  11
ATOM     11  C   UNL     1       4.726  -3.482  -3.960  0.00  0.00    +0.251 C 
ATOM     12  O   UNL     1       5.583  -3.348  -3.106  0.00  0.00    -0.270 OA
ATOM     13  N   UNL     1       5.055  -3.971  -5.173  0.00  0.00    -0.314 N 
ATOM     14  C   UNL     1       6.442  -4.340  -5.463  0.00  0.00    +0.128 C 
ATOM     15  H   UNL     1       4.372  -4.078  -5.853  0.00  0.00    +0.149 HD
ENDBRANCH   7  11
BRANCH   5  16
ATOM     16  C   UNL     1       0.776  -1.800  -1.335  0.00  0.00    +0.342 C 
ATOM     17  O   UNL     1       0.312  -2.551  -0.499  0.00  0.00    -0.245 OA
BRANCH  16  18
ATOM     18  O   UNL     1       0.671  -0.465  -1.174  0.00  0.00    -0.461 OA
BRANCH  18  20
ATOM     19  C   UNL     1      -0.019   1.526   0.010  0.00  0.00    +0.048 C 
ATOM     20  C   UNL     1       0.002  -0.004   0.002  0.00  0.00    +0.229 C 
ENDBRANCH  18  20
ENDBRANCH  16  18
ENDBRANCH   5  16
ENDBRANCH   1   9
BRANCH   2  21
ATOM     21  C   UNL     1      -2.596  -2.599  -5.393  0.00  0.00    +0.328 C 
BRANCH  21  22
ATOM     22  O   UNL     1      -2.897  -3.013  -6.727  0.00  0.00    -0.451 OA
BRANCH  22  23
ATOM     23  C   UNL     1      -4.180  -2.912  -7.124  0.00  0.00    +0.358 C 
ATOM     24  O   UNL     1      -5.019  -2.484  -6.359  0.00  0.00    -0.243 OA
BRANCH  23  25
ATOM     25  C   UNL     1      -4.568  -3.324  -8.498  0.00  0.00    +0.146 C 
ATOM     26  N   UNL     1      -3.747  -3.796  -9.383  0.00  0.00    -0.269 NA
ATOM     27  C   UNL     1      -4.501  -4.086 -10.608  0.00  0.00    +0.140 C 
ATOM     28  C   UNL     1      -5.933  -3.702 -10.306  0.00  0.00    +0.066 C 
ATOM     29  C   UNL     1      -5.935  -3.256  -9.034  0.00  0.00    -0.007 C 
ATOM     30  C   UNL     1      -7.144  -2.763  -8.282  0.00  0.00    +0.047 C 
ATOM     31  C   UNL     1      -3.962  -3.250 -11.770  0.00  0.00    +0.038 C 
BRANCH  28  32
ATOM     32  C   UNL     1      -7.086  -3.801 -11.211  0.00  0.00    +0.338 C 
ATOM     33  O   UNL     1      -8.187  -3.454 -10.832  0.00  0.00    -0.245 OA
BRANCH  32  34
ATOM     34  O   UNL     1      -6.922  -4.277 -12.462  0.00  0.00    -0.462 OA
BRANCH  34  35
ATOM     35  C   UNL     1      -8.086  -4.345 -13.288  0.00  0.00    +0.229 C 
ATOM     36  C   UNL     1      -7.706  -4.905 -14.660  0.00  0.00    +0.048 C 
ENDBRANCH  34  35
ENDBRANCH  32  34
ENDBRANCH  28  32
ENDBRANCH  23  25
ENDBRANCH  22  23
ENDBRANCH  21  22
ENDBRANCH   2  21
TORSDOF 12
