REMARK  Name = ZINC40309628
REMARK  7 active torsions:
REMARK  status: ('A' for Active; 'I' for Inactive)
REMARK    1  A    between atoms: C_1  and  C_2
REMARK    2  A    between atoms: C_2  and  C_4
REMARK    3  A    between atoms: C_2  and  N_11
REMARK    4  A    between atoms: C_12  and  C_14
REMARK    5  A    between atoms: C_14  and  O_15
REMARK    6  A    between atoms: O_15  and  C_16
REMARK    7  A    between atoms: C_20  and  N_22
REMARK                            x       y       z     vdW  Elec       q    Type
REMARK                         _______ _______ _______ _____ _____    ______ ____
ROOT
ATOM      1  N   UNL     1       0.630  -0.501   1.229  0.00  0.00    -0.306 N 
ATOM      2  C   UNL     1      -0.117  -0.713   2.330  0.00  0.00    +0.251 C 
ATOM      3  O   UNL     1      -1.310  -0.492   2.306  0.00  0.00    -0.272 OA
ATOM      4  H   UNL     1       1.584  -0.677   1.249  0.00  0.00    +0.149 HD
ENDROOT
BRANCH   1   6
ATOM      5  C   UNL     1      -0.038   1.525   0.032  0.00  0.00    +0.033 C 
ATOM      6  C   UNL     1       0.002  -0.004   0.002  0.00  0.00    +0.101 C 
BRANCH   6   7
ATOM      7  C   UNL     1       0.800  -0.462  -1.192  0.00  0.00    -0.014 A 
ATOM      8  C   UNL     1       2.153  -0.715  -1.063  0.00  0.00    +0.006 A 
ATOM      9  C   UNL     1       2.885  -1.136  -2.158  0.00  0.00    +0.000 A 
ATOM     10  C   UNL     1       2.264  -1.304  -3.381  0.00  0.00    +0.001 A 
ATOM     11  C   UNL     1       0.911  -1.052  -3.511  0.00  0.00    +0.015 A 
ATOM     12  C   UNL     1       0.177  -0.636  -2.414  0.00  0.00    +0.023 A 
ATOM     13 BR   UNL     1      -1.675  -0.297  -2.589  0.00  0.00    -0.050 Br
ENDBRANCH   6   7
ENDBRANCH   1   6
BRANCH   2  14
ATOM     14  C   UNL     1       0.529  -1.224   3.592  0.00  0.00    +0.324 C 
BRANCH  14  15
ATOM     15  O   UNL     1      -0.463  -1.366   4.611  0.00  0.00    -0.483 OA
BRANCH  15  16
ATOM     16  C   UNL     1      -0.044  -1.820   5.821  0.00  0.00    +0.123 A 
ATOM     17  C   UNL     1       1.297  -2.117   6.025  0.00  0.00    +0.046 A 
ATOM     18  C   UNL     1       1.725  -2.579   7.255  0.00  0.00    +0.005 A 
ATOM     19  C   UNL     1       0.821  -2.747   8.286  0.00  0.00    +0.023 A 
ATOM     20  C   UNL     1      -0.522  -2.451   8.088  0.00  0.00    +0.028 A 
ATOM     21  C   UNL     1      -0.953  -1.982   6.854  0.00  0.00    +0.068 A 
BRANCH  20  22
ATOM     22  N   UNL     1      -1.437  -2.621   9.130  0.00  0.00    -0.358 N 
ATOM     23  H   UNL     1      -1.135  -2.945   9.992  0.00  0.00    +0.142 HD
ATOM     24  H   UNL     1      -2.374  -2.414   8.991  0.00  0.00    +0.142 HD
ENDBRANCH  20  22
ENDBRANCH  15  16
ENDBRANCH  14  15
ENDBRANCH   2  14
TORSDOF 6
