REMARK  Name = ZINC05046711
REMARK  8 active torsions:
REMARK  status: ('A' for Active; 'I' for Inactive)
REMARK    1  A    between atoms: C_1  and  C_2
REMARK    2  A    between atoms: C_2  and  C_3
REMARK    3  A    between atoms: C_3  and  C_4
REMARK    4  A    between atoms: C_13  and  O_24
REMARK    5  A    between atoms: C_14  and  C_15
REMARK    6  A    between atoms: C_15  and  N_51
REMARK    7  A    between atoms: C_20  and  C_22
REMARK    8  A    between atoms: C_22  and  C_23
REMARK                            x       y       z     vdW  Elec       q    Type
REMARK                         _______ _______ _______ _____ _____    ______ ____
ROOT
ATOM      1  C   UNL     1       2.595   2.442   0.318  0.00  0.00    -0.030 A 
ATOM      2  C   UNL     1       3.871   1.992   0.189  0.00  0.00    +0.096 A 
ATOM      3  C   UNL     1       4.119   0.608   0.081  0.00  0.00    +0.337 A 
ATOM      4  O   UNL     1       5.268   0.219  -0.034  0.00  0.00    -0.245 OA
ATOM      5  O   UNL     1       3.123  -0.291   0.102  0.00  0.00    -0.422 OA
ATOM      6  C   UNL     1       1.833   0.089   0.228  0.00  0.00    +0.144 A 
ATOM      7  C   UNL     1       1.513   1.455   0.340  0.00  0.00    +0.021 A 
ATOM      8  C   UNL     1       0.178   1.853   0.471  0.00  0.00    +0.015 A 
ATOM      9  C   UNL     1      -0.811   0.913   0.488  0.00  0.00    +0.046 A 
ATOM     10  C   UNL     1      -0.501  -0.441   0.377  0.00  0.00    +0.122 A 
ATOM     11  C   UNL     1       0.816  -0.852   0.248  0.00  0.00    +0.020 A 
ENDROOT
BRANCH  10  12
ATOM     12  O   UNL     1      -1.496  -1.363   0.397  0.00  0.00    -0.506 OA
ATOM     13  H   UNL     1      -1.853  -1.575  -0.476  0.00  0.00    +0.292 HD
ENDBRANCH  10  12
BRANCH   1  14
ATOM     14  C   UNL     1       2.302   3.915   0.435  0.00  0.00    +0.036 C 
BRANCH  14  16
ATOM     15  C   UNL     1       1.895   5.793   2.032  0.00  0.00    +0.004 C 
ATOM     16  C   UNL     1       2.193   4.297   1.913  0.00  0.00    +0.001 C 
ENDBRANCH  14  16
ENDBRANCH   1  14
BRANCH  11  17
ATOM     17  C   UNL     1       1.141  -2.319   0.129  0.00  0.00    -0.035 C 
BRANCH  17  23
ATOM     18  C   UNL     1      -0.177  -2.471  -1.895  0.00  0.00    -0.078 C 
ATOM     19  C   UNL     1      -0.103  -2.749  -3.398  0.00  0.00    -0.019 C 
ATOM     20  C   UNL     1       0.330  -4.201  -3.623  0.00  0.00    -0.003 C 
ATOM     21  C   UNL     1       1.679  -4.435  -2.939  0.00  0.00    -0.015 C 
ATOM     22  C   UNL     1       1.554  -4.108  -1.449  0.00  0.00    -0.068 C 
ATOM     23  N   UNL     1       1.159  -2.691  -1.300  0.00  0.00    +0.384 N 
ATOM     24  H   UNL     1       1.842  -2.102  -1.790  0.00  0.00    -0.081 HD
BRANCH  22  25
ATOM     25  C   UNL     1       2.905  -4.321  -0.764  0.00  0.00    -0.019 C 
ATOM     26  C   UNL     1       3.284  -5.801  -0.832  0.00  0.00    +0.002 C 
ENDBRANCH  22  25
ENDBRANCH  17  23
ENDBRANCH  11  17
TORSDOF 6
