REMARK  Name = ZINC46903267
REMARK  7 active torsions:
REMARK  status: ('A' for Active; 'I' for Inactive)
REMARK    1  A    between atoms: C_1  and  N_2
REMARK    2  A    between atoms: N_2  and  C_3
REMARK    3  A    between atoms: C_3  and  C_4
REMARK    4  A    between atoms: C_7  and  C_10
REMARK    5  A    between atoms: N_14  and  C_15
REMARK    6  A    between atoms: C_15  and  C_16
REMARK    7  A    between atoms: C_16  and  N_17
REMARK                            x       y       z     vdW  Elec       q    Type
REMARK                         _______ _______ _______ _____ _____    ______ ____
ROOT
ATOM      1  C   UNL     1      -0.018   1.461   0.010  0.00  0.00    +0.134 C 
ATOM      2  N   UNL     1       0.002  -0.004   0.002  0.00  0.00    -0.284 N 
ATOM      3  C   UNL     1       0.000  -0.672  -1.169  0.00  0.00    +0.302 C 
ATOM      4  O   UNL     1       0.017  -1.887  -1.175  0.00  0.00    -0.253 OA
ATOM      5  N   UNL     1      -0.020   0.009  -2.332  0.00  0.00    -0.298 N 
ATOM      6  H   UNL     1      -0.033   0.978  -2.327  0.00  0.00    +0.150 HD
ENDROOT
BRANCH   2   7
ATOM      7  C   UNL     1       0.024  -0.743   1.267  0.00  0.00    +0.144 C 
BRANCH   7   8
ATOM      8  C   UNL     1      -1.389  -1.016   1.714  0.00  0.00    -0.030 A 
ATOM      9  C   UNL     1      -2.045  -0.102   2.519  0.00  0.00    +0.006 A 
ATOM     10  C   UNL     1      -3.338  -0.345   2.932  0.00  0.00    +0.019 A 
ATOM     11  C   UNL     1      -3.986  -1.517   2.535  0.00  0.00    +0.052 A 
ATOM     12  C   UNL     1      -3.318  -2.435   1.722  0.00  0.00    +0.019 A 
ATOM     13  C   UNL     1      -2.026  -2.177   1.312  0.00  0.00    +0.006 A 
BRANCH  11  14
ATOM     14  C   UNL     1      -5.328  -1.777   2.960  0.00  0.00    +0.099 C 
ATOM     15  N   UNL     1      -6.394  -1.982   3.297  0.00  0.00    -0.191 NA
ENDBRANCH  11  14
ENDBRANCH   7   8
ENDBRANCH   2   7
BRANCH   5  16
ATOM     16  C   UNL     1      -0.022  -0.717  -3.605  0.00  0.00    +0.124 C 
BRANCH  16  17
ATOM     17  C   UNL     1      -0.047   0.283  -4.762  0.00  0.00    +0.121 C 
BRANCH  17  18
ATOM     18  N   UNL     1      -0.049  -0.442  -6.035  0.00  0.00    -0.326 N 
ATOM     19  C   UNL     1      -0.070   0.260  -7.236  0.00  0.00    +0.137 A 
ATOM     20  C   UNL     1      -0.078  -0.436  -8.442  0.00  0.00    +0.082 A 
ATOM     21  C   UNL     1      -0.099   0.275  -9.629  0.00  0.00    +0.045 A 
ATOM     22  C   UNL     1      -0.111   1.663  -9.570  0.00  0.00    +0.061 A 
ATOM     23  C   UNL     1      -0.102   2.288  -8.338  0.00  0.00    +0.133 A 
ATOM     24  N   UNL     1      -0.088   1.583  -7.222  0.00  0.00    -0.238 NA
ATOM     25 CL   UNL     1      -0.137   2.603 -11.029  0.00  0.00    -0.082 Cl
ATOM     26 CL   UNL     1      -0.061  -2.172  -8.456  0.00  0.00    -0.080 Cl
ATOM     27  H   UNL     1      -0.036  -1.412  -6.040  0.00  0.00    +0.148 HD
ENDBRANCH  17  18
ENDBRANCH  16  17
ENDBRANCH   5  16
TORSDOF 6
