REMARK  Name = ZINC10108668
REMARK  10 active torsions:
REMARK  status: ('A' for Active; 'I' for Inactive)
REMARK    1  A    between atoms: C_1  and  C_2
REMARK    2  A    between atoms: N_9  and  C_10
REMARK    3  A    between atoms: C_15  and  O_16
REMARK    4  A    between atoms: O_16  and  C_17
REMARK    5  A    between atoms: N_19  and  C_35
REMARK    6  A    between atoms: N_22  and  C_25
REMARK    7  A    between atoms: C_25  and  C_26
REMARK    8  A    between atoms: C_26  and  C_27
REMARK    9  A    between atoms: C_27  and  N_66
REMARK   10  A    between atoms: C_32  and  C_34
REMARK                            x       y       z     vdW  Elec       q    Type
REMARK                         _______ _______ _______ _____ _____    ______ ____
ROOT
ATOM      1  C   UNL     1       2.684   3.159   7.170  0.00  0.00    +0.065 C 
ATOM      2  C   UNL     1       2.002   2.861   5.861  0.00  0.00    +0.041 A 
ATOM      3  C   UNL     1       0.696   2.952   5.623  0.00  0.00    +0.116 A 
ATOM      4  N   UNL     1       0.467   2.595   4.306  0.00  0.00    -0.277 N 
ATOM      5  C   UNL     1      -0.503   2.429   3.328  0.00  0.00    +0.157 A 
ATOM      6  C   UNL     1       0.166   2.012   2.179  0.00  0.00    +0.170 A 
ATOM      7  N   UNL     1       1.461   1.939   2.475  0.00  0.00    -0.193 NA
ATOM      8  C   UNL     1       1.656   2.284   3.739  0.00  0.00    +0.223 A 
ATOM      9  N   UNL     1       2.624   2.445   4.697  0.00  0.00    -0.279 N 
ATOM     10  N   UNL     1      -0.570   1.766   1.029  0.00  0.00    -0.279 N 
ATOM     11  C   UNL     1      -1.905   1.938   1.036  0.00  0.00    +0.333 A 
ATOM     12  O   UNL     1      -2.535   1.723   0.018  0.00  0.00    -0.246 OA
ATOM     13  N   UNL     1      -2.560   2.335   2.140  0.00  0.00    -0.259 N 
ATOM     14  C   UNL     1      -1.898   2.589   3.288  0.00  0.00    +0.283 A 
ATOM     15  O   UNL     1      -2.505   2.953   4.280  0.00  0.00    -0.265 OA
ATOM     16  C   UNL     1       0.107   1.327  -0.194  0.00  0.00    +0.155 C 
ENDROOT
BRANCH   9  17
ATOM     17  C   UNL     1       3.998   2.228   4.529  0.00  0.00    +0.093 A 
ATOM     18  C   UNL     1       4.820   3.263   4.105  0.00  0.00    +0.050 A 
ATOM     19  C   UNL     1       6.176   3.046   3.943  0.00  0.00    +0.043 A 
ATOM     20  C   UNL     1       6.715   1.796   4.193  0.00  0.00    +0.024 A 
ATOM     21  C   UNL     1       5.901   0.760   4.611  0.00  0.00    +0.049 A 
ATOM     22  C   UNL     1       4.542   0.970   4.780  0.00  0.00    +0.144 A 
ATOM     23 CL   UNL     1       7.204   4.344   3.420  0.00  0.00    -0.083 Cl
BRANCH  22  24
ATOM     24  O   UNL     1       3.741  -0.049   5.189  0.00  0.00    -0.493 OA
ATOM     25  C   UNL     1       4.367  -1.311   5.428  0.00  0.00    +0.277 C 
ENDBRANCH  22  24
ENDBRANCH   9  17
BRANCH  13  26
ATOM     26  C   UNL     1      -4.015   2.500   2.095  0.00  0.00    +0.128 C 
BRANCH  26  27
ATOM     27  C   UNL     1      -4.352   3.933   1.678  0.00  0.00    +0.003 C 
BRANCH  27  28
ATOM     28  C   UNL     1      -5.872   4.106   1.632  0.00  0.00    -0.077 C 
BRANCH  28  35
ATOM     29  C   UNL     1      -5.859   6.433   2.297  0.00  0.00    -0.078 C 
ATOM     30  C   UNL     1      -6.072   7.862   1.794  0.00  0.00    -0.019 C 
ATOM     31  C   UNL     1      -7.534   8.037   1.372  0.00  0.00    -0.003 C 
ATOM     32  C   UNL     1      -7.873   7.002   0.296  0.00  0.00    -0.016 C 
ATOM     33  C   UNL     1      -7.608   5.598   0.843  0.00  0.00    -0.072 C 
ATOM     34  C   UNL     1      -7.926   4.561  -0.237  0.00  0.00    -0.013 C 
ATOM     35  N   UNL     1      -6.179   5.487   1.207  0.00  0.00    +0.381 N 
ATOM     36  H   UNL     1      -5.607   5.719   0.387  0.00  0.00    -0.081 HD
ENDBRANCH  28  35
ENDBRANCH  27  28
ENDBRANCH  26  27
ENDBRANCH  13  26
TORSDOF 6
