REMARK  Name = ZINC05679957
REMARK  6 active torsions:
REMARK  status: ('A' for Active; 'I' for Inactive)
REMARK    1  A    between atoms: C_1  and  C_2
REMARK    2  A    between atoms: C_2  and  C_3
REMARK    3  A    between atoms: C_7  and  C_28
REMARK    4  A    between atoms: C_8  and  N_9
REMARK    5  A    between atoms: C_10  and  C_12
REMARK    6  A    between atoms: C_12  and  N_13
REMARK                            x       y       z     vdW  Elec       q    Type
REMARK                         _______ _______ _______ _____ _____    ______ ____
ROOT
ATOM      1  N   UNL     1       6.279  -0.391   1.051  0.00  0.00    -0.215 N 
ATOM      2  C   UNL     1       6.806  -1.599   1.343  0.00  0.00    +0.251 C 
ATOM      3  O   UNL     1       6.225  -2.568   1.781  0.00  0.00    -0.272 OA
ATOM      4  C   UNL     1       8.273  -1.487   1.007  0.00  0.00    +0.139 C 
ATOM      5  C   UNL     1       9.135  -1.738   2.235  0.00  0.00    +0.040 C 
ATOM      6  C   UNL     1      10.615  -1.795   1.840  0.00  0.00    +0.008 C 
ATOM      7  C   UNL     1      10.859  -3.066   1.012  0.00  0.00    +0.043 C 
ATOM      8  C   UNL     1       9.804  -3.157  -0.042  0.00  0.00    -0.005 A 
ATOM      9  C   UNL     1       8.627  -2.472  -0.095  0.00  0.00    -0.005 A 
ATOM     10  C   UNL     1       7.807  -2.731  -1.192  0.00  0.00    +0.014 A 
ATOM     11  C   UNL     1       8.193  -3.624  -2.132  0.00  0.00    +0.046 A 
ATOM     12  S   UNL     1       9.776  -4.162  -1.501  0.00  0.00    -0.101 S 
ATOM     13  N   UNL     1       8.430  -0.113   0.521  0.00  0.00    -0.281 N 
ATOM     14  C   UNL     1       7.207   0.451   0.578  0.00  0.00    +0.310 C 
ATOM     15  O   UNL     1       6.973   1.595   0.241  0.00  0.00    -0.252 OA
ATOM     16  H   UNL     1       9.249   0.306   0.215  0.00  0.00    +0.152 HD
ENDROOT
BRANCH   1  17
ATOM     17  C   UNL     1       4.866  -0.046   1.224  0.00  0.00    +0.214 C 
BRANCH  17  19
ATOM     18  N   UNL     1       2.786  -0.136  -0.112  0.00  0.00    -0.284 N 
ATOM     19  C   UNL     1       4.111  -0.372  -0.039  0.00  0.00    +0.235 C 
ATOM     20  O   UNL     1       4.696  -0.845  -0.990  0.00  0.00    -0.274 OA
ATOM     21  H   UNL     1       2.330   0.303   0.623  0.00  0.00    +0.155 HD
BRANCH  18  27
ATOM     22  C   UNL     1       1.650   0.425  -2.168  0.00  0.00    -0.026 A 
ATOM     23  C   UNL     1       0.946   0.036  -3.291  0.00  0.00    +0.005 A 
ATOM     24  C   UNL     1       0.651  -1.299  -3.495  0.00  0.00    +0.001 A 
ATOM     25  C   UNL     1       1.060  -2.249  -2.577  0.00  0.00    +0.005 A 
ATOM     26  C   UNL     1       1.765  -1.867  -1.453  0.00  0.00    -0.029 A 
ATOM     27  C   UNL     1       2.067  -0.527  -1.247  0.00  0.00    +0.040 A 
ATOM     28  C   UNL     1       2.210  -2.903  -0.453  0.00  0.00    +0.045 C 
BRANCH  22  30
ATOM     29  C   UNL     1       3.370   2.183  -2.488  0.00  0.00    +0.009 C 
ATOM     30  C   UNL     1       1.971   1.881  -1.946  0.00  0.00    +0.033 C 
ENDBRANCH  22  30
ENDBRANCH  18  27
ENDBRANCH  17  19
ENDBRANCH   1  17
TORSDOF 4
