REMARK  Name = ZINC09601197
REMARK  11 active torsions:
REMARK  status: ('A' for Active; 'I' for Inactive)
REMARK    1  A    between atoms: C_1  and  C_2
REMARK    2  A    between atoms: C_5  and  C_8
REMARK    3  A    between atoms: C_14  and  C_16
REMARK    4  A    between atoms: C_16  and  S_17
REMARK    5  A    between atoms: S_17  and  C_18
REMARK    6  A    between atoms: C_21  and  C_24
REMARK    7  A    between atoms: N_22  and  C_23
REMARK    8  A    between atoms: C_24  and  C_26
REMARK    9  A    between atoms: C_24  and  N_27
REMARK   10  A    between atoms: C_28  and  C_30
REMARK   11  A    between atoms: C_33  and  C_36
REMARK                            x       y       z     vdW  Elec       q    Type
REMARK                         _______ _______ _______ _____ _____    ______ ____
ROOT
ATOM      1  C   UNL     1      -2.660   7.383  -1.714  0.00  0.00    +0.192 A 
ATOM      2  N   UNL     1      -1.576   7.461  -0.976  0.00  0.00    -0.122 NA
ATOM      3  N   UNL     1      -1.435   6.382  -0.292  0.00  0.00    -0.132 NA
ATOM      4  C   UNL     1      -2.406   5.554  -0.557  0.00  0.00    +0.154 A 
ATOM      5  N   UNL     1      -3.223   6.163  -1.469  0.00  0.00    -0.308 N 
ATOM      6  C   UNL     1      -4.449   5.621  -2.060  0.00  0.00    +0.152 C 
ENDROOT
BRANCH   4   7
ATOM      7  C   UNL     1      -2.597   4.183   0.037  0.00  0.00    +0.138 C 
ATOM      8  C   UNL     1      -3.096   4.315   1.477  0.00  0.00    +0.036 C 
BRANCH   7   9
ATOM      9  N   UNL     1      -1.320   3.464   0.027  0.00  0.00    -0.302 N 
ATOM     10  C   UNL     1      -1.305   2.116   0.020  0.00  0.00    +0.245 C 
ATOM     11  O   UNL     1      -2.351   1.497   0.021  0.00  0.00    -0.270 OA
ATOM     12  H   UNL     1      -0.486   3.958   0.026  0.00  0.00    +0.150 HD
BRANCH  10  13
ATOM     13  C   UNL     1      -0.017   1.391   0.010  0.00  0.00    +0.037 A 
ATOM     14  C   UNL     1       1.186   2.100   0.002  0.00  0.00    +0.013 A 
ATOM     15  C   UNL     1       2.385   1.417  -0.013  0.00  0.00    +0.004 A 
ATOM     16  C   UNL     1       2.396   0.034  -0.021  0.00  0.00    -0.050 A 
ATOM     17  C   UNL     1       1.208  -0.674  -0.013  0.00  0.00    +0.004 A 
ATOM     18  C   UNL     1       0.002  -0.004   0.002  0.00  0.00    +0.013 A 
ATOM     19  C   UNL     1       3.710  -0.705  -0.037  0.00  0.00    +0.044 C 
ENDBRANCH  10  13
ENDBRANCH   7   9
ENDBRANCH   4   7
BRANCH   1  20
ATOM     20  S   UNL     1      -3.271   8.618  -2.812  0.00  0.00    -0.077 S 
BRANCH  20  21
ATOM     21  C   UNL     1      -2.008   9.894  -2.584  0.00  0.00    +0.173 C 
BRANCH  21  28
ATOM     22  C   UNL     1      -1.603  15.345  -5.198  0.00  0.00    +0.080 A 
ATOM     23  C   UNL     1      -2.749  15.141  -5.915  0.00  0.00    +0.076 A 
ATOM     24  S   UNL     1      -3.194  13.498  -5.368  0.00  0.00    -0.060 S 
ATOM     25  C   UNL     1      -1.825  13.258  -4.245  0.00  0.00    +0.165 A 
ATOM     26  N   UNL     1      -1.170  14.396  -4.381  0.00  0.00    -0.225 NA
ATOM     27  N   UNL     1      -1.525  12.162  -3.445  0.00  0.00    -0.264 N 
ATOM     28  C   UNL     1      -2.333  11.083  -3.451  0.00  0.00    +0.229 C 
ATOM     29  O   UNL     1      -3.321  11.069  -4.154  0.00  0.00    -0.275 OA
ATOM     30  H   UNL     1      -0.735  12.173  -2.883  0.00  0.00    +0.157 HD
BRANCH  22  35
ATOM     31  C   UNL     1       1.319  20.279  -5.729  0.00  0.00    +0.044 C 
ATOM     32  C   UNL     1       0.555  18.988  -5.590  0.00  0.00    -0.050 A 
ATOM     33  C   UNL     1       1.014  18.003  -4.734  0.00  0.00    +0.004 A 
ATOM     34  C   UNL     1       0.318  16.819  -4.603  0.00  0.00    +0.010 A 
ATOM     35  C   UNL     1      -0.850  16.616  -5.335  0.00  0.00    +0.001 A 
ATOM     36  C   UNL     1      -1.305  17.608  -6.201  0.00  0.00    +0.010 A 
ATOM     37  C   UNL     1      -0.604  18.791  -6.319  0.00  0.00    +0.004 A 
ENDBRANCH  22  35
ENDBRANCH  21  28
ENDBRANCH  20  21
ENDBRANCH   1  20
TORSDOF 7
