REMARK  Name = ZINC02659388
REMARK  13 active torsions:
REMARK  status: ('A' for Active; 'I' for Inactive)
REMARK    1  A    between atoms: C_1  and  C_2
REMARK    2  A    between atoms: C_2  and  C_3
REMARK    3  A    between atoms: C_3  and  N_4
REMARK    4  A    between atoms: C_5  and  N_36
REMARK    5  A    between atoms: C_6  and  C_13
REMARK    6  A    between atoms: N_9  and  C_12
REMARK    7  A    between atoms: C_15  and  C_31
REMARK    8  A    between atoms: C_16  and  C_18
REMARK    9  A    between atoms: C_18  and  C_20
REMARK   10  A    between atoms: C_21  and  C_30
REMARK   11  A    between atoms: C_22  and  C_27
REMARK   12  A    between atoms: C_23  and  C_26
REMARK   13  A    between atoms: C_27  and  C_29
REMARK                            x       y       z     vdW  Elec       q    Type
REMARK                         _______ _______ _______ _____ _____    ______ ____
ROOT
ATOM      1  C   UNL     1       3.327  -4.589   0.574  0.00  0.00    +0.118 A 
ATOM      2  N   UNL     1       3.698  -5.864   0.635  0.00  0.00    -0.237 NA
ATOM      3  C   UNL     1       4.862  -6.265   0.175  0.00  0.00    +0.096 A 
ATOM      4  C   UNL     1       5.725  -5.310  -0.392  0.00  0.00    +0.089 A 
ATOM      5  S   UNL     1       4.738  -3.829  -0.217  0.00  0.00    -0.063 S 
ENDROOT
BRANCH   1   8
ATOM      6  N   UNL     1       0.741  -2.035   1.447  0.00  0.00    -0.281 N 
ATOM      7  C   UNL     1       1.920  -2.579   1.011  0.00  0.00    +0.115 A 
ATOM      8  C   UNL     1       2.077  -3.966   1.033  0.00  0.00    +0.109 A 
ATOM      9  C   UNL     1       1.002  -4.763   1.507  0.00  0.00    +0.268 A 
ATOM     10  O   UNL     1       1.102  -5.976   1.540  0.00  0.00    -0.267 OA
ATOM     11  N   UNL     1      -0.132  -4.162   1.921  0.00  0.00    -0.263 N 
ATOM     12  C   UNL     1      -0.252  -2.823   1.895  0.00  0.00    +0.333 A 
ATOM     13  O   UNL     1      -1.286  -2.313   2.280  0.00  0.00    -0.246 OA
ATOM     14  C   UNL     1      -1.244  -4.978   2.413  0.00  0.00    +0.157 C 
BRANCH   7  15
ATOM     15  N   UNL     1       2.929  -1.775   0.563  0.00  0.00    -0.344 N 
ATOM     16  H   UNL     1       3.848  -2.085   0.599  0.00  0.00    +0.144 HD
ATOM     17  H   UNL     1       2.727  -0.895   0.209  0.00  0.00    +0.144 HD
ENDBRANCH   7  15
BRANCH   6  18
ATOM     18  C   UNL     1       0.563  -0.581   1.431  0.00  0.00    +0.128 C 
BRANCH  18  20
ATOM     19  C   UNL     1      -0.218   1.363   0.069  0.00  0.00    +0.005 C 
ATOM     20  C   UNL     1      -0.031  -0.155   0.086  0.00  0.00    +0.018 C 
ENDBRANCH  18  20
ENDBRANCH   6  18
ENDBRANCH   1   8
BRANCH   3  21
ATOM     21  C   UNL     1       5.254  -7.682   0.253  0.00  0.00    +0.039 A 
ATOM     22  C   UNL     1       4.972  -8.612   1.236  0.00  0.00    +0.018 A 
ATOM     23  C   UNL     1       5.454  -9.892   1.085  0.00  0.00    +0.008 A 
ATOM     24  C   UNL     1       6.186 -10.200  -0.018  0.00  0.00    +0.046 A 
ATOM     25  S   UNL     1       6.212  -8.650  -0.902  0.00  0.00    -0.095 S 
ENDBRANCH   3  21
BRANCH   4  26
ATOM     26  C   UNL     1       7.012  -5.475  -0.950  0.00  0.00    +0.218 C 
ATOM     27  O   UNL     1       7.525  -6.582  -0.984  0.00  0.00    -0.284 OA
BRANCH  26  28
ATOM     28  C   UNL     1       7.734  -4.314  -1.491  0.00  0.00    +0.092 A 
ATOM     29  C   UNL     1       8.977  -4.337  -2.048  0.00  0.00    -0.011 A 
ATOM     30  C   UNL     1       9.283  -3.008  -2.434  0.00  0.00    +0.041 A 
ATOM     31  C   UNL     1       8.196  -2.225  -2.079  0.00  0.00    +0.024 A 
ATOM     32  N   UNL     1       7.271  -3.017  -1.514  0.00  0.00    -0.355 N 
ATOM     33  H   UNL     1       6.412  -2.722  -1.175  0.00  0.00    +0.166 HD
ATOM     34  C   UNL     1       8.073  -0.738  -2.292  0.00  0.00    +0.064 C 
ATOM     35  C   UNL     1       9.858  -5.547  -2.224  0.00  0.00    +0.047 C 
BRANCH  30  36
ATOM     36  C   UNL     1      10.516  -2.549  -3.080  0.00  0.00    +0.162 C 
ATOM     37  O   UNL     1      10.598  -2.535  -4.290  0.00  0.00    -0.292 OA
ATOM     38  C   UNL     1      11.682  -2.094  -2.240  0.00  0.00    +0.091 C 
ENDBRANCH  30  36
ENDBRANCH  26  28
ENDBRANCH   4  26
TORSDOF 8
