REMARK  Name = ZINC36609360
REMARK  9 active torsions:
REMARK  status: ('A' for Active; 'I' for Inactive)
REMARK    1  A    between atoms: C_4  and  N_7
REMARK    2  A    between atoms: N_7  and  C_8
REMARK    3  A    between atoms: C_8  and  C_10
REMARK    4  A    between atoms: C_8  and  C_17
REMARK    5  A    between atoms: C_15  and  O_16
REMARK    6  A    between atoms: N_19  and  C_20
REMARK    7  A    between atoms: C_26  and  C_28
REMARK    8  A    between atoms: C_30  and  N_35
REMARK    9  A    between atoms: C_33  and  O_34
REMARK                            x       y       z     vdW  Elec       q    Type
REMARK                         _______ _______ _______ _____ _____    ______ ____
ROOT
ATOM      1  N   UNL     1       4.069  -0.620   0.117  0.00  0.00    -0.251 N 
ATOM      2  C   UNL     1       4.946  -0.217  -0.824  0.00  0.00    +0.255 C 
ATOM      3  O   UNL     1       5.892   0.481  -0.514  0.00  0.00    -0.269 OA
ENDROOT
BRANCH   1   7
ATOM      4  C   UNL     1       4.276   0.959   3.966  0.00  0.00    +0.000 A 
ATOM      5  C   UNL     1       4.572  -0.375   3.751  0.00  0.00    +0.002 A 
ATOM      6  C   UNL     1       4.505  -0.901   2.476  0.00  0.00    +0.023 A 
ATOM      7  C   UNL     1       4.138  -0.090   1.410  0.00  0.00    +0.038 A 
ATOM      8  C   UNL     1       3.840   1.249   1.630  0.00  0.00    +0.023 A 
ATOM      9  C   UNL     1       3.910   1.769   2.907  0.00  0.00    +0.002 A 
ENDBRANCH   1   7
BRANCH   2  10
ATOM     10  C   UNL     1       4.757  -0.624  -2.229  0.00  0.00    +0.081 A 
ATOM     11  C   UNL     1       4.039  -1.782  -2.536  0.00  0.00    +0.049 A 
ATOM     12  C   UNL     1       3.866  -2.156  -3.850  0.00  0.00    +0.127 A 
ATOM     13  C   UNL     1       4.403  -1.389  -4.872  0.00  0.00    +0.036 A 
ATOM     14  C   UNL     1       5.116  -0.242  -4.583  0.00  0.00    +0.048 A 
ATOM     15  C   UNL     1       5.293   0.153  -3.265  0.00  0.00    +0.129 A 
BRANCH  12  16
ATOM     16  N   UNL     1       3.105  -3.384  -4.173  0.00  0.00    +0.056 N 
ATOM     17  O   UNL     1       2.540  -3.993  -3.295  0.00  0.00    -0.126 OA
ATOM     18  O   UNL     1       3.048  -3.776  -5.315  0.00  0.00    -0.126 OA
ENDBRANCH  12  16
BRANCH  15  19
ATOM     19  O   UNL     1       5.988   1.283  -2.981  0.00  0.00    -0.506 OA
ATOM     20  H   UNL     1       6.937   1.142  -2.862  0.00  0.00    +0.292 HD
ENDBRANCH  15  19
ENDBRANCH   2  10
BRANCH   1  21
ATOM     21  C   UNL     1       3.043  -1.613  -0.214  0.00  0.00    +0.201 C 
BRANCH  21  22
ATOM     22  C   UNL     1       2.080  -1.743   0.938  0.00  0.00    +0.024 A 
ATOM     23  C   UNL     1       1.430  -0.626   1.426  0.00  0.00    +0.009 A 
ATOM     24  C   UNL     1       0.547  -0.745   2.483  0.00  0.00    +0.001 A 
ATOM     25  C   UNL     1       0.312  -1.982   3.054  0.00  0.00    +0.004 A 
ATOM     26  C   UNL     1       0.960  -3.102   2.571  0.00  0.00    +0.046 A 
ATOM     27  C   UNL     1       1.842  -2.986   1.506  0.00  0.00    +0.122 A 
BRANCH  27  28
ATOM     28  O   UNL     1       2.476  -4.087   1.025  0.00  0.00    -0.506 OA
ATOM     29  H   UNL     1       3.323  -4.273   1.454  0.00  0.00    +0.292 HD
ENDBRANCH  27  28
ENDBRANCH  21  22
BRANCH  21  30
ATOM     30  C   UNL     1       2.296  -1.171  -1.446  0.00  0.00    +0.239 C 
ATOM     31  O   UNL     1       2.591  -0.130  -1.993  0.00  0.00    -0.273 OA
ATOM     32  N   UNL     1       1.300  -1.934  -1.939  0.00  0.00    -0.311 N 
ATOM     33  H   UNL     1       1.064  -2.766  -1.501  0.00  0.00    +0.149 HD
BRANCH  32  34
ATOM     34  C   UNL     1       0.574  -1.505  -3.136  0.00  0.00    +0.073 C 
ATOM     35  C   UNL     1      -0.553  -0.551  -2.735  0.00  0.00    +0.022 C 
ATOM     36  C   UNL     1      -1.312  -0.103  -3.986  0.00  0.00    +0.002 C 
ATOM     37  C   UNL     1      -1.905  -1.326  -4.688  0.00  0.00    +0.000 C 
ATOM     38  C   UNL     1      -0.779  -2.280  -5.089  0.00  0.00    +0.002 C 
ATOM     39  C   UNL     1      -0.020  -2.728  -3.838  0.00  0.00    +0.022 C 
ENDBRANCH  32  34
ENDBRANCH  21  30
ENDBRANCH   1  21
TORSDOF 9
