REMARK  Name = ZINC39336731
REMARK  6 active torsions:
REMARK  status: ('A' for Active; 'I' for Inactive)
REMARK    1  A    between atoms: C_1  and  C_2
REMARK    2  A    between atoms: C_5  and  C_8
REMARK    3  A    between atoms: C_10  and  C_20
REMARK    4  A    between atoms: N_12  and  C_14
REMARK    5  A    between atoms: N_21  and  N_22
REMARK    6  A    between atoms: C_23  and  C_29
REMARK                            x       y       z     vdW  Elec       q    Type
REMARK                         _______ _______ _______ _____ _____    ______ ____
ROOT
ATOM      1  C   UNL     1       0.125  -4.635  -0.280  0.00  0.00    +0.136 C 
ATOM      2  C   UNL     1      -1.284  -4.995   0.142  0.00  0.00    +0.010 C 
ATOM      3  C   UNL     1      -1.185  -5.538   1.368  0.00  0.00    +0.100 C 
ATOM      4  N   UNL     1       0.117  -5.575   1.795  0.00  0.00    -0.242 N 
ATOM      5  N   UNL     1       0.966  -5.051   0.860  0.00  0.00    -0.224 NA
ATOM      6  H   UNL     1       1.480  -4.268   1.235  0.00  0.00    +0.146 HD
ENDROOT
BRANCH   1  11
ATOM      7  C   UNL     1       0.577   1.059  -1.155  0.00  0.00    +0.044 C 
ATOM      8  C   UNL     1       0.459  -0.426  -0.927  0.00  0.00    -0.050 A 
ATOM      9  C   UNL     1       0.344  -1.284  -2.004  0.00  0.00    +0.004 A 
ATOM     10  C   UNL     1       0.236  -2.646  -1.795  0.00  0.00    +0.006 A 
ATOM     11  C   UNL     1       0.244  -3.150  -0.508  0.00  0.00    -0.024 A 
ATOM     12  C   UNL     1       0.360  -2.292   0.570  0.00  0.00    +0.006 A 
ATOM     13  C   UNL     1       0.472  -0.931   0.360  0.00  0.00    +0.004 A 
ENDBRANCH   1  11
BRANCH   4  14
ATOM     14  C   UNL     1       0.525  -6.084   3.030  0.00  0.00    +0.049 A 
ATOM     15  C   UNL     1       1.870  -6.072   3.377  0.00  0.00    +0.025 A 
ATOM     16  C   UNL     1       2.271  -6.576   4.599  0.00  0.00    +0.002 A 
ATOM     17  C   UNL     1       1.334  -7.092   5.476  0.00  0.00    +0.000 A 
ATOM     18  C   UNL     1      -0.006  -7.105   5.134  0.00  0.00    +0.002 A 
ATOM     19  C   UNL     1      -0.414  -6.597   3.916  0.00  0.00    +0.025 A 
ENDBRANCH   4  14
BRANCH   2  20
ATOM     20  C   UNL     1      -2.471  -4.799  -0.607  0.00  0.00    +0.137 C 
ATOM     21  N   UNL     1      -3.622  -5.161  -0.112  0.00  0.00    -0.184 NA
BRANCH  21  22
ATOM     22  N   UNL     1      -4.804  -4.876  -0.807  0.00  0.00    -0.173 N 
ATOM     23  C   UNL     1      -6.175  -5.300  -0.466  0.00  0.00    +0.264 C 
ATOM     24  N   UNL     1      -6.999  -4.716  -1.536  0.00  0.00    -0.189 NA
ATOM     25  N   UNL     1      -6.253  -4.103  -2.304  0.00  0.00    -0.219 N 
ATOM     26  C   UNL     1      -4.945  -4.148  -1.936  0.00  0.00    +0.174 C 
ATOM     27  S   UNL     1      -3.662  -3.393  -2.782  0.00  0.00    -0.015 S 
ATOM     28  H   UNL     1      -6.569  -3.632  -3.091  0.00  0.00    +0.176 HD
BRANCH  23  29
ATOM     29  C   UNL     1      -6.581  -4.750   0.877  0.00  0.00    +0.001 A 
ATOM     30  C   UNL     1      -5.635  -4.516   1.863  0.00  0.00    +0.025 A 
ATOM     31  C   UNL     1      -6.043  -4.012   3.083  0.00  0.00    +0.083 A 
ATOM     32  N   UNL     1      -7.316  -3.754   3.314  0.00  0.00    -0.367 N 
ATOM     33  C   UNL     1      -8.243  -3.963   2.400  0.00  0.00    +0.083 A 
ATOM     34  C   UNL     1      -7.908  -4.461   1.154  0.00  0.00    +0.025 A 
ATOM     35  H   UNL     1      -7.577  -3.400   4.178  0.00  0.00    +0.165 HD
ENDBRANCH  23  29
ENDBRANCH  21  22
ENDBRANCH   2  20
TORSDOF 5
