REMARK  Name = ZINC32913695
REMARK  6 active torsions:
REMARK  status: ('A' for Active; 'I' for Inactive)
REMARK    1  A    between atoms: C_6  and  S_7
REMARK    2  A    between atoms: S_7  and  N_10
REMARK    3  A    between atoms: C_16  and  C_18
REMARK    4  A    between atoms: C_18  and  O_19
REMARK    5  A    between atoms: O_19  and  C_20
REMARK    6  A    between atoms: C_20  and  C_22
REMARK                            x       y       z     vdW  Elec       q    Type
REMARK                         _______ _______ _______ _____ _____    ______ ____
ROOT
ATOM      1  N   UNL     1       0.483  10.216  -1.142  0.00  0.00    -0.174 NA
ATOM      2  C   UNL     1      -0.875   9.654  -1.132  0.00  0.00    +0.128 C 
ATOM      3  C   UNL     1      -1.000   8.695   0.057  0.00  0.00    +0.125 C 
ATOM      4  N   UNL     1       0.146   7.775   0.041  0.00  0.00    -0.296 N 
ATOM      5  C   UNL     1       1.504   8.336   0.037  0.00  0.00    +0.125 C 
ATOM      6  C   UNL     1       1.629   9.296  -1.158  0.00  0.00    +0.128 C 
ATOM      7  C   UNL     1      -0.045   6.441   0.036  0.00  0.00    +0.253 C 
ATOM      8  O   UNL     1      -1.171   5.989   0.045  0.00  0.00    -0.272 OA
ENDROOT
BRANCH   1   9
ATOM      9  S   UNL     1       0.718  11.855  -1.135  0.00  0.00    +0.061 S 
ATOM     10  O   UNL     1       2.003  12.083  -1.697  0.00  0.00    -0.153 OA
ATOM     11  O   UNL     1      -0.462  12.437  -1.671  0.00  0.00    -0.153 OA
BRANCH   9  17
ATOM     12  C   UNL     1      -0.341  12.734   1.222  0.00  0.00    +0.030 A 
ATOM     13  C   UNL     1      -0.271  13.126   2.546  0.00  0.00    +0.022 A 
ATOM     14  C   UNL     1       0.950  13.155   3.195  0.00  0.00    +0.041 A 
ATOM     15  C   UNL     1       2.100  12.786   2.521  0.00  0.00    +0.022 A 
ATOM     16  C   UNL     1       2.029  12.389   1.199  0.00  0.00    +0.030 A 
ATOM     17  C   UNL     1       0.808  12.361   0.550  0.00  0.00    +0.106 A 
ATOM     18 CL   UNL     1       1.039  13.652   4.856  0.00  0.00    -0.084 Cl
ENDBRANCH   9  17
ENDBRANCH   1   9
BRANCH   7  19
ATOM     19  C   UNL     1       1.140   5.510   0.020  0.00  0.00    +0.328 C 
BRANCH  19  20
ATOM     20  O   UNL     1       0.675   4.134   0.017  0.00  0.00    -0.451 OA
BRANCH  20  21
ATOM     21  C   UNL     1       1.616   3.171   0.003  0.00  0.00    +0.360 C 
ATOM     22  O   UNL     1       2.793   3.471  -0.007  0.00  0.00    -0.243 OA
BRANCH  21  23
ATOM     23  C   UNL     1       1.217   1.750  -0.000  0.00  0.00    +0.169 A 
ATOM     24  C   UNL     1       2.084   0.631  -0.015  0.00  0.00    +0.056 A 
ATOM     25  C   UNL     1       1.275  -0.454  -0.013  0.00  0.00    +0.105 A 
ATOM     26  N   UNL     1       0.002  -0.004   0.002  0.00  0.00    -0.284 N 
ATOM     27  H   UNL     1      -0.834  -0.719   0.006  0.00  0.00    +0.188 HD
ATOM     28  N   UNL     1      -0.015   1.280   0.009  0.00  0.00    -0.167 NA
ENDBRANCH  21  23
ENDBRANCH  20  21
ENDBRANCH  19  20
ENDBRANCH   7  19
TORSDOF 6
