REMARK  Name = ZINC66139957
REMARK  9 active torsions:
REMARK  status: ('A' for Active; 'I' for Inactive)
REMARK    1  A    between atoms: C_1  and  C_2
REMARK    2  A    between atoms: C_3  and  C_8
REMARK    3  A    between atoms: C_4  and  C_7
REMARK    4  A    between atoms: C_8  and  N_9
REMARK    5  A    between atoms: N_9  and  C_10
REMARK    6  A    between atoms: N_13  and  C_14
REMARK    7  A    between atoms: C_14  and  C_15
REMARK    8  A    between atoms: C_15  and  C_16
REMARK    9  A    between atoms: C_16  and  C_17
REMARK                            x       y       z     vdW  Elec       q    Type
REMARK                         _______ _______ _______ _____ _____    ______ ____
ROOT
ATOM      1  N   UNL     1       1.371  -0.174  -3.041  0.00  0.00    -0.284 N 
ATOM      2  C   UNL     1       2.075  -1.292  -3.676  0.00  0.00    +0.134 C 
ATOM      3  C   UNL     1       1.991   1.013  -2.888  0.00  0.00    +0.302 C 
ATOM      4  O   UNL     1       1.407   1.940  -2.360  0.00  0.00    -0.253 OA
ATOM      5  N   UNL     1       3.258   1.172  -3.320  0.00  0.00    -0.299 N 
ATOM      6  H   UNL     1       3.723   0.433  -3.741  0.00  0.00    +0.150 HD
ENDROOT
BRANCH   1   7
ATOM      7  C   UNL     1      -0.005  -0.348  -2.571  0.00  0.00    +0.149 C 
BRANCH   7  10
ATOM      8  C   UNL     1      -0.018   1.503   0.010  0.00  0.00    +0.069 C 
ATOM      9  C   UNL     1       0.002  -0.004   0.002  0.00  0.00    +0.085 A 
ATOM     10  C   UNL     1       0.008  -0.824  -1.141  0.00  0.00    +0.034 A 
ATOM     11  C   UNL     1       0.027  -2.108  -0.735  0.00  0.00    +0.139 A 
ATOM     12  O   UNL     1       0.034  -2.119   0.606  0.00  0.00    -0.359 OA
ATOM     13  N   UNL     1       0.023  -0.775   1.052  0.00  0.00    -0.083 NA
ATOM     14  C   UNL     1       0.039  -3.320  -1.631  0.00  0.00    +0.089 C 
ENDBRANCH   7  10
ENDBRANCH   1   7
BRANCH   5  15
ATOM     15  C   UNL     1       3.931   2.462  -3.155  0.00  0.00    +0.106 C 
BRANCH  15  16
ATOM     16  C   UNL     1       5.348   2.375  -3.725  0.00  0.00    +0.025 C 
BRANCH  16  17
ATOM     17  C   UNL     1       6.051   3.723  -3.552  0.00  0.00    +0.064 C 
BRANCH  17  18
ATOM     18  C   UNL     1       7.447   3.637  -4.114  0.00  0.00    +0.079 A 
ATOM     19  N   UNL     1       7.851   3.897  -5.332  0.00  0.00    -0.249 NA
ATOM     20  C   UNL     1       9.122   3.778  -5.695  0.00  0.00    +0.052 A 
ATOM     21  C   UNL     1       9.962   3.368  -4.707  0.00  0.00    +0.013 A 
ATOM     22  S   UNL     1       8.868   3.190  -3.326  0.00  0.00    -0.077 S 
ATOM     23  C   UNL     1      11.432   3.138  -4.797  0.00  0.00    +0.044 C 
ATOM     24  C   UNL     1      11.818   3.084  -6.284  0.00  0.00    +0.006 C 
ATOM     25  C   UNL     1      11.169   4.267  -7.007  0.00  0.00    +0.006 C 
ATOM     26  C   UNL     1       9.655   4.067  -7.092  0.00  0.00    +0.056 C 
ENDBRANCH  17  18
ENDBRANCH  16  17
ENDBRANCH  15  16
ENDBRANCH   5  15
TORSDOF 6
