REMARK  Name = ZINC63557153
REMARK  10 active torsions:
REMARK  status: ('A' for Active; 'I' for Inactive)
REMARK    1  A    between atoms: C_1  and  C_2
REMARK    2  A    between atoms: C_2  and  C_3
REMARK    3  A    between atoms: C_2  and  C_4
REMARK    4  A    between atoms: C_2  and  C_5
REMARK    5  A    between atoms: C_5  and  C_6
REMARK    6  A    between atoms: C_10  and  N_13
REMARK    7  A    between atoms: C_14  and  C_16
REMARK    8  A    between atoms: N_21  and  C_23
REMARK    9  A    between atoms: C_23  and  C_24
REMARK   10  A    between atoms: C_24  and  C_25
REMARK                            x       y       z     vdW  Elec       q    Type
REMARK                         _______ _______ _______ _____ _____    ______ ____
ROOT
ATOM      1  C   UNL     1       7.429  -2.903  -1.309  0.00  0.00    +0.101 C 
ATOM      2  C   UNL     1       7.578  -1.563  -2.067  0.00  0.00    +0.110 C 
ATOM      3  C   UNL     1       8.936  -1.659  -2.727  0.00  0.00    +0.216 C 
ATOM      4  O   UNL     1       9.555  -0.721  -3.182  0.00  0.00    -0.276 OA
ATOM      5  N   UNL     1       9.356  -2.936  -2.735  0.00  0.00    -0.300 N 
ATOM      6  C   UNL     1       8.368  -3.827  -2.114  0.00  0.00    +0.121 C 
ENDROOT
BRANCH   1   8
ATOM      7  N   UNL     1       5.023  -2.691  -0.774  0.00  0.00    -0.284 N 
ATOM      8  C   UNL     1       6.006  -3.398  -1.365  0.00  0.00    +0.220 C 
ATOM      9  O   UNL     1       5.747  -4.433  -1.941  0.00  0.00    -0.275 OA
ATOM     10  H   UNL     1       5.230  -1.863  -0.313  0.00  0.00    +0.152 HD
BRANCH   7  14
ATOM     11  C   UNL     1       1.854  -1.143  -1.186  0.00  0.00    +0.189 C 
ATOM     12  N   UNL     1       2.238  -2.020  -2.316  0.00  0.00    -0.175 NA
ATOM     13  N   UNL     1       3.034  -2.925  -2.156  0.00  0.00    -0.157 NA
ATOM     14  C   UNL     1       3.640  -3.172  -0.828  0.00  0.00    +0.275 C 
ATOM     15  S   UNL     1       2.524  -2.136   0.222  0.00  0.00    -0.085 S 
BRANCH  11  16
ATOM     16  C   UNL     1       0.335  -0.993  -1.089  0.00  0.00    +0.046 C 
BRANCH  16  18
ATOM     17  C   UNL     1       0.542   1.291  -0.097  0.00  0.00    +0.011 C 
ATOM     18  C   UNL     1      -0.015  -0.118   0.116  0.00  0.00    -0.035 C 
ATOM     19  C   UNL     1       0.598  -0.723   1.381  0.00  0.00    +0.011 C 
ATOM     20  C   UNL     1      -1.536  -0.047   0.271  0.00  0.00    +0.011 C 
ENDBRANCH  16  18
ENDBRANCH  11  16
ENDBRANCH   7  14
ENDBRANCH   1   8
BRANCH   5  21
ATOM     21  C   UNL     1      10.636  -3.381  -3.292  0.00  0.00    +0.112 C 
BRANCH  21  22
ATOM     22  C   UNL     1      11.708  -3.339  -2.202  0.00  0.00    +0.052 C 
BRANCH  22  23
ATOM     23  C   UNL     1      13.025  -3.797  -2.775  0.00  0.00    -0.040 C 
ATOM     24  C   UNL     1      14.014  -3.016  -3.266  0.00  0.00    +0.000 A 
ATOM     25  C   UNL     1      14.154  -1.562  -3.409  0.00  0.00    +0.030 A 
ATOM     26  C   UNL     1      15.288  -1.062  -3.952  0.00  0.00    +0.042 A 
ATOM     27  C   UNL     1      16.331  -1.898  -4.380  0.00  0.00    +0.022 A 
ATOM     28  C   UNL     1      16.274  -3.243  -4.281  0.00  0.00    +0.027 A 
ATOM     29  C   UNL     1      15.128  -3.876  -3.725  0.00  0.00    +0.043 A 
ATOM     30  N   UNL     1      14.840  -5.139  -3.526  0.00  0.00    -0.380 N 
ATOM     31  C   UNL     1      13.511  -5.223  -2.911  0.00  0.00    +0.144 C 
ATOM     32 CL   UNL     1      15.458   0.657  -4.122  0.00  0.00    -0.084 Cl
ATOM     33  H   UNL     1      15.411  -5.891  -3.745  0.00  0.00    +0.160 HD
ENDBRANCH  22  23
ENDBRANCH  21  22
ENDBRANCH   5  21
TORSDOF 7
