REMARK  Name = ZINC02059538
REMARK  8 active torsions:
REMARK  status: ('A' for Active; 'I' for Inactive)
REMARK    1  A    between atoms: C_4  and  C_7
REMARK    2  A    between atoms: C_7  and  C_9
REMARK    3  A    between atoms: C_14  and  N_15
REMARK    4  A    between atoms: N_15  and  N_16
REMARK    5  A    between atoms: C_18  and  C_26
REMARK    6  A    between atoms: N_20  and  C_23
REMARK    7  A    between atoms: C_23  and  N_25
REMARK    8  A    between atoms: C_29  and  N_32
REMARK                            x       y       z     vdW  Elec       q    Type
REMARK                         _______ _______ _______ _____ _____    ______ ____
ROOT
ATOM      1  N   UNL     1       7.404  -2.505  -0.079  0.00  0.00    -0.175 NA
ATOM      2  C   UNL     1       8.485  -1.750  -0.116  0.00  0.00    +0.173 C 
ATOM      3  C   UNL     1       8.563  -0.280   0.025  0.00  0.00    +0.122 C 
ATOM      4  N   UNL     1       9.822   0.053  -0.074  0.00  0.00    -0.168 NA
ATOM      5  N   UNL     1      10.629  -1.066  -0.273  0.00  0.00    -0.134 N 
ATOM      6  C   UNL     1       9.879  -2.186  -0.302  0.00  0.00    +0.294 C 
ATOM      7  O   UNL     1      10.274  -3.328  -0.455  0.00  0.00    -0.266 OA
ENDROOT
BRANCH   3   8
ATOM      8  C   UNL     1       7.425   0.643   0.239  0.00  0.00    +0.004 A 
ATOM      9  C   UNL     1       7.432   1.526   1.319  0.00  0.00    +0.012 A 
ATOM     10  C   UNL     1       6.369   2.383   1.512  0.00  0.00    +0.033 A 
ATOM     11  C   UNL     1       5.297   2.369   0.638  0.00  0.00    +0.126 A 
ATOM     12  C   UNL     1       5.283   1.496  -0.435  0.00  0.00    +0.033 A 
ATOM     13  C   UNL     1       6.344   0.637  -0.642  0.00  0.00    +0.012 A 
BRANCH  11  14
ATOM     14  N   UNL     1       4.159   3.291   0.852  0.00  0.00    +0.056 N 
ATOM     15  O   UNL     1       4.206   4.114   1.736  0.00  0.00    -0.126 OA
ATOM     16  O   UNL     1       3.182   3.221   0.143  0.00  0.00    -0.126 OA
ENDBRANCH  11  14
ENDBRANCH   3   8
BRANCH   1  17
ATOM     17  N   UNL     1       6.275  -1.997   0.282  0.00  0.00    -0.236 N 
ATOM     18  H   UNL     1       6.235  -1.083   0.605  0.00  0.00    +0.174 HD
BRANCH  17  24
ATOM     19  C   UNL     1       3.908  -2.259   0.723  0.00  0.00    +0.046 A 
ATOM     20  C   UNL     1       2.748  -3.032   0.636  0.00  0.00    +0.033 A 
ATOM     21  C   UNL     1       2.795  -4.280   0.050  0.00  0.00    +0.042 A 
ATOM     22  C   UNL     1       3.990  -4.772  -0.453  0.00  0.00    +0.022 A 
ATOM     23  C   UNL     1       5.145  -4.020  -0.374  0.00  0.00    +0.027 A 
ATOM     24  C   UNL     1       5.115  -2.758   0.207  0.00  0.00    +0.059 A 
ATOM     25 CL   UNL     1       1.353  -5.239  -0.057  0.00  0.00    -0.084 Cl
BRANCH  19  26
ATOM     26  C   UNL     1       3.865  -0.924   1.349  0.00  0.00    +0.195 C 
ATOM     27  O   UNL     1       3.374   0.013   0.748  0.00  0.00    -0.287 OA
BRANCH  26  31
ATOM     28  C   UNL     1       5.450  -0.352   5.247  0.00  0.00    +0.000 A 
ATOM     29  C   UNL     1       4.941   0.726   4.546  0.00  0.00    +0.001 A 
ATOM     30  C   UNL     1       4.424   0.548   3.279  0.00  0.00    +0.012 A 
ATOM     31  C   UNL     1       4.417  -0.725   2.705  0.00  0.00    +0.022 A 
ATOM     32  C   UNL     1       4.933  -1.809   3.418  0.00  0.00    +0.012 A 
ATOM     33  C   UNL     1       5.446  -1.616   4.684  0.00  0.00    +0.001 A 
ENDBRANCH  26  31
ENDBRANCH  19  26
ENDBRANCH  17  24
ENDBRANCH   1  17
BRANCH   5  34
ATOM     34  C   UNL     1      11.969  -1.034  -0.411  0.00  0.00    +0.158 C 
ATOM     35  S   UNL     1      12.840  -2.488  -0.652  0.00  0.00    -0.017 S 
BRANCH  34  36
ATOM     36  N   UNL     1      12.624   0.143  -0.361  0.00  0.00    -0.339 N 
ATOM     37  H   UNL     1      12.130   0.967  -0.224  0.00  0.00    +0.144 HD
ATOM     38  H   UNL     1      13.588   0.167  -0.460  0.00  0.00    +0.144 HD
ENDBRANCH  34  36
ENDBRANCH   5  34
TORSDOF 8
