REMARK  Name = ZINC03646440
REMARK  7 active torsions:
REMARK  status: ('A' for Active; 'I' for Inactive)
REMARK    1  A    between atoms: C_1  and  C_2
REMARK    2  A    between atoms: C_2  and  N_3
REMARK    3  A    between atoms: C_12  and  C_25
REMARK    4  A    between atoms: C_28  and  C_31
REMARK    5  A    between atoms: C_31  and  C_32
REMARK    6  A    between atoms: C_31  and  C_33
REMARK    7  A    between atoms: C_31  and  C_34
REMARK                            x       y       z     vdW  Elec       q    Type
REMARK                         _______ _______ _______ _____ _____    ______ ____
ROOT
ATOM      1  N   UNL     1       4.932  -1.232  -0.665  0.00  0.00    -0.282 N 
ATOM      2  C   UNL     1       4.453   0.022  -0.352  0.00  0.00    +0.116 A 
ATOM      3  C   UNL     1       5.304   1.084  -0.367  0.00  0.00    +0.067 A 
ATOM      4  C   UNL     1       6.655   0.870  -0.711  0.00  0.00    +0.260 A 
ATOM      5  O   UNL     1       7.435   1.806  -0.735  0.00  0.00    -0.267 OA
ATOM      6  N   UNL     1       7.079  -0.372  -1.012  0.00  0.00    -0.275 N 
ATOM      7  H   UNL     1       8.037  -0.523  -1.257  0.00  0.00    +0.173 HD
ATOM      8  C   UNL     1       6.225  -1.410  -0.987  0.00  0.00    +0.331 A 
ATOM      9  O   UNL     1       6.627  -2.525  -1.259  0.00  0.00    -0.246 OA
ATOM     10  C   UNL     1       4.859   2.483  -0.025  0.00  0.00    +0.093 C 
ATOM     11  C   UNL     1       3.354   2.542  -0.015  0.00  0.00    +0.034 C 
ATOM     12  C   UNL     1       2.570   1.417  -0.016  0.00  0.00    +0.048 C 
ATOM     13  N   UNL     1       3.119   0.154  -0.035  0.00  0.00    -0.299 N 
ATOM     14  C   UNL     1       1.159   1.817   0.001  0.00  0.00    +0.007 A 
ATOM     15  C   UNL     1      -0.013   1.076   0.008  0.00  0.00    +0.010 A 
ATOM     16  C   UNL     1      -1.214   1.790   0.017  0.00  0.00    +0.001 A 
ATOM     17  C   UNL     1      -1.242   3.165   0.030  0.00  0.00    +0.001 A 
ATOM     18  C   UNL     1      -0.069   3.927   0.023  0.00  0.00    +0.012 A 
ATOM     19  C   UNL     1       1.126   3.234   0.009  0.00  0.00    +0.031 A 
ATOM     20  C   UNL     1       2.532   3.692  -0.001  0.00  0.00    +0.193 C 
ATOM     21  O   UNL     1       2.912   4.847   0.002  0.00  0.00    -0.287 OA
ATOM     22  H   UNL     1       2.578  -0.625   0.171  0.00  0.00    +0.154 HD
ENDROOT
BRANCH  10  23
ATOM     23  C   UNL     1       5.387   2.860   1.335  0.00  0.00    -0.035 A 
ATOM     24  C   UNL     1       5.026   2.119   2.445  0.00  0.00    +0.005 A 
ATOM     25  C   UNL     1       5.514   2.462   3.692  0.00  0.00    +0.004 A 
ATOM     26  C   UNL     1       6.354   3.551   3.831  0.00  0.00    -0.042 A 
ATOM     27  C   UNL     1       6.710   4.295   2.721  0.00  0.00    +0.004 A 
ATOM     28  C   UNL     1       6.226   3.949   1.473  0.00  0.00    +0.005 A 
BRANCH  26  29
ATOM     29  C   UNL     1       6.882   3.928   5.191  0.00  0.00    -0.013 C 
ATOM     30  C   UNL     1       6.431   5.348   5.538  0.00  0.00    +0.015 C 
ATOM     31  C   UNL     1       6.340   2.951   6.237  0.00  0.00    +0.015 C 
ATOM     32  C   UNL     1       8.411   3.867   5.180  0.00  0.00    +0.015 C 
ENDBRANCH  26  29
ENDBRANCH  10  23
BRANCH   1  34
ATOM     33  C   UNL     1       3.391  -2.556  -2.027  0.00  0.00    +0.027 C 
ATOM     34  C   UNL     1       4.023  -2.381  -0.644  0.00  0.00    +0.125 C 
ENDBRANCH   1  34
TORSDOF 3
