REMARK  Name = ZINC36310092
REMARK  18 active torsions:
REMARK  status: ('A' for Active; 'I' for Inactive)
REMARK    1  A    between atoms: C_1  and  C_2
REMARK    2  A    between atoms: C_2  and  C_3
REMARK    3  A    between atoms: C_2  and  C_4
REMARK    4  A    between atoms: C_2  and  O_5
REMARK    5  A    between atoms: O_5  and  C_6
REMARK    6  A    between atoms: C_6  and  C_7
REMARK    7  A    between atoms: C_7  and  C_9
REMARK    8  A    between atoms: C_7  and  O_37
REMARK    9  A    between atoms: C_9  and  N_10
REMARK   10  A    between atoms: N_10  and  C_11
REMARK   11  A    between atoms: N_10  and  C_14
REMARK   12  A    between atoms: C_11  and  C_12
REMARK   13  A    between atoms: C_14  and  C_15
REMARK   14  A    between atoms: C_25  and  C_27
REMARK   15  A    between atoms: C_27  and  O_28
REMARK   16  A    between atoms: O_28  and  C_29
REMARK   17  A    between atoms: C_32  and  O_35
REMARK   18  A    between atoms: O_35  and  C_36
REMARK                            x       y       z     vdW  Elec       q    Type
REMARK                         _______ _______ _______ _____ _____    ______ ____
ROOT
ATOM      1  C   UNL     1       6.671  -1.319  -5.182  0.00  0.00    +0.200 C 
ATOM      2  O   UNL     1       5.956  -1.929  -5.949  0.00  0.00    -0.278 OA
ATOM      3  N   UNL     1       7.999  -1.254  -5.406  0.00  0.00    -0.292 N 
ATOM      4  C   UNL     1       8.876  -0.521  -4.480  0.00  0.00    +0.113 C 
ATOM      5  C   UNL     1       9.829  -1.529  -3.819  0.00  0.00    +0.061 C 
ATOM      6  C   UNL     1      10.328  -2.472  -4.864  0.00  0.00    -0.004 A 
ATOM      7  C   UNL     1       9.817  -2.692  -6.106  0.00  0.00    -0.014 A 
ATOM      8  C   UNL     1      10.469  -3.639  -6.893  0.00  0.00    +0.013 A 
ATOM      9  C   UNL     1      11.557  -4.284  -6.413  0.00  0.00    +0.046 A 
ATOM     10  S   UNL     1      11.720  -3.568  -4.785  0.00  0.00    -0.101 S 
ATOM     11  C   UNL     1       8.591  -1.919  -6.574  0.00  0.00    +0.144 C 
ENDROOT
BRANCH   1  12
ATOM     12  C   UNL     1       6.075  -0.633  -3.980  0.00  0.00    +0.019 C 
BRANCH  12  13
ATOM     13  N   UNL     1       4.622  -0.851  -3.962  0.00  0.00    +0.389 N 
ATOM     14  H   UNL     1       4.227  -0.553  -4.842  0.00  0.00    -0.081 HD
BRANCH  13  15
ATOM     15  C   UNL     1       4.024  -0.074  -2.868  0.00  0.00    -0.044 C 
BRANCH  15  16
ATOM     16  C   UNL     1       4.142   1.419  -3.179  0.00  0.00    +0.124 C 
BRANCH  16  17
ATOM     17  O   UNL     1       5.514   1.812  -3.118  0.00  0.00    -0.391 OA
ATOM     18  H   UNL     1       5.927   1.667  -2.255  0.00  0.00    +0.210 HD
ENDBRANCH  16  17
BRANCH  16  19
ATOM     19  C   UNL     1       3.336   2.219  -2.153  0.00  0.00    +0.189 C 
BRANCH  19  20
ATOM     20  O   UNL     1       3.350   3.602  -2.510  0.00  0.00    -0.372 OA
BRANCH  20  22
ATOM     21  C   UNL     1       3.224   4.331  -0.209  0.00  0.00    +0.041 C 
ATOM     22  C   UNL     1       2.622   4.442  -1.612  0.00  0.00    +0.061 C 
ATOM     23  C   UNL     1       1.158   4.000  -1.574  0.00  0.00    +0.041 C 
ATOM     24  C   UNL     1       2.705   5.893  -2.089  0.00  0.00    +0.041 C 
ENDBRANCH  20  22
ENDBRANCH  19  20
ENDBRANCH  16  19
ENDBRANCH  15  16
ENDBRANCH  13  15
BRANCH  13  25
ATOM     25  C   UNL     1       4.344  -2.279  -3.759  0.00  0.00    -0.051 C 
BRANCH  25  26
ATOM     26  C   UNL     1       2.862  -2.524  -3.879  0.00  0.00    -0.053 C 
ATOM     27  C   UNL     1       2.413  -3.421  -4.721  0.00  0.00    +0.002 C 
ENDBRANCH  25  26
ENDBRANCH  13  25
ENDBRANCH  12  13
ENDBRANCH   1  12
BRANCH  11  28
ATOM     28  C   UNL     1       9.008  -0.872  -7.610  0.00  0.00    +0.256 C 
BRANCH  28  29
ATOM     29  O   UNL     1      10.053  -0.060  -7.072  0.00  0.00    -0.490 OA
BRANCH  29  30
ATOM     30  C   UNL     1      10.542   0.926  -7.870  0.00  0.00    +0.121 A 
ATOM     31  C   UNL     1      10.021   1.110  -9.143  0.00  0.00    +0.049 A 
ATOM     32  C   UNL     1      10.517   2.112  -9.954  0.00  0.00    +0.049 A 
ATOM     33  C   UNL     1      11.536   2.934  -9.496  0.00  0.00    +0.120 A 
ATOM     34  C   UNL     1      12.057   2.751  -8.223  0.00  0.00    +0.049 A 
ATOM     35  C   UNL     1      11.557   1.751  -7.411  0.00  0.00    +0.049 A 
BRANCH  33  36
ATOM     36  O   UNL     1      12.026   3.920 -10.295  0.00  0.00    -0.495 OA
ATOM     37  C   UNL     1      13.075   4.729  -9.759  0.00  0.00    +0.277 C 
ENDBRANCH  33  36
ENDBRANCH  29  30
ENDBRANCH  28  29
ENDBRANCH  11  28
TORSDOF 14
