REMARK  Name = ZINC14551280
REMARK  3 active torsions:
REMARK  status: ('A' for Active; 'I' for Inactive)
REMARK    1  A    between atoms: C_4  and  C_7
REMARK    2  A    between atoms: C_18  and  S_23
REMARK    3  A    between atoms: S_23  and  N_26
REMARK                            x       y       z     vdW  Elec       q    Type
REMARK                         _______ _______ _______ _____ _____    ______ ____
ROOT
ATOM      1  C   UNL     1       3.529  -4.683  -6.232  0.00  0.00    +0.105 C 
ATOM      2  C   UNL     1       2.138  -4.190  -5.882  0.00  0.00    +0.029 C 
ATOM      3  C   UNL     1       1.914  -2.748  -6.396  0.00  0.00    +0.033 C 
ATOM      4  C   UNL     1       0.891  -2.195  -5.420  0.00  0.00    -0.030 C 
ATOM      5  C   UNL     1       0.913  -2.873  -4.300  0.00  0.00    -0.023 C 
ATOM      6  C   UNL     1       1.961  -3.976  -4.367  0.00  0.00    +0.049 C 
ATOM      7  C   UNL     1       3.211  -3.451  -3.713  0.00  0.00    -0.018 A 
ATOM      8  C   UNL     1       3.136  -3.062  -2.382  0.00  0.00    +0.034 A 
ATOM      9  C   UNL     1       4.248  -2.563  -1.735  0.00  0.00    +0.109 A 
ATOM     10  C   UNL     1       5.454  -2.455  -2.404  0.00  0.00    +0.030 A 
ATOM     11  C   UNL     1       5.541  -2.847  -3.725  0.00  0.00    +0.025 A 
ATOM     12  C   UNL     1       4.419  -3.345  -4.377  0.00  0.00    +0.031 A 
ATOM     13  N   UNL     1       4.529  -3.741  -5.715  0.00  0.00    -0.336 N 
ATOM     14  H   UNL     1       5.241  -3.405  -6.281  0.00  0.00    +0.147 HD
ENDROOT
BRANCH   1  18
ATOM     15  C   UNL     1       4.159  -8.528  -4.481  0.00  0.00    +0.000 A 
ATOM     16  C   UNL     1       3.820  -8.424  -5.817  0.00  0.00    +0.000 A 
ATOM     17  C   UNL     1       3.616  -7.180  -6.384  0.00  0.00    +0.005 A 
ATOM     18  C   UNL     1       3.751  -6.040  -5.614  0.00  0.00    -0.027 A 
ATOM     19  C   UNL     1       4.095  -6.144  -4.279  0.00  0.00    +0.005 A 
ATOM     20  C   UNL     1       4.294  -7.388  -3.712  0.00  0.00    +0.000 A 
ENDBRANCH   1  18
BRANCH   9  21
ATOM     21  S   UNL     1       4.133  -2.068  -0.048  0.00  0.00    +0.075 S 
ATOM     22  O   UNL     1       5.445  -2.151   0.490  0.00  0.00    -0.150 OA
ATOM     23  O   UNL     1       3.034  -2.776   0.509  0.00  0.00    -0.150 OA
BRANCH  21  24
ATOM     24  N   UNL     1       3.717  -0.465  -0.036  0.00  0.00    -0.202 N 
ATOM     25  C   UNL     1       4.668   0.650  -0.040  0.00  0.00    +0.136 C 
ATOM     26  C   UNL     1       3.802   1.919  -0.025  0.00  0.00    +0.058 C 
ATOM     27  C   UNL     1       2.379   1.408  -0.013  0.00  0.00    -0.023 A 
ATOM     28  C   UNL     1       2.409   0.022  -0.021  0.00  0.00    +0.054 A 
ATOM     29  C   UNL     1       1.203  -0.682  -0.013  0.00  0.00    +0.025 A 
ATOM     30  C   UNL     1       0.002  -0.004   0.002  0.00  0.00    +0.002 A 
ATOM     31  C   UNL     1      -0.017   1.378   0.010  0.00  0.00    +0.000 A 
ATOM     32  C   UNL     1       1.173   2.083   0.002  0.00  0.00    +0.005 A 
ENDBRANCH  21  24
ENDBRANCH   9  21
TORSDOF 3
