REMARK  Name = ZINC02111750
REMARK  7 active torsions:
REMARK  status: ('A' for Active; 'I' for Inactive)
REMARK    1  A    between atoms: C_1  and  C_2
REMARK    2  A    between atoms: C_6  and  N_8
REMARK    3  A    between atoms: C_9  and  O_33
REMARK    4  A    between atoms: C_10  and  C_17
REMARK    5  A    between atoms: C_24  and  O_25
REMARK    6  A    between atoms: O_25  and  C_26
REMARK    7  A    between atoms: C_32  and  N_55
REMARK                            x       y       z     vdW  Elec       q    Type
REMARK                         _______ _______ _______ _____ _____    ______ ____
ROOT
ATOM      1  N   UNL     1       2.378   4.165  -0.112  0.00  0.00    -0.260 N 
ATOM      2  C   UNL     1       3.582   3.505  -0.068  0.00  0.00    +0.206 A 
ATOM      3  C   UNL     1       4.717   4.200   0.226  0.00  0.00    +0.068 A 
ATOM      4  C   UNL     1       4.627   5.581   0.477  0.00  0.00    +0.258 A 
ATOM      5  O   UNL     1       5.629   6.223   0.741  0.00  0.00    -0.267 OA
ATOM      6  N   UNL     1       3.426   6.190   0.423  0.00  0.00    -0.302 N 
ATOM      7  H   UNL     1       3.361   7.142   0.596  0.00  0.00    +0.171 HD
ATOM      8  C   UNL     1       2.317   5.487   0.127  0.00  0.00    +0.168 A 
ATOM      9  S   UNL     1       0.805   6.288   0.059  0.00  0.00    -0.012 S 
ENDROOT
BRANCH   3  10
ATOM     10  C   UNL     1       6.050   3.498   0.281  0.00  0.00    +0.007 C 
ATOM     11  C   UNL     1       6.615   3.613   1.672  0.00  0.00    -0.008 A 
ATOM     12  C   UNL     1       7.947   3.889   1.896  0.00  0.00    -0.040 A 
ATOM     13  C   UNL     1       8.427   3.982   3.193  0.00  0.00    +0.053 A 
ATOM     14  C   UNL     1       7.578   3.802   4.272  0.00  0.00    +0.170 A 
ATOM     15  C   UNL     1       6.233   3.525   4.051  0.00  0.00    +0.208 A 
ATOM     16  C   UNL     1       5.756   3.432   2.751  0.00  0.00    +0.167 A 
ATOM     17  O   UNL     1       5.610   3.392   5.259  0.00  0.00    -0.449 OA
ATOM     18  C   UNL     1       6.500   3.992   6.219  0.00  0.00    +0.467 C 
ATOM     19  O   UNL     1       7.800   3.842   5.619  0.00  0.00    -0.452 OA
ATOM     20  C   UNL     1       8.914   4.097   0.757  0.00  0.00    +0.017 C 
ATOM     21  C   UNL     1       8.314   3.557  -0.541  0.00  0.00    -0.073 C 
ATOM     22  C   UNL     1       6.465   3.919  -2.065  0.00  0.00    -0.095 C 
ATOM     23  N   UNL     1       6.962   4.131  -0.687  0.00  0.00    +0.386 N 
ATOM     24  H   UNL     1       7.003   5.140  -0.498  0.00  0.00    -0.081 HD
BRANCH  16  25
ATOM     25  O   UNL     1       4.441   3.161   2.531  0.00  0.00    -0.491 OA
ATOM     26  C   UNL     1       4.063   1.784   2.472  0.00  0.00    +0.277 C 
ENDBRANCH  16  25
ENDBRANCH   3  10
BRANCH   1  32
ATOM     27  C   UNL     1      -0.571   2.083  -3.452  0.00  0.00    +0.044 C 
ATOM     28  C   UNL     1      -0.246   2.436  -2.023  0.00  0.00    -0.048 A 
ATOM     29  C   UNL     1      -1.103   2.055  -1.006  0.00  0.00    +0.003 A 
ATOM     30  C   UNL     1      -0.812   2.382   0.306  0.00  0.00    +0.002 A 
ATOM     31  C   UNL     1       0.342   3.079   0.606  0.00  0.00    +0.026 A 
ATOM     32  C   UNL     1       1.207   3.457  -0.412  0.00  0.00    +0.052 A 
ATOM     33  C   UNL     1       0.909   3.133  -1.730  0.00  0.00    +0.029 A 
ENDBRANCH   1  32
BRANCH   2  34
ATOM     34  O   UNL     1       3.640   2.178  -0.313  0.00  0.00    -0.493 OA
ATOM     35  H   UNL     1       2.792   1.788  -0.567  0.00  0.00    +0.294 HD
ENDBRANCH   2  34
TORSDOF 4
