REMARK  Name = ZINC63376053
REMARK  8 active torsions:
REMARK  status: ('A' for Active; 'I' for Inactive)
REMARK    1  A    between atoms: C_1  and  C_2
REMARK    2  A    between atoms: C_7  and  O_30
REMARK    3  A    between atoms: C_13  and  C_15
REMARK    4  A    between atoms: C_15  and  C_16
REMARK    5  A    between atoms: N_18  and  C_19
REMARK    6  A    between atoms: C_19  and  C_20
REMARK    7  A    between atoms: C_20  and  C_21
REMARK    8  A    between atoms: O_30  and  C_31
REMARK                            x       y       z     vdW  Elec       q    Type
REMARK                         _______ _______ _______ _____ _____    ______ ____
ROOT
ATOM      1  C   UNL     1       2.021   0.299   1.454  0.00  0.00    +0.111 C 
ENDROOT
BRANCH   1  13
ATOM      2  C   UNL     1      -0.019   1.526   0.010  0.00  0.00    +0.013 C 
ATOM      3  C   UNL     1       0.002  -0.004   0.002  0.00  0.00    +0.034 C 
ATOM      4  C   UNL     1       0.705  -0.489  -1.241  0.00  0.00    +0.000 A 
ATOM      5  C   UNL     1       0.474   0.182  -2.433  0.00  0.00    +0.031 A 
ATOM      6  C   UNL     1       1.090  -0.231  -3.598  0.00  0.00    +0.083 A 
ATOM      7  C   UNL     1       1.946  -1.324  -3.580  0.00  0.00    +0.142 A 
ATOM      8  C   UNL     1       2.180  -1.994  -2.391  0.00  0.00    +0.093 A 
ATOM      9  C   UNL     1       1.562  -1.574  -1.218  0.00  0.00    +0.139 A 
ATOM     10  O   UNL     1       1.836  -2.249  -0.068  0.00  0.00    -0.425 OA
ATOM     11  C   UNL     1       1.083  -1.967   1.014  0.00  0.00    +0.316 C 
ATOM     12  O   UNL     1       0.702  -2.836   1.762  0.00  0.00    -0.250 OA
ATOM     13  C   UNL     1       0.740  -0.510   1.245  0.00  0.00    +0.114 C 
ATOM     14 CL   UNL     1       0.793   0.617  -5.084  0.00  0.00    -0.080 Cl
BRANCH   7  15
ATOM     15  O   UNL     1       2.550  -1.736  -4.726  0.00  0.00    -0.494 OA
ATOM     16  C   UNL     1       3.418  -2.867  -4.631  0.00  0.00    +0.277 C 
ENDBRANCH   7  15
ENDBRANCH   1  13
BRANCH   1  17
ATOM     17  C   UNL     1       2.676  -0.121   2.744  0.00  0.00    +0.214 C 
ATOM     18  O   UNL     1       2.169  -0.983   3.430  0.00  0.00    -0.276 OA
ATOM     19  N   UNL     1       3.827   0.461   3.137  0.00  0.00    -0.315 N 
ATOM     20  H   UNL     1       4.233   1.151   2.589  0.00  0.00    +0.149 HD
BRANCH  19  21
ATOM     21  C   UNL     1       4.464   0.052   4.391  0.00  0.00    +0.108 C 
BRANCH  21  22
ATOM     22  C   UNL     1       5.746   0.862   4.600  0.00  0.00    +0.052 C 
BRANCH  22  23
ATOM     23  C   UNL     1       6.401   0.442   5.890  0.00  0.00    -0.040 C 
ATOM     24  C   UNL     1       7.388  -0.470   6.041  0.00  0.00    -0.001 A 
ATOM     25  C   UNL     1       8.119  -1.313   5.086  0.00  0.00    +0.010 A 
ATOM     26  C   UNL     1       9.076  -2.149   5.548  0.00  0.00    +0.001 A 
ATOM     27  C   UNL     1       9.387  -2.232   6.912  0.00  0.00    +0.002 A 
ATOM     28  C   UNL     1       8.760  -1.490   7.849  0.00  0.00    +0.026 A 
ATOM     29  C   UNL     1       7.736  -0.576   7.476  0.00  0.00    +0.043 A 
ATOM     30  N   UNL     1       6.993   0.239   8.185  0.00  0.00    -0.380 N 
ATOM     31  C   UNL     1       6.092   0.959   7.277  0.00  0.00    +0.144 C 
ATOM     32  H   UNL     1       7.034   0.350   9.147  0.00  0.00    +0.160 HD
ENDBRANCH  22  23
ENDBRANCH  21  22
ENDBRANCH  19  21
ENDBRANCH   1  17
TORSDOF 6
