REMARK  Name = ZINC32529548
REMARK  11 active torsions:
REMARK  status: ('A' for Active; 'I' for Inactive)
REMARK    1  A    between atoms: C_1  and  C_2
REMARK    2  A    between atoms: C_4  and  C_30
REMARK    3  A    between atoms: C_8  and  C_29
REMARK    4  A    between atoms: C_10  and  S_12
REMARK    5  A    between atoms: S_12  and  C_13
REMARK    6  A    between atoms: C_13  and  C_15
REMARK    7  A    between atoms: C_13  and  C_16
REMARK    8  A    between atoms: N_18  and  C_19
REMARK    9  A    between atoms: C_20  and  C_26
REMARK   10  A    between atoms: C_21  and  C_25
REMARK   11  A    between atoms: C_22  and  C_24
REMARK                            x       y       z     vdW  Elec       q    Type
REMARK                         _______ _______ _______ _____ _____    ______ ____
ROOT
ATOM      1  C   UNL     1      -2.482   0.853   0.018  0.00  0.00    +0.136 C 
ATOM      2  C   UNL     1      -2.849   0.476   1.455  0.00  0.00    +0.029 C 
ENDROOT
BRANCH   1   3
ATOM      3  C   UNL     1      -1.187   1.624   0.017  0.00  0.00    +0.231 C 
ATOM      4  O   UNL     1      -1.204   2.836   0.023  0.00  0.00    -0.274 OA
ATOM      5  N   UNL     1      -0.011   0.966   0.007  0.00  0.00    -0.278 N 
ATOM      6  H   UNL     1       0.004  -0.134   0.006  0.00  0.00    +0.155 HD
BRANCH   5   7
ATOM      7  C   UNL     1       1.180   1.675  -0.000  0.00  0.00    +0.084 A 
ATOM      8  C   UNL     1       2.479   1.181  -0.015  0.00  0.00    +0.068 A 
ATOM      9  C   UNL     1       3.544   2.156  -0.020  0.00  0.00    -0.027 A 
ATOM     10  C   UNL     1       3.190   3.453  -0.010  0.00  0.00    -0.008 A 
ATOM     11  S   UNL     1       1.410   3.392  -0.001  0.00  0.00    -0.078 S 
ATOM     12  C   UNL     1       4.083   4.667  -0.012  0.00  0.00    +0.052 C 
ATOM     13  C   UNL     1       4.992   1.737  -0.037  0.00  0.00    +0.045 C 
BRANCH   8  14
ATOM     14  C   UNL     1       2.754  -0.259  -0.025  0.00  0.00    +0.244 C 
ATOM     15  O   UNL     1       2.859  -0.851  -1.083  0.00  0.00    -0.270 OA
ATOM     16  N   UNL     1       2.892  -0.926   1.137  0.00  0.00    -0.325 N 
ATOM     17  H   UNL     1       3.098  -2.007   1.130  0.00  0.00    +0.145 HD
ATOM     18  H   UNL     1       2.797  -0.391   2.094  0.00  0.00    +0.145 HD
ENDBRANCH   8  14
ENDBRANCH   5   7
ENDBRANCH   1   3
BRANCH   1  19
ATOM     19  S   UNL     1      -3.795   1.877  -0.691  0.00  0.00    -0.093 S 
BRANCH  19  29
ATOM     20  C   UNL     1      -9.017  -4.342  -0.241  0.00  0.00    +0.044 C 
ATOM     21  C   UNL     1      -7.923  -3.306  -0.250  0.00  0.00    -0.050 A 
ATOM     22  C   UNL     1      -6.657  -3.639   0.226  0.00  0.00    +0.008 A 
ATOM     23  C   UNL     1      -5.647  -2.725   0.232  0.00  0.00    -0.024 A 
ATOM     24  C   UNL     1      -5.879  -1.425  -0.249  0.00  0.00    +0.075 A 
ATOM     25  C   UNL     1      -7.168  -1.089  -0.733  0.00  0.00    +0.004 A 
ATOM     26  C   UNL     1      -8.185  -2.056  -0.724  0.00  0.00    +0.013 A 
ATOM     27  C   UNL     1      -7.402   0.214  -1.215  0.00  0.00    -0.039 A 
ATOM     28  C   UNL     1      -6.372   1.106  -1.192  0.00  0.00    +0.038 A 
ATOM     29  C   UNL     1      -5.117   0.712  -0.707  0.00  0.00    +0.099 A 
ATOM     30  N   UNL     1      -4.905  -0.509  -0.256  0.00  0.00    -0.240 NA
ATOM     31  C   UNL     1      -8.758   0.613  -1.738  0.00  0.00    +0.044 C 
ATOM     32  C   UNL     1      -4.285  -3.107   0.750  0.00  0.00    +0.046 C 
ENDBRANCH  19  29
ENDBRANCH   1  19
TORSDOF 5
