REMARK  Name = ZINC36593210
REMARK  10 active torsions:
REMARK  status: ('A' for Active; 'I' for Inactive)
REMARK    1  A    between atoms: C_1  and  C_2
REMARK    2  A    between atoms: C_2  and  C_3
REMARK    3  A    between atoms: C_2  and  C_4
REMARK    4  A    between atoms: C_2  and  N_5
REMARK    5  A    between atoms: N_5  and  C_6
REMARK    6  A    between atoms: C_6  and  C_8
REMARK    7  A    between atoms: C_6  and  C_15
REMARK    8  A    between atoms: C_13  and  O_14
REMARK    9  A    between atoms: N_17  and  C_18
REMARK   10  A    between atoms: C_24  and  C_26
REMARK                            x       y       z     vdW  Elec       q    Type
REMARK                         _______ _______ _______ _____ _____    ______ ____
ROOT
ATOM      1  C   UNL     1       1.618  -1.296  -2.337  0.00  0.00    +0.196 C 
ENDROOT
BRANCH   1   2
ATOM      2  C   UNL     1       1.976  -2.760  -2.291  0.00  0.00    +0.023 A 
ATOM      3  C   UNL     1       3.016  -3.192  -1.490  0.00  0.00    +0.009 A 
ATOM      4  C   UNL     1       3.345  -4.534  -1.447  0.00  0.00    +0.001 A 
ATOM      5  C   UNL     1       2.634  -5.447  -2.204  0.00  0.00    +0.004 A 
ATOM      6  C   UNL     1       1.593  -5.020  -3.005  0.00  0.00    +0.046 A 
ATOM      7  C   UNL     1       1.258  -3.674  -3.046  0.00  0.00    +0.122 A 
BRANCH   7   8
ATOM      8  O   UNL     1       0.230  -3.252  -3.829  0.00  0.00    -0.506 OA
ATOM      9  H   UNL     1       0.478  -3.088  -4.749  0.00  0.00    +0.292 HD
ENDBRANCH   7   8
ENDBRANCH   1   2
BRANCH   1  10
ATOM     10  C   UNL     1       2.736  -0.486  -1.732  0.00  0.00    +0.238 C 
ATOM     11  O   UNL     1       2.539   0.164  -0.728  0.00  0.00    -0.273 OA
ATOM     12  N   UNL     1       3.955  -0.485  -2.308  0.00  0.00    -0.311 N 
ATOM     13  H   UNL     1       4.094  -0.945  -3.150  0.00  0.00    +0.149 HD
BRANCH  12  14
ATOM     14  C   UNL     1       5.069   0.211  -1.660  0.00  0.00    +0.073 C 
ATOM     15  C   UNL     1       5.044   1.690  -2.053  0.00  0.00    +0.022 C 
ATOM     16  C   UNL     1       6.208   2.417  -1.376  0.00  0.00    +0.002 C 
ATOM     17  C   UNL     1       7.530   1.793  -1.827  0.00  0.00    +0.000 C 
ATOM     18  C   UNL     1       7.556   0.314  -1.434  0.00  0.00    +0.002 C 
ATOM     19  C   UNL     1       6.392  -0.413  -2.110  0.00  0.00    +0.022 C 
ENDBRANCH  12  14
ENDBRANCH   1  10
BRANCH   1  20
ATOM     20  N   UNL     1       0.386  -1.070  -1.579  0.00  0.00    -0.277 N 
ATOM     21  C   UNL     1      -0.565  -0.248  -2.067  0.00  0.00    +0.248 C 
ATOM     22  O   UNL     1      -1.523   0.047  -1.380  0.00  0.00    -0.270 OA
BRANCH  21  23
ATOM     23  C   UNL     1      -0.441   0.294  -3.435  0.00  0.00    +0.037 A 
ATOM     24  C   UNL     1       0.752   0.893  -3.846  0.00  0.00    +0.016 A 
ATOM     25  C   UNL     1       0.862   1.397  -5.124  0.00  0.00    +0.039 A 
ATOM     26  C   UNL     1      -0.209   1.311  -6.001  0.00  0.00    +0.123 A 
ATOM     27  C   UNL     1      -1.395   0.718  -5.598  0.00  0.00    +0.039 A 
ATOM     28  C   UNL     1      -1.514   0.205  -4.324  0.00  0.00    +0.016 A 
ATOM     29  F   UNL     1      -0.096   1.808  -7.252  0.00  0.00    -0.205 F 
ENDBRANCH  21  23
BRANCH  20  31
ATOM     30  C   UNL     1       1.542  -2.142   0.291  0.00  0.00    +0.031 C 
ATOM     31  C   UNL     1       0.185  -1.738  -0.290  0.00  0.00    +0.030 C 
ATOM     32  C   UNL     1      -0.675  -2.987  -0.491  0.00  0.00    +0.031 C 
ATOM     33  C   UNL     1      -0.519  -0.783   0.675  0.00  0.00    +0.031 C 
ENDBRANCH  20  31
ENDBRANCH   1  20
TORSDOF 7
