REMARK  Name = ZINC66946778
REMARK  6 active torsions:
REMARK  status: ('A' for Active; 'I' for Inactive)
REMARK    1  A    between atoms: C_1  and  N_2
REMARK    2  A    between atoms: N_2  and  C_3
REMARK    3  A    between atoms: N_2  and  C_4
REMARK    4  A    between atoms: C_4  and  C_5
REMARK    5  A    between atoms: C_12  and  C_14
REMARK    6  A    between atoms: N_17  and  C_19
REMARK                            x       y       z     vdW  Elec       q    Type
REMARK                         _______ _______ _______ _____ _____    ______ ____
ROOT
ATOM      1  C   UNL     1       1.014  -2.500   2.812  0.00  0.00    +0.151 A 
ATOM      2  C   UNL     1       1.618  -1.825   3.898  0.00  0.00    +0.006 A 
ATOM      3  C   UNL     1       2.161  -2.788   4.674  0.00  0.00    +0.049 A 
ATOM      4  N   UNL     1       1.891  -3.980   4.075  0.00  0.00    -0.236 N 
ATOM      5  N   UNL     1       1.218  -3.790   2.997  0.00  0.00    -0.161 NA
ATOM      6  C   UNL     1       2.839  -2.170   5.875  0.00  0.00    +0.056 C 
ATOM      7  C   UNL     1       3.012  -0.678   5.514  0.00  0.00    +0.011 C 
ATOM      8  C   UNL     1       1.873  -0.461   4.492  0.00  0.00    +0.040 C 
ENDROOT
BRANCH   1  15
ATOM      9  C   UNL     1      -1.162  -2.051  -0.279  0.00  0.00    +0.060 C 
ATOM     10  C   UNL     1      -2.552  -2.695  -0.252  0.00  0.00    +0.021 C 
ATOM     11  C   UNL     1      -2.408  -4.215  -0.355  0.00  0.00    +0.003 C 
ATOM     12  C   UNL     1      -1.611  -4.737   0.842  0.00  0.00    +0.019 C 
ATOM     13  C   UNL     1      -0.210  -4.117   0.827  0.00  0.00    +0.108 C 
ATOM     14  N   UNL     1      -0.338  -2.653   0.778  0.00  0.00    -0.295 N 
ATOM     15  C   UNL     1       0.285  -1.878   1.688  0.00  0.00    +0.267 C 
ATOM     16  O   UNL     1       0.248  -0.668   1.583  0.00  0.00    -0.268 OA
BRANCH   9  17
ATOM     17  C   UNL     1      -1.288  -0.546  -0.036  0.00  0.00    -0.057 C 
BRANCH  17  19
ATOM     18  C   UNL     1      -2.381   1.464  -0.758  0.00  0.00    -0.097 C 
ATOM     19  N   UNL     1      -2.161   0.043  -1.060  0.00  0.00    +0.377 N 
ATOM     20  C   UNL     1      -1.525  -0.084  -2.379  0.00  0.00    -0.097 C 
ATOM     21  H   UNL     1      -3.047  -0.440  -1.066  0.00  0.00    -0.083 HD
ENDBRANCH  17  19
ENDBRANCH   9  17
ENDBRANCH   1  15
BRANCH   4  22
ATOM     22  C   UNL     1       2.284  -5.232   4.566  0.00  0.00    +0.069 A 
ATOM     23  C   UNL     1       3.497  -5.370   5.228  0.00  0.00    +0.031 A 
ATOM     24  C   UNL     1       3.884  -6.605   5.711  0.00  0.00    +0.043 A 
ATOM     25  C   UNL     1       3.063  -7.706   5.535  0.00  0.00    +0.159 A 
ATOM     26  C   UNL     1       1.851  -7.572   4.875  0.00  0.00    +0.160 A 
ATOM     27  C   UNL     1       1.458  -6.336   4.395  0.00  0.00    +0.069 A 
ATOM     28  F   UNL     1       1.052  -8.648   4.704  0.00  0.00    -0.202 F 
ATOM     29  F   UNL     1       3.444  -8.913   6.008  0.00  0.00    -0.202 F 
ENDBRANCH   4  22
TORSDOF 4
