REMARK  Name = ZINC13064607
REMARK  11 active torsions:
REMARK  status: ('A' for Active; 'I' for Inactive)
REMARK    1  A    between atoms: C_1  and  C_2
REMARK    2  A    between atoms: C_2  and  C_3
REMARK    3  A    between atoms: C_3  and  C_5
REMARK    4  A    between atoms: C_3  and  N_73
REMARK    5  A    between atoms: N_9  and  C_10
REMARK    6  A    between atoms: C_16  and  C_17
REMARK    7  A    between atoms: C_16  and  N_73
REMARK    8  A    between atoms: C_21  and  C_30
REMARK    9  A    between atoms: C_22  and  C_29
REMARK   10  A    between atoms: C_31  and  C_32
REMARK   11  A    between atoms: C_31  and  N_73
REMARK                            x       y       z     vdW  Elec       q    Type
REMARK                         _______ _______ _______ _____ _____    ______ ____
ROOT
ATOM      1  N   UNL     1       3.485  -1.014   1.310  0.00  0.00    +0.391 N 
ATOM      2  H   UNL     1       3.416  -0.713   2.289  0.00  0.00    -0.080 HD
ENDROOT
BRANCH   1   3
ATOM      3  C   UNL     1       2.414  -0.358   0.530  0.00  0.00    +0.003 C 
BRANCH   3   4
ATOM      4  C   UNL     1       2.396  -0.879  -0.884  0.00  0.00    +0.138 A 
ATOM      5  N   UNL     1       2.398  -2.136  -1.255  0.00  0.00    -0.115 NA
ATOM      6  N   UNL     1       2.384  -2.171  -2.543  0.00  0.00    -0.023 NA
ATOM      7  N   UNL     1       2.368  -0.969  -3.003  0.00  0.00    -0.044 NA
ATOM      8  N   UNL     1       2.371  -0.144  -2.011  0.00  0.00    -0.228 N 
BRANCH   8   9
ATOM      9  C   UNL     1       2.357   1.319  -2.095  0.00  0.00    +0.111 C 
ATOM     10  C   UNL     1       3.594   1.797  -2.859  0.00  0.00    +0.027 C 
ATOM     11  C   UNL     1       3.579   3.325  -2.947  0.00  0.00    +0.002 C 
ATOM     12  C   UNL     1       2.317   3.781  -3.683  0.00  0.00    +0.000 C 
ATOM     13  C   UNL     1       1.081   3.303  -2.919  0.00  0.00    +0.002 C 
ATOM     14  C   UNL     1       1.095   1.775  -2.831  0.00  0.00    +0.027 C 
ENDBRANCH   8   9
ENDBRANCH   3   4
BRANCH   3  16
ATOM     15  C   UNL     1       1.047  -0.024   2.594  0.00  0.00    +0.002 C 
ATOM     16  C   UNL     1       1.068  -0.648   1.198  0.00  0.00    -0.011 C 
ENDBRANCH   3  16
ENDBRANCH   1   3
BRANCH   1  17
ATOM     17  C   UNL     1       3.328  -2.482   1.248  0.00  0.00    -0.036 C 
BRANCH  17  18
ATOM     18  C   UNL     1       4.178  -3.106   2.325  0.00  0.00    +0.001 A 
ATOM     19  C   UNL     1       3.633  -3.395   3.532  0.00  0.00    +0.017 A 
ATOM     20  C   UNL     1       4.484  -4.006   4.555  0.00  0.00    -0.001 A 
ATOM     21  C   UNL     1       3.978  -4.332   5.817  0.00  0.00    +0.013 A 
ATOM     22  C   UNL     1       4.799  -4.897   6.751  0.00  0.00    -0.047 A 
ATOM     23  C   UNL     1       6.132  -5.150   6.459  0.00  0.00    -0.046 A 
ATOM     24  C   UNL     1       6.653  -4.836   5.223  0.00  0.00    +0.030 A 
ATOM     25  C   UNL     1       5.836  -4.261   4.255  0.00  0.00    +0.049 A 
ATOM     26  N   UNL     1       6.330  -3.938   3.009  0.00  0.00    -0.322 N 
ATOM     27  H   UNL     1       7.261  -4.114   2.804  0.00  0.00    +0.169 HD
ATOM     28  C   UNL     1       5.539  -3.382   2.075  0.00  0.00    +0.251 A 
ATOM     29  O   UNL     1       6.010  -3.110   0.984  0.00  0.00    -0.268 OA
ATOM     30  C   UNL     1       7.019  -5.774   7.505  0.00  0.00    +0.044 C 
ATOM     31  C   UNL     1       4.253  -5.249   8.111  0.00  0.00    +0.044 C 
ENDBRANCH  17  18
ENDBRANCH   1  17
BRANCH   1  32
ATOM     32  C   UNL     1       4.808  -0.624   0.780  0.00  0.00    -0.045 C 
BRANCH  32  33
ATOM     33  C   UNL     1       5.011   0.875   1.012  0.00  0.00    +0.102 C 
ATOM     34  C   UNL     1       6.385   1.323   0.465  0.00  0.00    +0.032 C 
ATOM     35  C   UNL     1       6.871   2.374   1.487  0.00  0.00    +0.030 C 
ATOM     36  C   UNL     1       5.734   2.437   2.531  0.00  0.00    +0.160 C 
ATOM     37  O   UNL     1       5.066   1.161   2.427  0.00  0.00    -0.378 OA
ENDBRANCH  32  33
ENDBRANCH   1  32
TORSDOF 8
