REMARK  Name = ZINC08581287
REMARK  0 active torsions:
REMARK  status: ('A' for Active; 'I' for Inactive)
REMARK                            x       y       z     vdW  Elec       q    Type
REMARK                         _______ _______ _______ _____ _____    ______ ____
ROOT
ATOM      1  C   UNL     1      -0.017   1.377   0.010  0.00  0.00    +0.151 A 
ATOM      2  C   UNL     1      -1.259   2.047   0.018  0.00  0.00    +0.189 A 
ATOM      3  N   UNL     1      -2.387   1.330   0.019  0.00  0.00    -0.172 NA
ATOM      4  C   UNL     1      -2.350   0.005   0.011  0.00  0.00    +0.351 A 
ATOM      5  N   UNL     1      -1.188  -0.673   0.003  0.00  0.00    -0.272 N 
ATOM      6  C   UNL     1       0.002  -0.004   0.002  0.00  0.00    +0.280 A 
ATOM      7  O   UNL     1       1.172  -0.678  -0.013  0.00  0.00    -0.265 OA
ATOM      8  O   UNL     1      -3.400  -0.618   0.013  0.00  0.00    -0.245 OA
ATOM      9  N   UNL     1      -0.989   3.363   0.024  0.00  0.00    -0.202 NA
ATOM     10  C   UNL     1       0.304   3.555   0.020  0.00  0.00    +0.178 A 
ATOM     11  N   UNL     1       0.952   2.370   0.006  0.00  0.00    -0.327 N 
ATOM     12 BR   UNL     1       1.146   5.248   0.025  0.00  0.00    -0.008 Br
ATOM     13  H   UNL     1       1.913   2.239  -0.004  0.00  0.00    +0.168 HD
ATOM     14  H   UNL     1      -1.196  -1.643  -0.002  0.00  0.00    +0.174 HD
ENDROOT
TORSDOF 0
