REMARK  Name = ZINC43223156
REMARK  8 active torsions:
REMARK  status: ('A' for Active; 'I' for Inactive)
REMARK    1  A    between atoms: C_4  and  C_7
REMARK    2  A    between atoms: C_7  and  S_8
REMARK    3  A    between atoms: S_8  and  C_9
REMARK    4  A    between atoms: C_9  and  C_10
REMARK    5  A    between atoms: C_10  and  N_11
REMARK    6  A    between atoms: C_12  and  C_14
REMARK    7  A    between atoms: C_19  and  C_21
REMARK    8  A    between atoms: N_23  and  C_24
REMARK                            x       y       z     vdW  Elec       q    Type
REMARK                         _______ _______ _______ _____ _____    ______ ____
ROOT
ATOM      1  C   UNL     1       9.681  -4.043   3.622  0.00  0.00    +0.068 C 
ATOM      2  C   UNL     1      10.713  -3.146   2.907  0.00  0.00    -0.069 C 
ATOM      3  N   UNL     1      11.488  -2.515   4.007  0.00  0.00    +0.380 N 
ATOM      4  C   UNL     1      11.655  -3.603   5.005  0.00  0.00    -0.069 C 
ATOM      5  C   UNL     1      10.299  -4.346   5.003  0.00  0.00    +0.068 C 
ATOM      6  H   UNL     1      12.387  -2.203   3.671  0.00  0.00    -0.086 HD
ATOM      7  H   UNL     1      10.972  -1.746   4.406  0.00  0.00    -0.086 HD
ENDROOT
BRANCH   1   9
ATOM      8  N   UNL     1       7.680  -2.925   2.695  0.00  0.00    -0.314 N 
ATOM      9  C   UNL     1       8.374  -3.312   3.783  0.00  0.00    +0.215 C 
ATOM     10  O   UNL     1       7.946  -3.071   4.893  0.00  0.00    -0.276 OA
ATOM     11  H   UNL     1       8.022  -3.117   1.808  0.00  0.00    +0.149 HD
BRANCH   8  12
ATOM     12  C   UNL     1       6.408  -2.213   2.851  0.00  0.00    +0.115 C 
BRANCH  12  13
ATOM     13  C   UNL     1       5.831  -1.891   1.472  0.00  0.00    +0.088 C 
BRANCH  13  14
ATOM     14  S   UNL     1       4.257  -1.011   1.666  0.00  0.00    -0.155 S 
BRANCH  14  15
ATOM     15  C   UNL     1       3.711  -0.707  -0.038  0.00  0.00    +0.104 C 
BRANCH  15  19
ATOM     16  C   UNL     1      -0.017   1.378   0.010  0.00  0.00    +0.000 A 
ATOM     17  C   UNL     1       1.171   2.086   0.002  0.00  0.00    +0.000 A 
ATOM     18  C   UNL     1       2.377   1.411  -0.013  0.00  0.00    +0.004 A 
ATOM     19  C   UNL     1       2.396   0.029  -0.020  0.00  0.00    -0.038 A 
ATOM     20  C   UNL     1       1.208  -0.679  -0.012  0.00  0.00    +0.004 A 
ATOM     21  C   UNL     1       0.002  -0.004   0.002  0.00  0.00    +0.000 A 
ENDBRANCH  15  19
ENDBRANCH  14  15
ENDBRANCH  13  14
ENDBRANCH  12  13
ENDBRANCH   8  12
ENDBRANCH   1   9
BRANCH   5  22
ATOM     22  C   UNL     1      10.513  -5.829   5.166  0.00  0.00    +0.215 C 
ATOM     23  O   UNL     1      10.206  -6.588   4.272  0.00  0.00    -0.276 OA
ATOM     24  N   UNL     1      11.046  -6.312   6.306  0.00  0.00    -0.308 N 
ATOM     25  H   UNL     1      11.292  -5.704   7.022  0.00  0.00    +0.149 HD
BRANCH  24  26
ATOM     26  C   UNL     1      11.254  -7.753   6.465  0.00  0.00    +0.103 C 
ATOM     27  C   UNL     1      12.383  -7.992   7.467  0.00  0.00    +0.027 C 
ATOM     28  C   UNL     1      12.439  -9.491   7.784  0.00  0.00    +0.007 C 
ATOM     29  C   UNL     1      11.202  -9.857   8.601  0.00  0.00    +0.035 C 
ATOM     30  C   UNL     1       9.953  -9.358   7.924  0.00  0.00    -0.042 A 
ATOM     31  C   UNL     1       9.977  -8.389   6.947  0.00  0.00    -0.024 A 
ATOM     32  C   UNL     1       8.787  -7.969   6.367  0.00  0.00    +0.006 A 
ATOM     33  C   UNL     1       7.583  -8.517   6.761  0.00  0.00    +0.000 A 
ATOM     34  C   UNL     1       7.560  -9.492   7.740  0.00  0.00    +0.000 A 
ATOM     35  C   UNL     1       8.740  -9.910   8.317  0.00  0.00    +0.004 A 
ENDBRANCH  24  26
ENDBRANCH   5  22
TORSDOF 8
