REMARK  Name = ZINC40943065
REMARK  8 active torsions:
REMARK  status: ('A' for Active; 'I' for Inactive)
REMARK    1  A    between atoms: C_1  and  C_2
REMARK    2  A    between atoms: C_2  and  C_3
REMARK    3  A    between atoms: C_2  and  C_4
REMARK    4  A    between atoms: C_7  and  O_11
REMARK    5  A    between atoms: O_11  and  C_12
REMARK    6  A    between atoms: C_12  and  C_13
REMARK    7  A    between atoms: N_15  and  C_16
REMARK    8  A    between atoms: C_17  and  C_24
REMARK                            x       y       z     vdW  Elec       q    Type
REMARK                         _______ _______ _______ _____ _____    ______ ____
ROOT
ATOM      1  C   UNL     1       4.651  -2.056   5.985  0.00  0.00    +0.255 C 
ATOM      2  O   UNL     1       3.954  -2.756   6.688  0.00  0.00    -0.272 OA
ATOM      3  N   UNL     1       5.928  -1.807   6.338  0.00  0.00    -0.277 N 
ATOM      4  H   UNL     1       6.485  -1.246   5.776  0.00  0.00    +0.155 HD
ENDROOT
BRANCH   3   5
ATOM      5  C   UNL     1       6.444  -2.351   7.504  0.00  0.00    +0.084 A 
ATOM      6  C   UNL     1       7.717  -2.200   8.022  0.00  0.00    +0.068 A 
ATOM      7  C   UNL     1       8.014  -2.884   9.279  0.00  0.00    -0.023 A 
ATOM      8  C   UNL     1       6.982  -3.589   9.777  0.00  0.00    -0.004 A 
ATOM      9  S   UNL     1       5.665  -3.338   8.614  0.00  0.00    -0.077 S 
ATOM     10  C   UNL     1       7.342  -4.275  11.067  0.00  0.00    +0.043 C 
ATOM     11  C   UNL     1       8.886  -4.255  11.102  0.00  0.00    +0.010 C 
ATOM     12  C   UNL     1       9.206  -3.029  10.223  0.00  0.00    +0.037 C 
BRANCH   6  13
ATOM     13  C   UNL     1       8.728  -1.388   7.337  0.00  0.00    +0.244 C 
ATOM     14  O   UNL     1       8.829  -0.202   7.590  0.00  0.00    -0.270 OA
ATOM     15  N   UNL     1       9.545  -1.955   6.428  0.00  0.00    -0.325 N 
ATOM     16  H   UNL     1       9.465  -2.901   6.226  0.00  0.00    +0.145 HD
ATOM     17  H   UNL     1      10.214  -1.418   5.975  0.00  0.00    +0.145 HD
ENDBRANCH   6  13
ENDBRANCH   3   5
BRANCH   1  18
ATOM     18  C   UNL     1       4.090  -1.464   4.718  0.00  0.00    +0.325 C 
BRANCH  18  19
ATOM     19  O   UNL     1       2.728  -1.870   4.564  0.00  0.00    -0.482 OA
BRANCH  19  23
ATOM     20  C   UNL     1       0.731  -0.503   1.223  0.00  0.00    -0.044 A 
ATOM     21  C   UNL     1       2.050  -0.147   1.433  0.00  0.00    +0.007 A 
ATOM     22  C   UNL     1       2.721  -0.604   2.551  0.00  0.00    +0.047 A 
ATOM     23  C   UNL     1       2.070  -1.420   3.464  0.00  0.00    +0.135 A 
ATOM     24  C   UNL     1       0.746  -1.776   3.252  0.00  0.00    +0.060 A 
ATOM     25  C   UNL     1       0.077  -1.312   2.134  0.00  0.00    +0.022 A 
ATOM     26 BR   UNL     1      -0.146  -2.889   4.494  0.00  0.00    -0.047 Br
BRANCH  20  28
ATOM     27  C   UNL     1      -0.019   1.526   0.010  0.00  0.00    +0.012 C 
ATOM     28  C   UNL     1       0.002  -0.004   0.002  0.00  0.00    +0.013 C 
ATOM     29  C   UNL     1       0.718  -0.497  -1.257  0.00  0.00    +0.012 C 
ENDBRANCH  20  28
ENDBRANCH  19  23
ENDBRANCH  18  19
ENDBRANCH   1  18
TORSDOF 6
