REMARK  Name = ZINC39665960
REMARK  9 active torsions:
REMARK  status: ('A' for Active; 'I' for Inactive)
REMARK    1  A    between atoms: C_1  and  C_2
REMARK    2  A    between atoms: C_5  and  O_8
REMARK    3  A    between atoms: O_8  and  C_9
REMARK    4  A    between atoms: C_9  and  C_11
REMARK    5  A    between atoms: C_9  and  C_12
REMARK    6  A    between atoms: C_12  and  N_13
REMARK    7  A    between atoms: C_14  and  C_16
REMARK    8  A    between atoms: C_27  and  C_29
REMARK    9  A    between atoms: C_34  and  C_35
REMARK                            x       y       z     vdW  Elec       q    Type
REMARK                         _______ _______ _______ _____ _____    ______ ____
ROOT
ATOM      1  C   UNL     1       5.658  -6.220   1.211  0.00  0.00    +0.100 C 
ATOM      2  C   UNL     1       5.472  -5.445  -0.113  0.00  0.00    +0.121 C 
ATOM      3  N   UNL     1       6.482  -6.023  -1.030  0.00  0.00    -0.296 N 
ATOM      4  C   UNL     1       6.463  -7.475  -0.731  0.00  0.00    +0.115 C 
ATOM      5  C   UNL     1       6.308  -7.552   0.801  0.00  0.00    -0.004 C 
ATOM      6  C   UNL     1       5.403  -8.720   1.181  0.00  0.00    -0.010 C 
ATOM      7  C   UNL     1       6.096 -10.036   0.817  0.00  0.00    -0.082 C 
ATOM      8  N   UNL     1       7.376 -10.131   1.528  0.00  0.00    +0.379 N 
ATOM      9  C   UNL     1       8.274  -9.057   1.088  0.00  0.00    -0.082 C 
ATOM     10  C   UNL     1       7.674  -7.700   1.464  0.00  0.00    -0.010 C 
ATOM     11  C   UNL     1       7.246  -5.376  -1.932  0.00  0.00    +0.247 C 
ATOM     12  O   UNL     1       8.089  -5.984  -2.563  0.00  0.00    -0.270 OA
ATOM     13  H   UNL     1       7.214 -10.046   2.521  0.00  0.00    -0.086 HD
ATOM     14  H   UNL     1       7.801 -11.025   1.335  0.00  0.00    -0.086 HD
ENDROOT
BRANCH  11  15
ATOM     15  C   UNL     1       7.058  -3.926  -2.155  0.00  0.00    +0.049 A 
ATOM     16  C   UNL     1       5.772  -3.391  -2.243  0.00  0.00    +0.013 A 
ATOM     17  C   UNL     1       5.604  -2.038  -2.451  0.00  0.00    +0.001 A 
ATOM     18  C   UNL     1       6.707  -1.211  -2.572  0.00  0.00    +0.001 A 
ATOM     19  C   UNL     1       7.984  -1.735  -2.486  0.00  0.00    +0.013 A 
ATOM     20  C   UNL     1       8.166  -3.086  -2.273  0.00  0.00    +0.067 A 
BRANCH  20  21
ATOM     21  C   UNL     1       9.559  -3.654  -2.174  0.00  0.00    +0.418 C 
ATOM     22  F   UNL     1      10.494  -2.624  -2.322  0.00  0.00    -0.166 F 
ATOM     23  F   UNL     1       9.727  -4.261  -0.924  0.00  0.00    -0.166 F 
ATOM     24  F   UNL     1       9.748  -4.604  -3.183  0.00  0.00    -0.166 F 
ENDBRANCH  20  21
ENDBRANCH  11  15
BRANCH   1  26
ATOM     25  N   UNL     1       4.241  -6.576   3.207  0.00  0.00    -0.312 N 
ATOM     26  C   UNL     1       4.324  -6.466   1.866  0.00  0.00    +0.218 C 
ATOM     27  O   UNL     1       3.324  -6.565   1.187  0.00  0.00    -0.275 OA
ATOM     28  H   UNL     1       5.041  -6.497   3.750  0.00  0.00    +0.149 HD
BRANCH  25  29
ATOM     29  C   UNL     1       2.944  -6.816   3.844  0.00  0.00    +0.148 C 
BRANCH  29  30
ATOM     30  C   UNL     1       3.128  -6.899   5.361  0.00  0.00    +0.187 C 
ATOM     31  C   UNL     1       1.797  -7.273   6.016  0.00  0.00    +0.053 C 
BRANCH  30  32
ATOM     32  O   UNL     1       3.565  -5.633   5.858  0.00  0.00    -0.488 OA
BRANCH  32  37
ATOM     33  C   UNL     1       6.449  -5.643  10.696  0.00  0.00    +0.044 C 
ATOM     34  C   UNL     1       5.678  -5.640   9.402  0.00  0.00    -0.050 A 
ATOM     35  C   UNL     1       5.128  -6.815   8.923  0.00  0.00    +0.007 A 
ATOM     36  C   UNL     1       4.420  -6.816   7.737  0.00  0.00    +0.046 A 
ATOM     37  C   UNL     1       4.261  -5.635   7.026  0.00  0.00    +0.121 A 
ATOM     38  C   UNL     1       4.812  -4.457   7.508  0.00  0.00    +0.046 A 
ATOM     39  C   UNL     1       5.515  -4.461   8.697  0.00  0.00    +0.007 A 
ENDBRANCH  32  37
ENDBRANCH  30  32
ENDBRANCH  29  30
ENDBRANCH  25  29
ENDBRANCH   1  26
TORSDOF 7
