REMARK  Name = ZINC37222263
REMARK  6 active torsions:
REMARK  status: ('A' for Active; 'I' for Inactive)
REMARK    1  A    between atoms: C_1  and  C_2
REMARK    2  A    between atoms: C_2  and  C_4
REMARK    3  A    between atoms: C_2  and  N_21
REMARK    4  A    between atoms: N_9  and  S_12
REMARK    5  A    between atoms: S_12  and  C_15
REMARK    6  A    between atoms: C_25  and  C_28
REMARK                            x       y       z     vdW  Elec       q    Type
REMARK                         _______ _______ _______ _____ _____    ______ ____
ROOT
ATOM      1  C   UNL     1      -1.483  -0.519  -0.181  0.00  0.00    +0.202 C 
ATOM      2  O   UNL     1      -1.804  -1.167  -1.155  0.00  0.00    -0.277 OA
ATOM      3  N   UNL     1      -2.399  -0.219   0.761  0.00  0.00    -0.300 N 
ATOM      4  C   UNL     1      -2.005   0.478   1.993  0.00  0.00    +0.125 C 
ATOM      5  C   UNL     1      -2.860   1.743   2.136  0.00  0.00    +0.128 C 
ATOM      6  N   UNL     1      -4.271   1.379   1.949  0.00  0.00    -0.174 NA
ATOM      7  C   UNL     1      -4.666   0.682   0.717  0.00  0.00    +0.128 C 
ATOM      8  C   UNL     1      -3.812  -0.578   0.572  0.00  0.00    +0.125 C 
ENDROOT
BRANCH   6   9
ATOM      9  S   UNL     1      -5.397   1.747   3.106  0.00  0.00    +0.061 S 
ATOM     10  O   UNL     1      -6.469   0.830   2.936  0.00  0.00    -0.153 OA
ATOM     11  O   UNL     1      -4.691   1.875   4.333  0.00  0.00    -0.153 OA
BRANCH   9  12
ATOM     12  C   UNL     1      -6.035   3.345   2.723  0.00  0.00    +0.105 A 
ATOM     13  C   UNL     1      -5.427   4.473   3.240  0.00  0.00    +0.028 A 
ATOM     14  C   UNL     1      -5.927   5.727   2.939  0.00  0.00    +0.002 A 
ATOM     15  C   UNL     1      -7.035   5.851   2.122  0.00  0.00    +0.000 A 
ATOM     16  C   UNL     1      -7.642   4.722   1.605  0.00  0.00    +0.002 A 
ATOM     17  C   UNL     1      -7.140   3.469   1.902  0.00  0.00    +0.028 A 
ENDBRANCH   9  12
ENDBRANCH   6   9
BRANCH   1  19
ATOM     18  C   UNL     1       0.054   1.400  -0.505  0.00  0.00    -0.004 C 
ATOM     19  C   UNL     1      -0.060  -0.048  -0.025  0.00  0.00    +0.016 C 
BRANCH  19  20
ATOM     20  N   UNL     1       0.829  -0.902  -0.825  0.00  0.00    +0.388 N 
ATOM     21  C   UNL     1       0.800  -2.270  -0.293  0.00  0.00    -0.078 C 
ATOM     22  C   UNL     1       1.661  -3.180  -1.172  0.00  0.00    -0.018 C 
ATOM     23  C   UNL     1       3.102  -2.663  -1.177  0.00  0.00    +0.008 C 
ATOM     24  C   UNL     1       3.111  -1.210  -1.663  0.00  0.00    +0.077 C 
ATOM     25  C   UNL     1       2.197  -0.373  -0.766  0.00  0.00    -0.066 C 
ATOM     26  H   UNL     1       0.513  -0.909  -1.783  0.00  0.00    -0.081 HD
BRANCH  24  27
ATOM     27  C   UNL     1       4.536  -0.659  -1.598  0.00  0.00    +0.391 C 
ATOM     28  F   UNL     1       5.372  -1.428  -2.415  0.00  0.00    -0.171 F 
ATOM     29  F   UNL     1       4.543   0.668  -2.042  0.00  0.00    -0.171 F 
ATOM     30  F   UNL     1       4.997  -0.711  -0.278  0.00  0.00    -0.171 F 
ENDBRANCH  24  27
ENDBRANCH  19  20
ENDBRANCH   1  19
TORSDOF 5
