REMARK  Name = ZINC03252680
REMARK  5 active torsions:
REMARK  status: ('A' for Active; 'I' for Inactive)
REMARK    1  A    between atoms: C_3  and  C_6
REMARK    2  A    between atoms: C_9  and  C_24
REMARK    3  A    between atoms: C_12  and  C_14
REMARK    4  A    between atoms: C_14  and  O_15
REMARK    5  A    between atoms: O_15  and  C_16
REMARK                            x       y       z     vdW  Elec       q    Type
REMARK                         _______ _______ _______ _____ _____    ______ ____
ROOT
ATOM      1  C   UNL     1       3.599   0.625  -0.029  0.00  0.00    +0.187 C 
ATOM      2  C   UNL     1       4.132   0.287   1.345  0.00  0.00    +0.030 C 
ATOM      3  C   UNL     1       4.817  -0.848   1.238  0.00  0.00    +0.050 C 
ATOM      4  N   UNL     1       4.810  -1.325  -0.065  0.00  0.00    -0.261 N 
ATOM      5  N   UNL     1       4.078  -0.463  -0.897  0.00  0.00    -0.205 N 
ATOM      6  C   UNL     1       3.857  -0.603  -2.219  0.00  0.00    +0.270 C 
ATOM      7  O   UNL     1       3.200   0.225  -2.815  0.00  0.00    -0.270 OA
ATOM      8  H   UNL     1       5.250  -2.138  -0.360  0.00  0.00    +0.170 HD
ENDROOT
BRANCH   3   9
ATOM      9  C   UNL     1       5.501  -1.519   2.368  0.00  0.00    -0.003 A 
ATOM     10  C   UNL     1       5.447  -0.965   3.646  0.00  0.00    +0.011 A 
ATOM     11  C   UNL     1       6.086  -1.594   4.695  0.00  0.00    +0.020 A 
ATOM     12  C   UNL     1       6.779  -2.773   4.480  0.00  0.00    +0.041 A 
ATOM     13  C   UNL     1       6.835  -3.327   3.213  0.00  0.00    +0.020 A 
ATOM     14  C   UNL     1       6.196  -2.709   2.158  0.00  0.00    +0.011 A 
ATOM     15 CL   UNL     1       7.581  -3.558   5.804  0.00  0.00    -0.084 Cl
ENDBRANCH   3   9
BRANCH   1  18
ATOM     16  C   UNL     1      -0.016   1.341   0.009  0.00  0.00    +0.041 A 
ATOM     17  C   UNL     1       1.331   1.769  -0.001  0.00  0.00    +0.047 A 
ATOM     18  C   UNL     1       2.092   0.660  -0.014  0.00  0.00    +0.131 A 
ATOM     19  O   UNL     1       1.282  -0.411  -0.012  0.00  0.00    -0.466 OA
ATOM     20  C   UNL     1       0.002  -0.004   0.002  0.00  0.00    +0.195 A 
ENDBRANCH   1  18
BRANCH   6  21
ATOM     21  C   UNL     1       4.426  -1.787  -2.958  0.00  0.00    +0.326 C 
BRANCH  21  22
ATOM     22  O   UNL     1       4.057  -1.711  -4.336  0.00  0.00    -0.481 OA
BRANCH  22  23
ATOM     23  C   UNL     1       4.493  -2.710  -5.148  0.00  0.00    +0.141 A 
ATOM     24  C   UNL     1       5.256  -3.745  -4.627  0.00  0.00    +0.067 A 
ATOM     25  C   UNL     1       5.698  -4.760  -5.455  0.00  0.00    +0.045 A 
ATOM     26  C   UNL     1       5.380  -4.745  -6.801  0.00  0.00    +0.021 A 
ATOM     27  C   UNL     1       4.621  -3.714  -7.323  0.00  0.00    +0.025 A 
ATOM     28  C   UNL     1       4.172  -2.699  -6.498  0.00  0.00    +0.083 A 
ATOM     29 CL   UNL     1       3.212  -1.409  -7.152  0.00  0.00    -0.080 Cl
ATOM     30 CL   UNL     1       6.653  -6.056  -4.804  0.00  0.00    -0.083 Cl
ENDBRANCH  22  23
ENDBRANCH  21  22
ENDBRANCH   6  21
TORSDOF 5
