REMARK  Name = ZINC34761855
REMARK  10 active torsions:
REMARK  status: ('A' for Active; 'I' for Inactive)
REMARK    1  A    between atoms: C_1  and  C_2
REMARK    2  A    between atoms: C_2  and  C_3
REMARK    3  A    between atoms: C_3  and  C_4
REMARK    4  A    between atoms: C_4  and  N_5
REMARK    5  A    between atoms: C_13  and  C_30
REMARK    6  A    between atoms: C_14  and  C_29
REMARK    7  A    between atoms: C_18  and  S_20
REMARK    8  A    between atoms: S_20  and  C_21
REMARK    9  A    between atoms: C_21  and  C_22
REMARK   10  A    between atoms: C_30  and  C_31
REMARK                            x       y       z     vdW  Elec       q    Type
REMARK                         _______ _______ _______ _____ _____    ______ ____
ROOT
ATOM      1  N   UNL     1      -3.810  -1.687   0.094  0.00  0.00    +0.382 N 
ATOM      2  C   UNL     1      -5.230  -1.970   0.341  0.00  0.00    -0.060 C 
ATOM      3  C   UNL     1      -5.454  -3.486   0.351  0.00  0.00    +0.088 C 
ATOM      4  N   UNL     1      -4.934  -4.042  -0.908  0.00  0.00    -0.318 N 
ATOM      5  C   UNL     1      -3.569  -3.676  -1.317  0.00  0.00    +0.088 C 
ATOM      6  C   UNL     1      -3.434  -2.151  -1.248  0.00  0.00    -0.060 C 
ATOM      7  C   UNL     1      -5.706  -4.886  -1.685  0.00  0.00    +0.134 A 
ATOM      8  C   UNL     1      -5.697  -6.289  -1.449  0.00  0.00    +0.051 A 
ATOM      9  C   UNL     1      -4.963  -7.059  -0.459  0.00  0.00    -0.025 A 
ATOM     10  C   UNL     1      -5.112  -8.390  -0.421  0.00  0.00    -0.007 A 
ATOM     11  S   UNL     1      -6.271  -8.716  -1.737  0.00  0.00    -0.073 S 
ATOM     12  C   UNL     1      -6.522  -7.054  -2.301  0.00  0.00    +0.115 A 
ATOM     13  N   UNL     1      -7.247  -6.490  -3.248  0.00  0.00    -0.215 NA
ATOM     14  C   UNL     1      -7.215  -5.176  -3.422  0.00  0.00    +0.191 A 
ATOM     15  N   UNL     1      -6.465  -4.397  -2.651  0.00  0.00    -0.206 NA
ATOM     16  C   UNL     1      -4.457  -9.377   0.510  0.00  0.00    +0.052 C 
ATOM     17  H   UNL     1      -3.250  -2.166   0.783  0.00  0.00    -0.082 HD
ENDROOT
BRANCH   9  18
ATOM     18  C   UNL     1      -4.044  -6.367   0.515  0.00  0.00    +0.033 C 
ATOM     19  C   UNL     1      -4.787  -6.119   1.829  0.00  0.00    +0.009 C 
ENDBRANCH   9  18
BRANCH   1  20
ATOM     20  C   UNL     1      -3.576  -0.241   0.193  0.00  0.00    -0.079 C 
BRANCH  20  21
ATOM     21  C   UNL     1      -3.849   0.223   1.626  0.00  0.00    -0.019 C 
BRANCH  21  23
ATOM     22  C   UNL     1      -3.878   2.193   3.162  0.00  0.00    +0.004 C 
ATOM     23  C   UNL     1      -3.605   1.730   1.730  0.00  0.00    -0.005 C 
ENDBRANCH  21  23
ENDBRANCH  20  21
ENDBRANCH   1  20
BRANCH  14  24
ATOM     24  S   UNL     1      -8.194  -4.448  -4.694  0.00  0.00    -0.081 S 
BRANCH  24  25
ATOM     25  C   UNL     1      -9.036  -5.859  -5.462  0.00  0.00    +0.112 C 
BRANCH  25  26
ATOM     26  C   UNL     1      -9.917  -5.370  -6.582  0.00  0.00    -0.037 A 
ATOM     27  C   UNL     1     -11.229  -5.016  -6.324  0.00  0.00    +0.005 A 
ATOM     28  C   UNL     1     -12.037  -4.567  -7.351  0.00  0.00    +0.015 A 
ATOM     29  C   UNL     1     -11.534  -4.471  -8.636  0.00  0.00    +0.018 A 
ATOM     30  C   UNL     1     -10.222  -4.824  -8.893  0.00  0.00    +0.015 A 
ATOM     31  C   UNL     1      -9.412  -5.269  -7.864  0.00  0.00    +0.005 A 
ATOM     32 BR   UNL     1     -12.641  -3.857 -10.041  0.00  0.00    -0.050 Br
ENDBRANCH  25  26
ENDBRANCH  24  25
ENDBRANCH  14  24
TORSDOF 7
