REMARK  Name = ZINC39773766
REMARK  10 active torsions:
REMARK  status: ('A' for Active; 'I' for Inactive)
REMARK    1  A    between atoms: C_2  and  C_3
REMARK    2  A    between atoms: C_3  and  N_4
REMARK    3  A    between atoms: C_5  and  C_26
REMARK    4  A    between atoms: C_9  and  S_10
REMARK    5  A    between atoms: S_10  and  C_11
REMARK    6  A    between atoms: C_11  and  C_12
REMARK    7  A    between atoms: C_12  and  C_14
REMARK    8  A    between atoms: C_16  and  C_19
REMARK    9  A    between atoms: C_26  and  C_27
REMARK   10  A    between atoms: C_27  and  N_28
REMARK                            x       y       z     vdW  Elec       q    Type
REMARK                         _______ _______ _______ _____ _____    ______ ____
ROOT
ATOM      1  N   UNL     1       1.367  -1.676   1.111  0.00  0.00    -0.285 N 
ATOM      2  C   UNL     1       1.871  -1.396   2.467  0.00  0.00    +0.175 C 
ATOM      3  N   UNL     1       1.688  -2.671   3.182  0.00  0.00    -0.246 N 
ATOM      4  N   UNL     1       1.125  -3.559   2.258  0.00  0.00    -0.163 NA
ATOM      5  C   UNL     1       0.945  -2.997   1.111  0.00  0.00    +0.176 C 
ATOM      6  H   UNL     1       1.913  -2.857   4.107  0.00  0.00    +0.170 HD
ENDROOT
BRANCH   1   7
ATOM      7  C   UNL     1       1.317  -0.740  -0.015  0.00  0.00    +0.135 C 
BRANCH   7   9
ATOM      8  C   UNL     1      -0.016   1.306   0.009  0.00  0.00    +0.005 C 
ATOM      9  C   UNL     1       0.002  -0.004   0.002  0.00  0.00    -0.016 C 
ENDBRANCH   7   9
ENDBRANCH   1   7
BRANCH   5  10
ATOM     10  S   UNL     1       0.249  -3.810  -0.288  0.00  0.00    -0.081 S 
BRANCH  10  11
ATOM     11  C   UNL     1      -0.102  -5.487   0.308  0.00  0.00    +0.156 C 
BRANCH  11  12
ATOM     12  C   UNL     1      -0.709  -6.299  -0.807  0.00  0.00    +0.171 C 
ATOM     13  O   UNL     1      -0.887  -5.797  -1.897  0.00  0.00    -0.291 OA
BRANCH  12  14
ATOM     14  C   UNL     1      -1.083  -7.693  -0.575  0.00  0.00    +0.019 C 
ATOM     15  C   UNL     1      -1.628  -8.551  -1.467  0.00  0.00    +0.041 C 
ATOM     16  C   UNL     1      -1.843  -9.849  -0.815  0.00  0.00    +0.121 C 
ATOM     17  N   UNL     1      -1.455  -9.817   0.421  0.00  0.00    -0.274 NA
ATOM     18  C   UNL     1      -0.933  -8.476   0.711  0.00  0.00    +0.181 C 
BRANCH  16  19
ATOM     19  C   UNL     1      -2.427 -11.042  -1.484  0.00  0.00    +0.265 C 
ATOM     20  O   UNL     1      -2.763 -10.981  -2.649  0.00  0.00    -0.268 OA
ATOM     21  N   UNL     1      -2.583 -12.191  -0.797  0.00  0.00    -0.296 N 
ATOM     22  C   UNL     1      -2.227 -12.401   0.614  0.00  0.00    +0.108 C 
ATOM     23  C   UNL     1      -2.558 -13.869   0.956  0.00  0.00    +0.020 C 
ATOM     24  C   UNL     1      -2.555 -14.559  -0.433  0.00  0.00    +0.020 C 
ATOM     25  C   UNL     1      -3.146 -13.443  -1.334  0.00  0.00    +0.108 C 
ENDBRANCH  16  19
ENDBRANCH  12  14
ENDBRANCH  11  12
ENDBRANCH  10  11
ENDBRANCH   5  10
BRANCH   2  26
ATOM     26  C   UNL     1       3.350  -1.009   2.421  0.00  0.00    +0.025 C 
BRANCH  26  27
ATOM     27  C   UNL     1       3.847  -0.725   3.840  0.00  0.00    -0.075 C 
BRANCH  27  28
ATOM     28  N   UNL     1       5.268  -0.354   3.796  0.00  0.00    +0.380 N 
ATOM     29  C   UNL     1       6.056  -1.497   3.321  0.00  0.00    -0.079 C 
ATOM     30  C   UNL     1       7.527  -1.091   3.196  0.00  0.00    -0.019 C 
ATOM     31  C   UNL     1       8.045  -0.645   4.566  0.00  0.00    -0.004 C 
ATOM     32  C   UNL     1       7.170   0.500   5.084  0.00  0.00    -0.019 C 
ATOM     33  C   UNL     1       5.713   0.035   5.140  0.00  0.00    -0.079 C 
ATOM     34  H   UNL     1       5.392   0.423   3.164  0.00  0.00    -0.082 HD
ENDBRANCH  27  28
ENDBRANCH  26  27
ENDBRANCH   2  26
TORSDOF 10
