REMARK  Name = ZINC39487436
REMARK  8 active torsions:
REMARK  status: ('A' for Active; 'I' for Inactive)
REMARK    1  A    between atoms: C_1  and  C_2
REMARK    2  A    between atoms: C_2  and  C_3
REMARK    3  A    between atoms: C_3  and  C_4
REMARK    4  A    between atoms: C_4  and  C_25
REMARK    5  A    between atoms: N_9  and  C_10
REMARK    6  A    between atoms: C_10  and  C_11
REMARK    7  A    between atoms: C_11  and  C_18
REMARK    8  A    between atoms: N_14  and  O_17
REMARK                            x       y       z     vdW  Elec       q    Type
REMARK                         _______ _______ _______ _____ _____    ______ ____
ROOT
ATOM      1  C   UNL     1      -0.042  -3.632   4.464  0.00  0.00    -0.008 C 
ATOM      2  C   UNL     1       0.759  -4.927   4.622  0.00  0.00    +0.026 C 
ATOM      3  C   UNL     1       1.292  -5.361   3.255  0.00  0.00    +0.115 C 
ATOM      4  N   UNL     1       0.168  -5.568   2.332  0.00  0.00    -0.191 NA
ATOM      5  C   UNL     1      -0.587  -4.325   2.129  0.00  0.00    +0.115 C 
ATOM      6  C   UNL     1      -1.177  -3.861   3.462  0.00  0.00    +0.026 C 
ENDROOT
BRANCH   1   7
ATOM      7  C   UNL     1      -0.629  -3.224   5.817  0.00  0.00    -0.003 C 
ATOM      8  C   UNL     1       0.477  -3.225   6.874  0.00  0.00    +0.004 C 
ATOM      9  C   UNL     1      -0.110  -2.817   8.227  0.00  0.00    +0.000 C 
ATOM     10  C   UNL     1      -1.201  -3.812   8.630  0.00  0.00    +0.000 C 
ATOM     11  C   UNL     1      -2.307  -3.811   7.573  0.00  0.00    +0.000 C 
ATOM     12  C   UNL     1      -1.720  -4.218   6.220  0.00  0.00    +0.004 C 
ENDBRANCH   1   7
BRANCH   4  13
ATOM     13  O   UNL     1       0.631  -6.115   1.057  0.00  0.00    -0.312 OA
ATOM     14  H   UNL     1      -0.076  -6.269   0.415  0.00  0.00    +0.237 HD
ENDBRANCH   4  13
BRANCH   1  15
ATOM     15  C   UNL     1       0.877  -2.522   3.951  0.00  0.00    +0.117 C 
BRANCH  15  21
ATOM     16  C   UNL     1       0.102  -0.093   4.503  0.00  0.00    +0.053 C 
ATOM     17  C   UNL     1      -0.894   0.840   3.787  0.00  0.00    +0.148 C 
ATOM     18  N   UNL     1      -1.364   0.043   2.644  0.00  0.00    -0.220 N 
ATOM     19  C   UNL     1      -0.762  -1.154   2.664  0.00  0.00    +0.315 C 
ATOM     20  O   UNL     1      -0.968  -2.014   1.830  0.00  0.00    -0.252 OA
ATOM     21  N   UNL     1       0.088  -1.317   3.687  0.00  0.00    -0.277 N 
ATOM     22 BR   UNL     1      -2.591   0.603   1.378  0.00  0.00    +0.040 Br
ATOM     23  C   UNL     1      -0.367  -0.393   5.928  0.00  0.00    +0.033 C 
BRANCH  16  24
ATOM     24  C   UNL     1       1.501   0.526   4.519  0.00  0.00    +0.027 C 
BRANCH  24  26
ATOM     25  C   UNL     1       2.886   2.414   5.389  0.00  0.00    +0.004 C 
ATOM     26  C   UNL     1       1.487   1.795   5.373  0.00  0.00    -0.001 C 
ENDBRANCH  24  26
ENDBRANCH  16  24
ENDBRANCH  15  21
ENDBRANCH   1  15
TORSDOF 6
