REMARK  Name = ZINC58849398
REMARK  10 active torsions:
REMARK  status: ('A' for Active; 'I' for Inactive)
REMARK    1  A    between atoms: C_1  and  O_2
REMARK    2  A    between atoms: O_2  and  C_3
REMARK    3  A    between atoms: C_6  and  C_9
REMARK    4  A    between atoms: C_20  and  S_25
REMARK    5  A    between atoms: S_25  and  N_28
REMARK    6  A    between atoms: N_28  and  C_29
REMARK    7  A    between atoms: C_31  and  O_37
REMARK    8  A    between atoms: C_34  and  O_35
REMARK    9  A    between atoms: O_35  and  C_36
REMARK   10  A    between atoms: O_37  and  C_38
REMARK                            x       y       z     vdW  Elec       q    Type
REMARK                         _______ _______ _______ _____ _____    ______ ____
ROOT
ATOM      1  C   UNL     1       2.360  -2.822  -3.959  0.00  0.00    +0.105 C 
ATOM      2  C   UNL     1       1.301  -3.179  -4.960  0.00  0.00    +0.029 C 
ATOM      3  C   UNL     1       0.074  -3.844  -4.301  0.00  0.00    +0.033 C 
ATOM      4  C   UNL     1      -0.494  -4.719  -5.399  0.00  0.00    -0.030 C 
ATOM      5  C   UNL     1       0.389  -4.918  -6.342  0.00  0.00    -0.023 C 
ATOM      6  C   UNL     1       1.686  -4.230  -5.997  0.00  0.00    +0.049 C 
ATOM      7  C   UNL     1       2.634  -5.267  -5.464  0.00  0.00    -0.018 A 
ATOM      8  C   UNL     1       2.819  -6.430  -6.199  0.00  0.00    +0.034 A 
ATOM      9  C   UNL     1       3.671  -7.416  -5.745  0.00  0.00    +0.109 A 
ATOM     10  C   UNL     1       4.348  -7.253  -4.550  0.00  0.00    +0.030 A 
ATOM     11  C   UNL     1       4.174  -6.098  -3.815  0.00  0.00    +0.025 A 
ATOM     12  C   UNL     1       3.320  -5.099  -4.274  0.00  0.00    +0.031 A 
ATOM     13  N   UNL     1       3.196  -3.930  -3.549  0.00  0.00    -0.336 N 
ATOM     14  H   UNL     1       3.675  -3.865  -2.708  0.00  0.00    +0.147 HD
ENDROOT
BRANCH   1  18
ATOM     15  C   UNL     1       0.455  -1.206  -0.492  0.00  0.00    +0.120 A 
ATOM     16  C   UNL     1       0.979  -0.357  -1.456  0.00  0.00    +0.046 A 
ATOM     17  C   UNL     1       1.595  -0.882  -2.576  0.00  0.00    +0.009 A 
ATOM     18  C   UNL     1       1.688  -2.252  -2.737  0.00  0.00    -0.027 A 
ATOM     19  C   UNL     1       1.166  -3.100  -1.778  0.00  0.00    +0.009 A 
ATOM     20  C   UNL     1       0.554  -2.580  -0.653  0.00  0.00    +0.046 A 
BRANCH  15  22
ATOM     21  C   UNL     1      -0.218   0.732   0.710  0.00  0.00    +0.277 C 
ATOM     22  O   UNL     1      -0.151  -0.692   0.611  0.00  0.00    -0.495 OA
ENDBRANCH  15  22
ENDBRANCH   1  18
BRANCH   9  23
ATOM     23  S   UNL     1       3.895  -8.887  -6.689  0.00  0.00    +0.072 S 
ATOM     24  O   UNL     1       4.324  -9.891  -5.780  0.00  0.00    -0.150 OA
ATOM     25  O   UNL     1       2.733  -9.034  -7.494  0.00  0.00    -0.150 OA
BRANCH  23  26
ATOM     26  N   UNL     1       5.157  -8.616  -7.726  0.00  0.00    -0.213 N 
ATOM     27  H   UNL     1       5.017  -8.667  -8.684  0.00  0.00    +0.174 HD
BRANCH  26  28
ATOM     28  C   UNL     1       6.426  -8.312  -7.219  0.00  0.00    +0.093 A 
ATOM     29  C   UNL     1       6.864  -8.905  -6.043  0.00  0.00    +0.073 A 
ATOM     30  C   UNL     1       8.122  -8.602  -5.544  0.00  0.00    +0.122 A 
ATOM     31  C   UNL     1       8.941  -7.708  -6.218  0.00  0.00    +0.049 A 
ATOM     32  C   UNL     1       8.506  -7.117  -7.389  0.00  0.00    +0.051 A 
ATOM     33  C   UNL     1       7.253  -7.420  -7.897  0.00  0.00    +0.143 A 
BRANCH  33  34
ATOM     34  O   UNL     1       6.829  -6.842  -9.053  0.00  0.00    -0.493 OA
ATOM     35  C   UNL     1       7.729  -5.937  -9.695  0.00  0.00    +0.277 C 
ENDBRANCH  33  34
BRANCH  30  36
ATOM     36  O   UNL     1       8.553  -9.182  -4.392  0.00  0.00    -0.495 OA
ATOM     37  C   UNL     1       9.858  -8.825  -3.935  0.00  0.00    +0.277 C 
ENDBRANCH  30  36
ENDBRANCH  26  28
ENDBRANCH  23  26
ENDBRANCH   9  23
TORSDOF 7
