REMARK  Name = ZINC32646750
REMARK  7 active torsions:
REMARK  status: ('A' for Active; 'I' for Inactive)
REMARK    1  A    between atoms: C_1  and  C_2
REMARK    2  A    between atoms: C_9  and  N_13
REMARK    3  A    between atoms: C_10  and  C_11
REMARK    4  A    between atoms: C_14  and  C_16
REMARK    5  A    between atoms: C_16  and  O_17
REMARK    6  A    between atoms: O_17  and  C_18
REMARK    7  A    between atoms: C_23  and  N_24
REMARK                            x       y       z     vdW  Elec       q    Type
REMARK                         _______ _______ _______ _____ _____    ______ ____
ROOT
ATOM      1  N   UNL     1       1.931  -5.847  -1.734  0.00  0.00    -0.276 N 
ATOM      2  C   UNL     1       2.229  -6.109  -3.022  0.00  0.00    +0.255 C 
ATOM      3  O   UNL     1       2.201  -5.218  -3.844  0.00  0.00    -0.272 OA
ATOM      4  H   UNL     1       1.956  -6.655  -0.988  0.00  0.00    +0.155 HD
ENDROOT
BRANCH   1  12
ATOM      5  C   UNL     1      -0.019   1.526   0.010  0.00  0.00    +0.008 C 
ATOM      6  C   UNL     1       0.002  -0.004   0.002  0.00  0.00    -0.009 C 
ATOM      7  C   UNL     1       0.742  -0.514   1.242  0.00  0.00    +0.008 C 
ATOM      8  C   UNL     1       0.556  -2.027   1.373  0.00  0.00    +0.037 C 
ATOM      9  C   UNL     1       0.941  -2.684   0.054  0.00  0.00    -0.018 A 
ATOM     10  C   UNL     1       1.008  -1.965  -1.089  0.00  0.00    -0.004 A 
ATOM     11  S   UNL     1       1.485  -3.134  -2.331  0.00  0.00    -0.077 S 
ATOM     12  C   UNL     1       1.593  -4.557  -1.349  0.00  0.00    +0.090 A 
ATOM     13  C   UNL     1       1.258  -4.095  -0.084  0.00  0.00    +0.084 A 
ATOM     14  C   UNL     1       0.736  -0.502  -1.252  0.00  0.00    +0.046 C 
BRANCH  13  15
ATOM     15  C   UNL     1       1.226  -4.977   1.044  0.00  0.00    +0.102 C 
ATOM     16  N   UNL     1       1.200  -5.676   1.938  0.00  0.00    -0.191 NA
ENDBRANCH  13  15
ENDBRANCH   1  12
BRANCH   2  17
ATOM     17  C   UNL     1       2.596  -7.510  -3.440  0.00  0.00    +0.325 C 
BRANCH  17  18
ATOM     18  O   UNL     1       2.867  -7.532  -4.843  0.00  0.00    -0.481 OA
BRANCH  18  19
ATOM     19  C   UNL     1       3.216  -8.729  -5.385  0.00  0.00    +0.145 A 
ATOM     20  C   UNL     1       3.296  -9.857  -4.584  0.00  0.00    +0.049 A 
ATOM     21  C   UNL     1       3.651 -11.074  -5.136  0.00  0.00    +0.024 A 
ATOM     22  C   UNL     1       3.926 -11.169  -6.489  0.00  0.00    +0.043 A 
ATOM     23  C   UNL     1       3.848 -10.048  -7.295  0.00  0.00    +0.050 A 
ATOM     24  C   UNL     1       3.487  -8.825  -6.747  0.00  0.00    +0.092 A 
ATOM     25 CL   UNL     1       4.371 -12.700  -7.176  0.00  0.00    -0.083 Cl
BRANCH  24  26
ATOM     26  N   UNL     1       3.401  -7.687  -7.564  0.00  0.00    -0.285 N 
ATOM     27  C   UNL     1       2.364  -6.807  -7.640  0.00  0.00    +0.229 A 
ATOM     28  N   UNL     1       2.694  -5.897  -8.517  0.00  0.00    -0.138 NA
ATOM     29  N   UNL     1       3.858  -6.154  -8.997  0.00  0.00    -0.138 NA
ATOM     30  C   UNL     1       4.335  -7.238  -8.449  0.00  0.00    +0.229 A 
ENDBRANCH  24  26
ENDBRANCH  18  19
ENDBRANCH  17  18
ENDBRANCH   2  17
TORSDOF 6
