REMARK  Name = ZINC18058875
REMARK  5 active torsions:
REMARK  status: ('A' for Active; 'I' for Inactive)
REMARK    1  A    between atoms: C_1  and  C_2
REMARK    2  A    between atoms: C_2  and  C_3
REMARK    3  A    between atoms: C_4  and  C_21
REMARK    4  A    between atoms: C_9  and  C_14
REMARK    5  A    between atoms: C_17  and  C_20
REMARK                            x       y       z     vdW  Elec       q    Type
REMARK                         _______ _______ _______ _____ _____    ______ ____
ROOT
ATOM      1  C   UNL     1      -1.412  -0.526   0.013  0.00  0.00    +0.037 A 
ATOM      2  C   UNL     1      -2.022  -0.855  -1.149  0.00  0.00    +0.023 A 
ATOM      3  N   UNL     1      -3.300  -1.326  -1.137  0.00  0.00    -0.343 N 
ATOM      4  H   UNL     1      -3.736  -1.562  -1.970  0.00  0.00    +0.167 HD
ATOM      5  C   UNL     1      -3.976  -1.469   0.061  0.00  0.00    +0.139 A 
ATOM      6  C   UNL     1      -5.230  -1.907   0.356  0.00  0.00    +0.076 A 
ATOM      7  C   UNL     1      -5.391  -1.842   1.751  0.00  0.00    +0.095 A 
ATOM      8  N   UNL     1      -4.274  -1.381   2.276  0.00  0.00    -0.162 NA
ATOM      9  N   UNL     1      -3.366  -1.138   1.238  0.00  0.00    -0.179 N 
ATOM     10  C   UNL     1      -2.099  -0.677   1.234  0.00  0.00    +0.278 A 
ATOM     11  O   UNL     1      -1.552  -0.387   2.283  0.00  0.00    -0.265 OA
ATOM     12  C   UNL     1      -1.287  -0.700  -2.456  0.00  0.00    +0.064 C 
ENDROOT
BRANCH   7  13
ATOM     13  C   UNL     1      -6.611  -2.225   2.504  0.00  0.00    +0.002 A 
ATOM     14  C   UNL     1      -7.729  -2.705   1.825  0.00  0.00    +0.010 A 
ATOM     15  C   UNL     1      -8.861  -3.061   2.530  0.00  0.00    +0.004 A 
ATOM     16  C   UNL     1      -8.887  -2.942   3.908  0.00  0.00    -0.050 A 
ATOM     17  C   UNL     1      -7.780  -2.465   4.586  0.00  0.00    +0.004 A 
ATOM     18  C   UNL     1      -6.641  -2.112   3.892  0.00  0.00    +0.010 A 
ATOM     19  C   UNL     1     -10.126  -3.331   4.672  0.00  0.00    +0.044 C 
ENDBRANCH   7  13
BRANCH   1  21
ATOM     20  C   UNL     1      -0.019   1.526   0.010  0.00  0.00    +0.009 C 
ATOM     21  C   UNL     1       0.002  -0.004   0.002  0.00  0.00    +0.039 C 
ENDBRANCH   1  21
TORSDOF 2
