REMARK  Name = ZINC67438985
REMARK  8 active torsions:
REMARK  status: ('A' for Active; 'I' for Inactive)
REMARK    1  A    between atoms: C_1  and  C_2
REMARK    2  A    between atoms: C_5  and  C_31
REMARK    3  A    between atoms: N_8  and  C_10
REMARK    4  A    between atoms: C_10  and  C_11
REMARK    5  A    between atoms: C_11  and  C_13
REMARK    6  A    between atoms: C_11  and  N_14
REMARK    7  A    between atoms: C_15  and  C_17
REMARK    8  A    between atoms: N_19  and  C_20
REMARK                            x       y       z     vdW  Elec       q    Type
REMARK                         _______ _______ _______ _____ _____    ______ ____
ROOT
ATOM      1  N   UNL     1       2.106   1.674   3.485  0.00  0.00    -0.307 N 
ATOM      2  C   UNL     1       1.169   2.413   4.111  0.00  0.00    +0.299 C 
ATOM      3  O   UNL     1       0.343   1.874   4.817  0.00  0.00    -0.265 OA
ATOM      4  H   UNL     1       2.766   2.104   2.920  0.00  0.00    +0.149 HD
ENDROOT
BRANCH   2   5
ATOM      5  C   UNL     1       1.146   3.896   3.934  0.00  0.00    +0.303 C 
ATOM      6  O   UNL     1       1.973   4.435   3.227  0.00  0.00    -0.265 OA
ATOM      7  N   UNL     1       0.209   4.635   4.559  0.00  0.00    -0.278 N 
ATOM      8  H   UNL     1      -0.491   4.199   5.070  0.00  0.00    +0.155 HD
BRANCH   7   9
ATOM      9  C   UNL     1       0.246   6.030   4.472  0.00  0.00    +0.034 A 
ATOM     10  C   UNL     1      -0.139   6.805   5.559  0.00  0.00    +0.025 A 
ATOM     11  C   UNL     1      -0.103   8.182   5.473  0.00  0.00    +0.025 A 
ATOM     12  C   UNL     1       0.319   8.793   4.299  0.00  0.00    +0.037 A 
ATOM     13  C   UNL     1       0.704   8.019   3.213  0.00  0.00    -0.024 A 
ATOM     14  C   UNL     1       0.672   6.642   3.300  0.00  0.00    +0.028 A 
ATOM     15  C   UNL     1       1.162   8.686   1.941  0.00  0.00    +0.046 C 
ATOM     16  C   UNL     1       0.385   9.987   1.739  0.00  0.00    +0.101 C 
ATOM     17  C   UNL     1       0.398  10.794   3.009  0.00  0.00    +0.218 C 
ATOM     18  O   UNL     1       0.444  12.005   2.949  0.00  0.00    -0.275 OA
ATOM     19  N   UNL     1       0.357  10.189   4.210  0.00  0.00    -0.285 N 
ATOM     20  H   UNL     1       0.354  10.724   5.019  0.00  0.00    +0.155 HD
ENDBRANCH   7   9
ENDBRANCH   2   5
BRANCH   1  21
ATOM     21  C   UNL     1       2.128   0.219   3.659  0.00  0.00    +0.054 C 
ATOM     22  C   UNL     1       2.908  -0.132   4.927  0.00  0.00    +0.026 C 
BRANCH  21  23
ATOM     23  C   UNL     1       2.804  -0.429   2.449  0.00  0.00    -0.057 C 
BRANCH  23  29
ATOM     24  C   UNL     1      -0.003   1.548  -0.005  0.00  0.00    +0.005 C 
ATOM     25  C   UNL     1       0.013   0.018  -0.021  0.00  0.00    -0.031 C 
ATOM     26  C   UNL     1       0.738  -0.473  -1.277  0.00  0.00    +0.003 C 
ATOM     27  C   UNL     1       2.195  -0.006  -1.230  0.00  0.00    -0.031 C 
ATOM     28  C   UNL     1       2.849  -0.521   0.054  0.00  0.00    -0.076 C 
ATOM     29  N   UNL     1       2.127   0.004   1.219  0.00  0.00    +0.381 N 
ATOM     30  C   UNL     1       0.747  -0.498   1.219  0.00  0.00    -0.076 C 
ATOM     31  C   UNL     1       2.947  -0.556  -2.443  0.00  0.00    +0.005 C 
ATOM     32  H   UNL     1       2.117   1.012   1.181  0.00  0.00    -0.082 HD
ENDBRANCH  23  29
ENDBRANCH  21  23
ENDBRANCH   1  21
TORSDOF 5
