REMARK  Name = ZINC59179750
REMARK  9 active torsions:
REMARK  status: ('A' for Active; 'I' for Inactive)
REMARK    1  A    between atoms: C_1  and  C_2
REMARK    2  A    between atoms: C_5  and  C_8
REMARK    3  A    between atoms: C_14  and  C_16
REMARK    4  A    between atoms: C_19  and  S_22
REMARK    5  A    between atoms: N_20  and  C_21
REMARK    6  A    between atoms: S_22  and  C_23
REMARK    7  A    between atoms: C_23  and  C_24
REMARK    8  A    between atoms: N_26  and  C_27
REMARK    9  A    between atoms: C_28  and  C_36
REMARK                            x       y       z     vdW  Elec       q    Type
REMARK                         _______ _______ _______ _____ _____    ______ ____
ROOT
ATOM      1  C   UNL     1       1.574  -6.847   0.582  0.00  0.00    +0.154 A 
ATOM      2  N   UNL     1       2.750  -6.294   0.678  0.00  0.00    -0.132 NA
ATOM      3  N   UNL     1       3.602  -6.940  -0.034  0.00  0.00    -0.122 NA
ATOM      4  C   UNL     1       3.010  -7.950  -0.629  0.00  0.00    +0.192 A 
ATOM      5  N   UNL     1       1.699  -7.925  -0.250  0.00  0.00    -0.308 N 
ATOM      6  C   UNL     1       0.644  -8.858  -0.653  0.00  0.00    +0.152 C 
ENDROOT
BRANCH   1  13
ATOM      7  C   UNL     1       0.059  -4.251  -0.021  0.00  0.00    +0.247 C 
ATOM      8  O   UNL     1      -0.044  -4.855  -1.071  0.00  0.00    -0.270 OA
ATOM      9  N   UNL     1       0.176  -4.930   1.137  0.00  0.00    -0.287 N 
ATOM     10  C   UNL     1       0.181  -4.334   2.486  0.00  0.00    +0.109 C 
ATOM     11  C   UNL     1      -0.286  -5.474   3.425  0.00  0.00    +0.021 C 
ATOM     12  C   UNL     1       0.388  -6.710   2.773  0.00  0.00    +0.032 C 
ATOM     13  C   UNL     1       0.312  -6.388   1.266  0.00  0.00    +0.144 C 
BRANCH   7  18
ATOM     14  C   UNL     1       0.051   1.503   0.004  0.00  0.00    +0.044 C 
ATOM     15  C   UNL     1       0.053  -0.004  -0.002  0.00  0.00    -0.050 A 
ATOM     16  C   UNL     1      -0.548  -0.689  -1.043  0.00  0.00    +0.004 A 
ATOM     17  C   UNL     1      -0.550  -2.068  -1.055  0.00  0.00    +0.013 A 
ATOM     18  C   UNL     1       0.057  -2.773  -0.015  0.00  0.00    +0.037 A 
ATOM     19  C   UNL     1       0.663  -2.076   1.032  0.00  0.00    +0.013 A 
ATOM     20  C   UNL     1       0.662  -0.696   1.029  0.00  0.00    +0.004 A 
ENDBRANCH   7  18
ENDBRANCH   1  13
BRANCH   4  21
ATOM     21  S   UNL     1       3.768  -9.121  -1.706  0.00  0.00    -0.077 S 
BRANCH  21  22
ATOM     22  C   UNL     1       5.502  -8.593  -1.779  0.00  0.00    +0.173 C 
BRANCH  22  23
ATOM     23  C   UNL     1       6.272  -9.523  -2.681  0.00  0.00    +0.228 C 
ATOM     24  O   UNL     1       5.707 -10.450  -3.221  0.00  0.00    -0.275 OA
ATOM     25  N   UNL     1       7.589  -9.323  -2.886  0.00  0.00    -0.278 N 
ATOM     26  H   UNL     1       8.041  -8.582  -2.454  0.00  0.00    +0.155 HD
BRANCH  25  27
ATOM     27  C   UNL     1       8.299 -10.180  -3.717  0.00  0.00    +0.090 A 
ATOM     28  C   UNL     1       9.646 -10.133  -4.037  0.00  0.00    +0.084 A 
ATOM     29  C   UNL     1      10.151 -11.154  -4.937  0.00  0.00    -0.018 A 
ATOM     30  C   UNL     1       9.216 -12.036  -5.352  0.00  0.00    -0.004 A 
ATOM     31  S   UNL     1       7.724 -11.514  -4.558  0.00  0.00    -0.077 S 
ATOM     32  C   UNL     1       9.420 -13.195  -6.278  0.00  0.00    +0.043 C 
ATOM     33  C   UNL     1      10.771 -13.013  -6.986  0.00  0.00    +0.005 C 
ATOM     34  C   UNL     1      11.837 -12.671  -5.941  0.00  0.00    +0.005 C 
ATOM     35  C   UNL     1      11.598 -11.261  -5.397  0.00  0.00    +0.037 C 
BRANCH  28  36
ATOM     36  C   UNL     1      10.505  -9.118  -3.503  0.00  0.00    +0.102 C 
ATOM     37  N   UNL     1      11.185  -8.314  -3.080  0.00  0.00    -0.191 NA
ENDBRANCH  28  36
ENDBRANCH  25  27
ENDBRANCH  22  23
ENDBRANCH  21  22
ENDBRANCH   4  21
TORSDOF 7
