REMARK  Name = ZINC36027385
REMARK  10 active torsions:
REMARK  status: ('A' for Active; 'I' for Inactive)
REMARK    1  A    between atoms: C_1  and  C_2
REMARK    2  A    between atoms: C_2  and  C_3
REMARK    3  A    between atoms: C_3  and  C_5
REMARK    4  A    between atoms: C_3  and  C_6
REMARK    5  A    between atoms: C_6  and  N_7
REMARK    6  A    between atoms: C_10  and  C_29
REMARK    7  A    between atoms: N_16  and  S_19
REMARK    8  A    between atoms: S_19  and  C_22
REMARK    9  A    between atoms: C_25  and  C_28
REMARK   10  A    between atoms: C_29  and  C_30
REMARK                            x       y       z     vdW  Elec       q    Type
REMARK                         _______ _______ _______ _____ _____    ______ ____
ROOT
ATOM      1  N   UNL     1       1.535  -2.493  -2.410  0.00  0.00    -0.313 N 
ATOM      2  C   UNL     1       0.941  -2.749  -3.595  0.00  0.00    +0.201 C 
ATOM      3  O   UNL     1      -0.242  -2.631  -3.834  0.00  0.00    -0.277 OA
ATOM      4  C   UNL     1       2.000  -3.208  -4.573  0.00  0.00    +0.023 C 
ATOM      5  N   UNL     1       3.286  -2.797  -3.960  0.00  0.00    +0.401 N 
ATOM      6  C   UNL     1       2.973  -2.755  -2.518  0.00  0.00    +0.006 C 
ATOM      7  C   UNL     1       3.314  -4.101  -1.881  0.00  0.00    +0.023 C 
ATOM      8  C   UNL     1       2.953  -4.065  -0.392  0.00  0.00    +0.109 C 
ATOM      9  N   UNL     1       3.615  -2.909   0.227  0.00  0.00    -0.177 NA
ATOM     10  C   UNL     1       3.409  -1.578  -0.359  0.00  0.00    +0.109 C 
ATOM     11  C   UNL     1       3.766  -1.635  -1.848  0.00  0.00    +0.023 C 
ATOM     12  H   UNL     1       4.005  -3.478  -4.151  0.00  0.00    -0.082 HD
ATOM     13  H   UNL     1       3.561  -1.884  -4.288  0.00  0.00    -0.082 HD
ENDROOT
BRANCH   9  14
ATOM     14  S   UNL     1       4.577  -3.103   1.561  0.00  0.00    +0.061 S 
ATOM     15  O   UNL     1       4.600  -1.850   2.231  0.00  0.00    -0.153 OA
ATOM     16  O   UNL     1       4.151  -4.299   2.199  0.00  0.00    -0.153 OA
BRANCH  14  17
ATOM     17  C   UNL     1       6.216  -3.396   0.984  0.00  0.00    +0.105 A 
ATOM     18  C   UNL     1       6.641  -4.688   0.737  0.00  0.00    +0.029 A 
ATOM     19  C   UNL     1       7.926  -4.918   0.284  0.00  0.00    +0.005 A 
ATOM     20  C   UNL     1       8.787  -3.856   0.078  0.00  0.00    -0.050 A 
ATOM     21  C   UNL     1       8.362  -2.564   0.325  0.00  0.00    +0.005 A 
ATOM     22  C   UNL     1       7.075  -2.334   0.773  0.00  0.00    +0.029 A 
ATOM     23  C   UNL     1      10.189  -4.107  -0.414  0.00  0.00    +0.044 C 
ENDBRANCH  14  17
ENDBRANCH   9  14
BRANCH   1  24
ATOM     24  C   UNL     1       0.849  -2.021  -1.205  0.00  0.00    +0.109 C 
BRANCH  24  25
ATOM     25  C   UNL     1       0.801  -0.492  -1.212  0.00  0.00    +0.003 C 
ATOM     26  C   UNL     1      -0.081  -0.015  -2.368  0.00  0.00    +0.009 C 
BRANCH  25  28
ATOM     27  C   UNL     1       0.286   1.534   0.157  0.00  0.00    +0.004 C 
ATOM     28  C   UNL     1       0.219   0.006   0.113  0.00  0.00    +0.001 C 
ENDBRANCH  25  28
ENDBRANCH  24  25
ENDBRANCH   1  24
BRANCH   4  29
ATOM     29  C   UNL     1       1.809  -2.520  -5.927  0.00  0.00    +0.028 C 
BRANCH  29  30
ATOM     30  C   UNL     1       2.818  -3.056  -6.909  0.00  0.00    -0.048 A 
ATOM     31  C   UNL     1       4.054  -2.449  -7.030  0.00  0.00    +0.003 A 
ATOM     32  C   UNL     1       4.980  -2.941  -7.932  0.00  0.00    +0.000 A 
ATOM     33  C   UNL     1       4.669  -4.038  -8.712  0.00  0.00    +0.000 A 
ATOM     34  C   UNL     1       3.433  -4.645  -8.591  0.00  0.00    +0.000 A 
ATOM     35  C   UNL     1       2.509  -4.157  -7.686  0.00  0.00    +0.003 A 
ENDBRANCH  29  30
ENDBRANCH   4  29
TORSDOF 7
