REMARK  Name = ZINC38847911
REMARK  6 active torsions:
REMARK  status: ('A' for Active; 'I' for Inactive)
REMARK    1  A    between atoms: C_1  and  C_2
REMARK    2  A    between atoms: C_4  and  C_14
REMARK    3  A    between atoms: N_16  and  C_17
REMARK    4  A    between atoms: C_17  and  C_18
REMARK    5  A    between atoms: C_18  and  C_19
REMARK    6  A    between atoms: C_19  and  N_20
REMARK                            x       y       z     vdW  Elec       q    Type
REMARK                         _______ _______ _______ _____ _____    ______ ____
ROOT
ATOM      1  C   UNL     1       1.969   0.176  -1.441  0.00  0.00    +0.266 C 
ATOM      2  O   UNL     1       2.951  -0.535  -1.468  0.00  0.00    -0.271 OA
ATOM      3  N   UNL     1       2.097   1.493  -1.186  0.00  0.00    -0.247 N 
ATOM      4  C   UNL     1       0.969   2.284  -1.045  0.00  0.00    +0.168 A 
ATOM      5  N   UNL     1       0.889   3.587  -0.910  0.00  0.00    -0.224 NA
ATOM      6  C   UNL     1      -0.290   4.233  -0.780  0.00  0.00    +0.080 A 
ATOM      7  C   UNL     1      -0.514   5.621  -0.628  0.00  0.00    +0.030 A 
ATOM      8  C   UNL     1      -1.785   6.117  -0.507  0.00  0.00    +0.017 A 
ATOM      9  C   UNL     1      -2.894   5.282  -0.529  0.00  0.00    +0.019 A 
ATOM     10  C   UNL     1      -2.713   3.918  -0.676  0.00  0.00    +0.032 A 
ATOM     11  C   UNL     1      -1.442   3.414  -0.798  0.00  0.00    +0.042 A 
ATOM     12  S   UNL     1      -0.749   1.791  -1.007  0.00  0.00    -0.052 S 
ATOM     13 BR   UNL     1      -4.635   6.001  -0.358  0.00  0.00    -0.050 Br
ENDROOT
BRANCH   1  16
ATOM     14  C   UNL     1       1.305  -2.537  -0.561  0.00  0.00    +0.056 C 
ATOM     15  C   UNL     1       0.719  -1.937  -1.841  0.00  0.00    +0.220 C 
ATOM     16  C   UNL     1       0.605  -0.413  -1.694  0.00  0.00    +0.299 C 
ATOM     17  O   UNL     1       0.067   0.116  -2.910  0.00  0.00    -0.472 OA
ATOM     18  C   UNL     1       0.612  -0.343  -4.070  0.00  0.00    +0.163 A 
ATOM     19  C   UNL     1       0.409   0.366  -5.245  0.00  0.00    +0.049 A 
ATOM     20  C   UNL     1       0.953  -0.088  -6.431  0.00  0.00    +0.004 A 
ATOM     21  C   UNL     1       1.699  -1.252  -6.450  0.00  0.00    +0.004 A 
ATOM     22  C   UNL     1       1.906  -1.963  -5.284  0.00  0.00    +0.049 A 
ATOM     23  C   UNL     1       1.365  -1.511  -4.089  0.00  0.00    +0.163 A 
ATOM     24  O   UNL     1       1.583  -2.218  -2.947  0.00  0.00    -0.481 OA
ENDBRANCH   1  16
BRANCH   3  25
ATOM     25  C   UNL     1       3.430   2.088  -1.059  0.00  0.00    +0.117 C 
BRANCH  25  26
ATOM     26  C   UNL     1       3.907   2.568  -2.431  0.00  0.00    +0.041 C 
BRANCH  26  27
ATOM     27  C   UNL     1       5.299   3.189  -2.298  0.00  0.00    +0.124 C 
BRANCH  27  28
ATOM     28  N   UNL     1       5.756   3.649  -3.612  0.00  0.00    -0.338 N 
ATOM     29  C   UNL     1       6.462   2.917  -4.528  0.00  0.00    +0.104 A 
ATOM     30  C   UNL     1       6.672   3.719  -5.590  0.00  0.00    +0.101 A 
ATOM     31  N   UNL     1       6.110   4.908  -5.328  0.00  0.00    -0.352 N 
ATOM     32  C   UNL     1       5.555   4.872  -4.148  0.00  0.00    +0.173 A 
ATOM     33  H   UNL     1       6.112   5.673  -5.925  0.00  0.00    +0.166 HD
ENDBRANCH  27  28
ENDBRANCH  26  27
ENDBRANCH  25  26
ENDBRANCH   3  25
TORSDOF 5
