REMARK  Name = ZINC61720636
REMARK  7 active torsions:
REMARK  status: ('A' for Active; 'I' for Inactive)
REMARK    1  A    between atoms: C_1  and  C_2
REMARK    2  A    between atoms: C_3  and  C_24
REMARK    3  A    between atoms: C_9  and  C_12
REMARK    4  A    between atoms: C_18  and  C_20
REMARK    5  A    between atoms: C_20  and  C_21
REMARK    6  A    between atoms: C_21  and  C_22
REMARK    7  A    between atoms: C_21  and  C_23
REMARK                            x       y       z     vdW  Elec       q    Type
REMARK                         _______ _______ _______ _____ _____    ______ ____
ROOT
ATOM      1  C   UNL     1       0.054  -0.501   4.920  0.00  0.00    +0.256 C 
ATOM      2  O   UNL     1      -0.022  -1.248   5.877  0.00  0.00    -0.270 OA
ATOM      3  N   UNL     1       0.139   0.830   5.109  0.00  0.00    -0.259 N 
ATOM      4  C   UNL     1       0.249   1.343   6.396  0.00  0.00    +0.188 A 
ATOM      5  N   UNL     1       0.294   0.717   7.564  0.00  0.00    -0.126 NA
ATOM      6  N   UNL     1       0.396   1.345   8.652  0.00  0.00    -0.145 NA
ATOM      7  C   UNL     1       0.465   2.660   8.700  0.00  0.00    +0.104 A 
ATOM      8  S   UNL     1       0.377   3.041   6.953  0.00  0.00    -0.035 S 
ATOM      9  H   UNL     1       0.124   1.431   4.347  0.00  0.00    +0.157 HD
ENDROOT
BRANCH   1  18
ATOM     10  C   UNL     1      -0.060   1.501   0.010  0.00  0.00    +0.065 C 
ATOM     11  C   UNL     1      -0.019  -0.006   0.002  0.00  0.00    +0.035 A 
ATOM     12  C   UNL     1      -0.009  -0.683  -1.146  0.00  0.00    +0.010 A 
ATOM     13  S   UNL     1       0.041  -2.371  -0.577  0.00  0.00    -0.054 S 
ATOM     14  C   UNL     1       0.046  -2.077   1.075  0.00  0.00    +0.180 A 
ATOM     15  N   UNL     1       0.015  -0.718   1.180  0.00  0.00    -0.258 N 
ATOM     16  C   UNL     1       0.015  -0.190   2.441  0.00  0.00    +0.271 A 
ATOM     17  O   UNL     1      -0.016   1.019   2.599  0.00  0.00    -0.266 OA
ATOM     18  C   UNL     1       0.052  -1.050   3.559  0.00  0.00    +0.120 A 
ATOM     19  C   UNL     1       0.088  -2.434   3.352  0.00  0.00    +0.132 A 
ATOM     20  N   UNL     1       0.076  -2.892   2.112  0.00  0.00    -0.230 NA
ATOM     21  C   UNL     1      -0.035  -0.158  -2.558  0.00  0.00    +0.053 C 
ENDBRANCH   1  18
BRANCH   7  22
ATOM     22  C   UNL     1       0.588   3.581   9.887  0.00  0.00    +0.068 C 
BRANCH  22  23
ATOM     23  C   UNL     1       2.067   3.822  10.194  0.00  0.00    -0.011 C 
ATOM     24  C   UNL     1       2.714   4.574   9.029  0.00  0.00    +0.007 C 
ATOM     25  C   UNL     1       2.194   4.654  11.472  0.00  0.00    +0.007 C 
ENDBRANCH  22  23
ENDBRANCH   7  22
TORSDOF 3
