REMARK  Name = ZINC36586699
REMARK  20 active torsions:
REMARK  status: ('A' for Active; 'I' for Inactive)
REMARK    1  A    between atoms: C_1  and  C_2
REMARK    2  A    between atoms: C_2  and  C_3
REMARK    3  A    between atoms: C_2  and  C_4
REMARK    4  A    between atoms: C_2  and  C_5
REMARK    5  A    between atoms: C_5  and  C_6
REMARK    6  A    between atoms: C_6  and  C_7
REMARK    7  A    between atoms: C_6  and  C_8
REMARK    8  A    between atoms: C_6  and  N_9
REMARK    9  A    between atoms: C_10  and  C_12
REMARK   10  A    between atoms: C_12  and  C_14
REMARK   11  A    between atoms: C_12  and  N_26
REMARK   12  A    between atoms: C_23  and  O_24
REMARK   13  A    between atoms: O_24  and  C_25
REMARK   14  A    between atoms: N_26  and  C_37
REMARK   15  A    between atoms: C_27  and  C_29
REMARK   16  A    between atoms: C_30  and  O_36
REMARK   17  A    between atoms: C_34  and  O_35
REMARK   18  A    between atoms: C_37  and  C_38
REMARK   19  A    between atoms: C_37  and  C_39
REMARK   20  A    between atoms: C_37  and  C_40
REMARK                            x       y       z     vdW  Elec       q    Type
REMARK                         _______ _______ _______ _____ _____    ______ ____
ROOT
ATOM      1  C   UNL     1       2.599   1.042  -5.598  0.00  0.00    +0.197 C 
ENDROOT
BRANCH   1   2
ATOM      2  C   UNL     1       1.347   1.851  -5.378  0.00  0.00    +0.031 A 
ATOM      3  C   UNL     1       0.111   1.207  -5.207  0.00  0.00    -0.009 A 
ATOM      4  C   UNL     1       0.009  -0.195  -5.236  0.00  0.00    +0.009 A 
ATOM      5  C   UNL     1      -1.205  -0.786  -5.066  0.00  0.00    +0.001 A 
ATOM      6  C   UNL     1      -2.353  -0.021  -4.864  0.00  0.00    +0.001 A 
ATOM      7  C   UNL     1      -2.293   1.338  -4.830  0.00  0.00    +0.008 A 
ATOM      8  C   UNL     1      -1.056   1.984  -5.001  0.00  0.00    -0.017 A 
ATOM      9  C   UNL     1      -0.957   3.386  -4.971  0.00  0.00    +0.012 A 
ATOM     10  C   UNL     1       0.255   3.980  -5.140  0.00  0.00    +0.046 A 
ATOM     11  C   UNL     1       1.409   3.215  -5.338  0.00  0.00    +0.126 A 
BRANCH  11  12
ATOM     12  O   UNL     1       2.607   3.837  -5.498  0.00  0.00    -0.495 OA
ATOM     13  C   UNL     1       2.631   5.254  -5.319  0.00  0.00    +0.277 C 
ENDBRANCH  11  12
ENDBRANCH   1   2
BRANCH   1  15
ATOM     14  N   UNL     1       3.782   1.227  -3.433  0.00  0.00    -0.308 N 
ATOM     15  C   UNL     1       3.706   1.584  -4.730  0.00  0.00    +0.239 C 
ATOM     16  O   UNL     1       4.529   2.341  -5.200  0.00  0.00    -0.273 OA
ATOM     17  H   UNL     1       3.123   0.622  -3.057  0.00  0.00    +0.149 HD
BRANCH  14  18
ATOM     18  C   UNL     1       4.858   1.754  -2.590  0.00  0.00    +0.030 C 
ATOM     19  C   UNL     1       5.106   3.223  -2.938  0.00  0.00    +0.031 C 
ATOM     20  C   UNL     1       6.136   0.949  -2.833  0.00  0.00    +0.031 C 
BRANCH  18  21
ATOM     21  C   UNL     1       4.455   1.639  -1.118  0.00  0.00    +0.031 C 
BRANCH  21  23
ATOM     22  C   UNL     1       2.211   0.546  -1.223  0.00  0.00    +0.010 C 
ATOM     23  C   UNL     1       2.948   1.865  -0.983  0.00  0.00    -0.036 C 
ATOM     24  C   UNL     1       2.492   2.899  -2.014  0.00  0.00    +0.010 C 
ATOM     25  C   UNL     1       2.633   2.376   0.425  0.00  0.00    +0.010 C 
ENDBRANCH  21  23
ENDBRANCH  18  21
ENDBRANCH  14  18
ENDBRANCH   1  15
BRANCH   1  26
ATOM     26  N   UNL     1       2.996   1.127  -7.005  0.00  0.00    -0.277 N 
ATOM     27  C   UNL     1       2.556   2.148  -7.768  0.00  0.00    +0.255 C 
ATOM     28  O   UNL     1       1.940   3.065  -7.260  0.00  0.00    -0.270 OA
BRANCH  27  29
ATOM     29  C   UNL     1       2.820   2.151  -9.217  0.00  0.00    +0.119 A 
ATOM     30  C   UNL     1       2.006   1.411 -10.085  0.00  0.00    +0.133 A 
ATOM     31  C   UNL     1       2.263   1.421 -11.447  0.00  0.00    +0.046 A 
ATOM     32  C   UNL     1       3.319   2.159 -11.949  0.00  0.00    +0.007 A 
ATOM     33  C   UNL     1       4.129   2.892 -11.102  0.00  0.00    +0.046 A 
ATOM     34  C   UNL     1       3.885   2.900  -9.738  0.00  0.00    +0.133 A 
BRANCH  34  35
ATOM     35  O   UNL     1       4.678   3.625  -8.909  0.00  0.00    -0.506 OA
ATOM     36  H   UNL     1       5.443   3.140  -8.573  0.00  0.00    +0.292 HD
ENDBRANCH  34  35
BRANCH  30  37
ATOM     37  O   UNL     1       0.969   0.686  -9.594  0.00  0.00    -0.506 OA
ATOM     38  H   UNL     1       0.136   1.173  -9.547  0.00  0.00    +0.292 HD
ENDBRANCH  30  37
ENDBRANCH  27  29
BRANCH  26  39
ATOM     39  C   UNL     1       3.870   0.104  -7.584  0.00  0.00    +0.030 C 
ATOM     40  C   UNL     1       3.883  -1.127  -6.676  0.00  0.00    +0.031 C 
ATOM     41  C   UNL     1       3.350  -0.288  -8.968  0.00  0.00    +0.031 C 
ATOM     42  C   UNL     1       5.290   0.660  -7.711  0.00  0.00    +0.031 C 
ENDBRANCH  26  39
ENDBRANCH   1  26
TORSDOF 11
