REMARK  Name = ZINC10718840
REMARK  9 active torsions:
REMARK  status: ('A' for Active; 'I' for Inactive)
REMARK    1  A    between atoms: C_1  and  C_2
REMARK    2  A    between atoms: C_2  and  C_3
REMARK    3  A    between atoms: C_2  and  C_4
REMARK    4  A    between atoms: C_4  and  C_6
REMARK    5  A    between atoms: C_4  and  N_21
REMARK    6  A    between atoms: N_8  and  C_9
REMARK    7  A    between atoms: C_9  and  C_10
REMARK    8  A    between atoms: C_22  and  C_24
REMARK    9  A    between atoms: C_27  and  N_31
REMARK                            x       y       z     vdW  Elec       q    Type
REMARK                         _______ _______ _______ _____ _____    ______ ____
ROOT
ATOM      1  C   UNL     1       4.213  -1.271  -0.511  0.00  0.00    +0.162 C 
ENDROOT
BRANCH   1   2
ATOM      2  C   UNL     1       3.912  -2.631   0.065  0.00  0.00    +0.234 C 
ATOM      3  O   UNL     1       2.788  -2.899   0.432  0.00  0.00    -0.274 OA
ATOM      4  N   UNL     1       4.893  -3.550   0.171  0.00  0.00    -0.310 N 
ATOM      5  H   UNL     1       5.774  -3.362  -0.188  0.00  0.00    +0.149 HD
BRANCH   4   6
ATOM      6  C   UNL     1       4.627  -4.831   0.830  0.00  0.00    +0.141 C 
BRANCH   6   7
ATOM      7  C   UNL     1       5.878  -5.671   0.817  0.00  0.00    -0.014 A 
ATOM      8  C   UNL     1       6.789  -5.589   1.862  0.00  0.00    +0.010 A 
ATOM      9  C   UNL     1       7.925  -6.377   1.812  0.00  0.00    +0.042 A 
ATOM     10  C   UNL     1       8.115  -7.220   0.721  0.00  0.00    +0.099 A 
ATOM     11  C   UNL     1       6.128  -6.534  -0.231  0.00  0.00    +0.089 A 
ATOM     12  N   UNL     1       9.252  -8.018   0.657  0.00  0.00    -0.312 N 
ATOM     13  C   UNL     1      10.472  -7.204   0.750  0.00  0.00    +0.134 C 
ATOM     14  C   UNL     1      11.695  -8.124   0.736  0.00  0.00    +0.178 C 
ATOM     15  O   UNL     1      11.668  -8.926  -0.448  0.00  0.00    -0.377 OA
ATOM     16  C   UNL     1      10.493  -9.733  -0.570  0.00  0.00    +0.178 C 
ATOM     17  C   UNL     1       9.258  -8.828  -0.569  0.00  0.00    +0.134 C 
ATOM     18  N   UNL     1       7.235  -7.318  -0.317  0.00  0.00    -0.349 N 
ATOM     19  H   UNL     1       7.399  -7.946  -1.113  0.00  0.00    +0.167 HD
ENDBRANCH   6   7
ENDBRANCH   4   6
ENDBRANCH   1   2
BRANCH   1  20
ATOM     20  N   UNL     1       3.148  -0.337  -0.140  0.00  0.00    -0.300 N 
ATOM     21  C   UNL     1       3.401   0.986  -0.082  0.00  0.00    +0.246 C 
ATOM     22  O   UNL     1       4.513   1.403  -0.339  0.00  0.00    -0.270 OA
ATOM     23  H   UNL     1       2.260  -0.670   0.066  0.00  0.00    +0.150 HD
BRANCH  21  24
ATOM     24  C   UNL     1       2.326   1.928   0.293  0.00  0.00    +0.055 A 
ATOM     25  C   UNL     1       1.048   1.452   0.589  0.00  0.00    +0.017 A 
ATOM     26  C   UNL     1       0.048   2.337   0.933  0.00  0.00    +0.033 A 
ATOM     27  C   UNL     1       0.312   3.695   0.996  0.00  0.00    +0.128 A 
ATOM     28  C   UNL     1       1.576   4.174   0.706  0.00  0.00    +0.053 A 
ATOM     29  C   UNL     1       2.585   3.300   0.354  0.00  0.00    +0.055 A 
ATOM     30 CL   UNL     1       4.172   3.903  -0.011  0.00  0.00    -0.083 Cl
BRANCH  27  31
ATOM     31  N   UNL     1      -0.765   4.638   1.372  0.00  0.00    +0.056 N 
ATOM     32  O   UNL     1      -0.537   5.833   1.425  0.00  0.00    -0.126 OA
ATOM     33  O   UNL     1      -1.880   4.218   1.629  0.00  0.00    -0.126 OA
ENDBRANCH  27  31
ENDBRANCH  21  24
ENDBRANCH   1  20
BRANCH   1  35
ATOM     34  C   UNL     1       2.926  -1.758  -2.597  0.00  0.00    +0.009 C 
ATOM     35  C   UNL     1       4.296  -1.370  -2.036  0.00  0.00    +0.012 C 
ATOM     36  C   UNL     1       4.718  -0.017  -2.612  0.00  0.00    +0.009 C 
ENDBRANCH   1  35
TORSDOF 7
