REMARK  Name = ZINC13592312
REMARK  6 active torsions:
REMARK  status: ('A' for Active; 'I' for Inactive)
REMARK    1  A    between atoms: C_1  and  C_2
REMARK    2  A    between atoms: C_5  and  C_35
REMARK    3  A    between atoms: N_8  and  S_10
REMARK    4  A    between atoms: S_10  and  C_13
REMARK    5  A    between atoms: C_16  and  C_19
REMARK    6  A    between atoms: C_19  and  C_21
REMARK                            x       y       z     vdW  Elec       q    Type
REMARK                         _______ _______ _______ _____ _____    ______ ____
ROOT
ATOM      1  C   UNL     1       2.547  -3.268  -0.217  0.00  0.00    +0.106 A 
ATOM      2  C   UNL     1       2.077  -4.392  -0.873  0.00  0.00    +0.029 A 
ATOM      3  C   UNL     1       2.503  -4.675  -2.155  0.00  0.00    +0.013 A 
ATOM      4  C   UNL     1       3.409  -3.825  -2.789  0.00  0.00    +0.022 A 
ATOM      5  C   UNL     1       3.878  -2.693  -2.123  0.00  0.00    +0.013 A 
ATOM      6  C   UNL     1       3.441  -2.418  -0.843  0.00  0.00    +0.029 A 
ENDROOT
BRANCH   1   7
ATOM      7  S   UNL     1       1.999  -2.914   1.419  0.00  0.00    +0.061 S 
ATOM      8  O   UNL     1       2.998  -2.098   2.015  0.00  0.00    -0.153 OA
ATOM      9  O   UNL     1       1.587  -4.150   1.986  0.00  0.00    -0.153 OA
BRANCH   7  15
ATOM     10  C   UNL     1      -0.019   1.526   0.010  0.00  0.00    +0.009 C 
ATOM     11  C   UNL     1       0.002  -0.004   0.002  0.00  0.00    +0.002 C 
ATOM     12  C   UNL     1      -1.433  -0.534   0.015  0.00  0.00    +0.009 C 
ATOM     13  C   UNL     1      -1.414  -2.064  -0.027  0.00  0.00    +0.002 C 
ATOM     14  C   UNL     1      -0.692  -2.596   1.215  0.00  0.00    +0.112 C 
ATOM     15  N   UNL     1       0.639  -1.977   1.288  0.00  0.00    -0.176 NA
ATOM     16  C   UNL     1       0.742  -0.512   1.244  0.00  0.00    +0.112 C 
ATOM     17  C   UNL     1      -0.680  -2.532  -1.285  0.00  0.00    +0.009 C 
ENDBRANCH   7  15
ENDBRANCH   1   7
BRANCH   4  18
ATOM     18  C   UNL     1       3.869  -4.123  -4.164  0.00  0.00    +0.188 C 
ATOM     19  O   UNL     1       3.458  -5.113  -4.744  0.00  0.00    -0.287 OA
BRANCH  18  20
ATOM     20  C   UNL     1       4.782  -3.264  -4.801  0.00  0.00    +0.075 C 
ATOM     21  C   UNL     1       5.211  -3.541  -6.080  0.00  0.00    +0.038 C 
ATOM     22  C   UNL     1       6.175  -2.667  -6.784  0.00  0.00    +0.003 A 
ATOM     23  C   UNL     1       6.553  -1.448  -6.217  0.00  0.00    +0.059 A 
ATOM     24  C   UNL     1       7.459  -0.637  -6.873  0.00  0.00    +0.167 A 
ATOM     25  C   UNL     1       7.992  -1.041  -8.098  0.00  0.00    +0.167 A 
ATOM     26  C   UNL     1       7.612  -2.252  -8.659  0.00  0.00    +0.054 A 
ATOM     27  C   UNL     1       6.704  -3.068  -8.013  0.00  0.00    -0.033 A 
ATOM     28  C   UNL     1       6.295  -4.367  -8.655  0.00  0.00    +0.054 C 
ATOM     29  C   UNL     1       5.758  -5.346  -7.612  0.00  0.00    +0.106 C 
ATOM     30  N   UNL     1       4.766  -4.658  -6.774  0.00  0.00    -0.343 N 
ATOM     31  O   UNL     1       8.855  -0.078  -8.534  0.00  0.00    -0.453 OA
ATOM     32  C   UNL     1       8.534   1.100  -7.772  0.00  0.00    +0.466 C 
ATOM     33  O   UNL     1       7.986   0.579  -6.547  0.00  0.00    -0.453 OA
ATOM     34  H   UNL     1       3.848  -4.968  -6.711  0.00  0.00    +0.146 HD
ENDBRANCH  18  20
ENDBRANCH   4  18
TORSDOF 4
