REMARK  Name = ZINC03984831
REMARK  8 active torsions:
REMARK  status: ('A' for Active; 'I' for Inactive)
REMARK    1  A    between atoms: C_1  and  C_2
REMARK    2  A    between atoms: C_2  and  N_3
REMARK    3  A    between atoms: C_6  and  C_13
REMARK    4  A    between atoms: C_7  and  O_12
REMARK    5  A    between atoms: C_17  and  O_25
REMARK    6  A    between atoms: C_18  and  O_23
REMARK    7  A    between atoms: O_23  and  C_24
REMARK    8  A    between atoms: O_25  and  C_26
REMARK                            x       y       z     vdW  Elec       q    Type
REMARK                         _______ _______ _______ _____ _____    ______ ____
ROOT
ATOM      1  C   UNL     1      -1.988   0.857   1.370  0.00  0.00    +0.001 C 
ATOM      2  C   UNL     1      -2.799   0.938   0.103  0.00  0.00    -0.050 A 
ATOM      3  C   UNL     1      -4.156   0.656   0.172  0.00  0.00    +0.052 A 
ATOM      4  C   UNL     1      -4.941   0.710  -0.966  0.00  0.00    +0.162 A 
ATOM      5  C   UNL     1      -4.363   1.049  -2.187  0.00  0.00    +0.162 A 
ATOM      6  C   UNL     1      -3.010   1.331  -2.249  0.00  0.00    +0.053 A 
ATOM      7  C   UNL     1      -2.228   1.277  -1.105  0.00  0.00    -0.044 A 
ATOM      8  C   UNL     1      -0.760   1.596  -1.224  0.00  0.00    +0.016 C 
ATOM      9  C   UNL     1      -0.013   1.086   0.008  0.00  0.00    -0.077 C 
ATOM     10  N   UNL     1      -0.708   1.567   1.215  0.00  0.00    +0.387 N 
ATOM     11  H   UNL     1      -0.120   1.394   2.039  0.00  0.00    -0.085 HD
ATOM     12  H   UNL     1      -0.886   2.575   1.128  0.00  0.00    -0.085 HD
ENDROOT
BRANCH   1  16
ATOM     13  N   UNL     1      -3.760   3.396   3.505  0.00  0.00    -0.289 N 
ATOM     14  C   UNL     1      -3.059   2.857   2.487  0.00  0.00    +0.260 A 
ATOM     15  O   UNL     1      -2.686   3.556   1.561  0.00  0.00    -0.267 OA
ATOM     16  C   UNL     1      -2.765   1.482   2.500  0.00  0.00    +0.067 A 
ATOM     17  C   UNL     1      -3.188   0.723   3.551  0.00  0.00    +0.199 A 
ATOM     18  N   UNL     1      -3.894   1.313   4.568  0.00  0.00    -0.306 N 
ATOM     19  H   UNL     1      -4.206   0.761   5.341  0.00  0.00    +0.171 HD
ATOM     20  C   UNL     1      -4.169   2.630   4.533  0.00  0.00    +0.163 A 
ATOM     21  S   UNL     1      -5.053   3.341   5.815  0.00  0.00    -0.013 S 
BRANCH  13  23
ATOM     22  C   UNL     1      -2.953   5.601   4.185  0.00  0.00    +0.027 C 
ATOM     23  C   UNL     1      -4.075   4.826   3.493  0.00  0.00    +0.124 C 
ENDBRANCH  13  23
BRANCH  17  24
ATOM     24  O   UNL     1      -2.914  -0.598   3.590  0.00  0.00    -0.493 OA
ATOM     25  H   UNL     1      -3.256  -1.047   4.375  0.00  0.00    +0.294 HD
ENDBRANCH  17  24
ENDBRANCH   1  16
BRANCH   5  26
ATOM     26  O   UNL     1      -5.125   1.103  -3.312  0.00  0.00    -0.491 OA
ATOM     27  C   UNL     1      -4.463   1.457  -4.527  0.00  0.00    +0.277 C 
ENDBRANCH   5  26
BRANCH   4  28
ATOM     28  O   UNL     1      -6.270   0.432  -0.893  0.00  0.00    -0.491 OA
ATOM     29  C   UNL     1      -6.792   0.092   0.393  0.00  0.00    +0.277 C 
ENDBRANCH   4  28
TORSDOF 5
