REMARK  Name = ZINC39007240
REMARK  12 active torsions:
REMARK  status: ('A' for Active; 'I' for Inactive)
REMARK    1  A    between atoms: C_1  and  C_2
REMARK    2  A    between atoms: C_9  and  C_14
REMARK    3  A    between atoms: C_14  and  N_15
REMARK    4  A    between atoms: N_15  and  C_16
REMARK    5  A    between atoms: C_16  and  C_17
REMARK    6  A    between atoms: C_23  and  C_25
REMARK    7  A    between atoms: C_27  and  O_35
REMARK    8  A    between atoms: C_28  and  O_33
REMARK    9  A    between atoms: C_29  and  O_31
REMARK   10  A    between atoms: O_31  and  C_32
REMARK   11  A    between atoms: O_33  and  C_34
REMARK   12  A    between atoms: O_35  and  C_36
REMARK                            x       y       z     vdW  Elec       q    Type
REMARK                         _______ _______ _______ _____ _____    ______ ____
ROOT
ATOM      1  N   UNL     1      -1.417  -6.715   2.942  0.00  0.00    -0.294 N 
ATOM      2  C   UNL     1      -1.777  -7.653   2.044  0.00  0.00    +0.247 C 
ATOM      3  O   UNL     1      -2.056  -7.330   0.905  0.00  0.00    -0.270 OA
ENDROOT
BRANCH   2   4
ATOM      4  C   UNL     1      -1.834  -9.073   2.442  0.00  0.00    +0.044 A 
ATOM      5  C   UNL     1      -2.978  -9.830   2.178  0.00  0.00    +0.062 A 
ATOM      6  C   UNL     1      -3.028 -11.159   2.552  0.00  0.00    +0.166 A 
ATOM      7  C   UNL     1      -1.939 -11.745   3.192  0.00  0.00    +0.204 A 
ATOM      8  C   UNL     1      -0.797 -10.993   3.458  0.00  0.00    +0.166 A 
ATOM      9  C   UNL     1      -0.740  -9.665   3.080  0.00  0.00    +0.062 A 
BRANCH   8  10
ATOM     10  O   UNL     1       0.264 -11.568   4.084  0.00  0.00    -0.491 OA
ATOM     11  C   UNL     1       1.402 -10.738   4.325  0.00  0.00    +0.277 C 
ENDBRANCH   8  10
BRANCH   7  12
ATOM     12  O   UNL     1      -1.991 -13.052   3.559  0.00  0.00    -0.488 OA
ATOM     13  C   UNL     1      -1.532 -14.013   2.606  0.00  0.00    +0.277 C 
ENDBRANCH   7  12
BRANCH   6  14
ATOM     14  O   UNL     1      -4.141 -11.896   2.294  0.00  0.00    -0.491 OA
ATOM     15  C   UNL     1      -5.176 -11.266   1.536  0.00  0.00    +0.277 C 
ENDBRANCH   6  14
ENDBRANCH   2   4
BRANCH   1  16
ATOM     16  C   UNL     1      -1.389  -5.302   2.554  0.00  0.00    +0.125 C 
BRANCH  16  25
ATOM     17  C   UNL     1       0.853   0.524  -0.915  0.00  0.00    +0.044 C 
ATOM     18  C   UNL     1       0.740  -0.966  -0.719  0.00  0.00    -0.050 A 
ATOM     19  C   UNL     1       0.916  -1.813  -1.813  0.00  0.00    +0.005 A 
ATOM     20  C   UNL     1       0.829  -3.166  -1.714  0.00  0.00    +0.024 A 
ATOM     21  C   UNL     1       0.553  -3.775  -0.476  0.00  0.00    +0.040 A 
ATOM     22  N   UNL     1       0.470  -5.102  -0.391  0.00  0.00    -0.284 N 
ATOM     23  C   UNL     1       0.213  -5.739   0.740  0.00  0.00    +0.226 C 
ATOM     24  O   UNL     1       0.151  -6.953   0.756  0.00  0.00    -0.275 OA
ATOM     25  C   UNL     1      -0.002  -4.950   2.012  0.00  0.00    +0.116 C 
ATOM     26  C   UNL     1       0.091  -3.440   1.920  0.00  0.00    -0.003 C 
ATOM     27  C   UNL     1       0.362  -2.904   0.696  0.00  0.00    -0.007 A 
ATOM     28  C   UNL     1       0.474  -1.455   0.519  0.00  0.00    +0.012 A 
ATOM     29  H   UNL     1       0.605  -5.626  -1.196  0.00  0.00    +0.155 HD
ENDBRANCH  16  25
ENDBRANCH   1  16
BRANCH   1  30
ATOM     30  C   UNL     1      -1.054  -7.107   4.306  0.00  0.00    +0.139 C 
BRANCH  30  31
ATOM     31  C   UNL     1      -2.323  -7.255   5.148  0.00  0.00    +0.136 C 
ATOM     32  C   UNL     1      -1.962  -7.693   6.590  0.00  0.00    +0.035 C 
ATOM     33  C   UNL     1      -3.194  -7.164   7.375  0.00  0.00    +0.031 C 
ATOM     34  C   UNL     1      -3.545  -5.874   6.604  0.00  0.00    +0.160 C 
ATOM     35  O   UNL     1      -2.977  -5.984   5.292  0.00  0.00    -0.375 OA
ENDBRANCH  30  31
ENDBRANCH   1  30
TORSDOF 8
