REMARK  Name = ZINC65430274
REMARK  10 active torsions:
REMARK  status: ('A' for Active; 'I' for Inactive)
REMARK    1  A    between atoms: C_1  and  C_2
REMARK    2  A    between atoms: C_6  and  C_8
REMARK    3  A    between atoms: N_19  and  C_20
REMARK    4  A    between atoms: C_20  and  C_21
REMARK    5  A    between atoms: C_24  and  O_31
REMARK    6  A    between atoms: C_25  and  O_29
REMARK    7  A    between atoms: C_26  and  O_27
REMARK    8  A    between atoms: O_27  and  C_28
REMARK    9  A    between atoms: O_29  and  C_30
REMARK   10  A    between atoms: O_31  and  C_32
REMARK                            x       y       z     vdW  Elec       q    Type
REMARK                         _______ _______ _______ _____ _____    ______ ____
ROOT
ATOM      1  C   UNL     1       1.260   1.749  -2.774  0.00  0.00    +0.076 C 
ATOM      2  C   UNL     1       1.804   3.109  -3.239  0.00  0.00    +0.110 C 
ATOM      3  C   UNL     1       1.480   3.381  -4.672  0.00  0.00    +0.215 C 
ATOM      4  O   UNL     1       1.546   4.540  -5.024  0.00  0.00    -0.276 OA
ATOM      5  N   UNL     1       1.128   2.500  -5.610  0.00  0.00    -0.295 N 
ATOM      6  C   UNL     1       0.793   1.118  -5.293  0.00  0.00    +0.190 C 
ATOM      7  C   UNL     1       1.426   0.809  -3.942  0.00  0.00    -0.010 C 
ATOM      8  C   UNL     1       2.075  -0.312  -4.066  0.00  0.00    +0.087 C 
ATOM      9  N   UNL     1       2.053  -0.764  -5.377  0.00  0.00    -0.283 N 
ATOM     10  N   UNL     1       1.385   0.136  -6.206  0.00  0.00    -0.201 NA
ATOM     11  H   UNL     1       1.094   2.790  -6.535  0.00  0.00    +0.151 HD
ATOM     12  H   UNL     1       2.446  -1.598  -5.678  0.00  0.00    +0.166 HD
ENDROOT
BRANCH   1  18
ATOM     13  C   UNL     1      -0.013   1.086   0.008  0.00  0.00    +0.065 C 
ATOM     14  C   UNL     1      -0.742   1.585  -1.213  0.00  0.00    +0.034 A 
ATOM     15  N   UNL     1      -2.083   1.840  -1.315  0.00  0.00    -0.350 N 
ATOM     16  C   UNL     1      -2.313   2.269  -2.575  0.00  0.00    +0.171 A 
ATOM     17  N   UNL     1      -1.181   2.282  -3.225  0.00  0.00    -0.349 N 
ATOM     18  C   UNL     1      -0.198   1.872  -2.411  0.00  0.00    +0.044 A 
ATOM     19  H   UNL     1      -2.744   1.732  -0.614  0.00  0.00    +0.166 HD
ATOM     20  H   UNL     1      -1.069   2.550  -4.151  0.00  0.00    +0.166 HD
ENDBRANCH   1  18
BRANCH  10  21
ATOM     21  C   UNL     1       2.310   0.781  -7.147  0.00  0.00    +0.146 C 
BRANCH  21  22
ATOM     22  C   UNL     1       2.802  -0.235  -8.145  0.00  0.00    +0.014 A 
ATOM     23  C   UNL     1       4.045  -0.818  -7.980  0.00  0.00    +0.012 A 
ATOM     24  C   UNL     1       4.502  -1.750  -8.892  0.00  0.00    +0.050 A 
ATOM     25  C   UNL     1       3.714  -2.106  -9.976  0.00  0.00    +0.165 A 
ATOM     26  C   UNL     1       2.464  -1.523 -10.145  0.00  0.00    +0.204 A 
ATOM     27  C   UNL     1       2.006  -0.590  -9.223  0.00  0.00    +0.170 A 
BRANCH  27  28
ATOM     28  O   UNL     1       0.781  -0.020  -9.381  0.00  0.00    -0.491 OA
ATOM     29  C   UNL     1       0.720   1.184 -10.149  0.00  0.00    +0.277 C 
ENDBRANCH  27  28
BRANCH  26  30
ATOM     30  O   UNL     1       1.688  -1.870 -11.208  0.00  0.00    -0.488 OA
ATOM     31  C   UNL     1       0.790  -2.967 -11.026  0.00  0.00    +0.277 C 
ENDBRANCH  26  30
BRANCH  25  32
ATOM     32  O   UNL     1       4.165  -3.023 -10.874  0.00  0.00    -0.491 OA
ATOM     33  C   UNL     1       5.459  -3.581 -10.637  0.00  0.00    +0.277 C 
ENDBRANCH  25  32
ENDBRANCH  21  22
ENDBRANCH  10  21
TORSDOF 6
