REMARK  Name = ZINC64836884
REMARK  7 active torsions:
REMARK  status: ('A' for Active; 'I' for Inactive)
REMARK    1  A    between atoms: C_1  and  C_2
REMARK    2  A    between atoms: C_12  and  C_19
REMARK    3  A    between atoms: N_21  and  C_22
REMARK    4  A    between atoms: C_22  and  C_23
REMARK    5  A    between atoms: C_23  and  N_24
REMARK    6  A    between atoms: N_24  and  C_25
REMARK    7  A    between atoms: N_24  and  C_26
REMARK                            x       y       z     vdW  Elec       q    Type
REMARK                         _______ _______ _______ _____ _____    ______ ____
ROOT
ATOM      1  C   UNL     1      -0.019   1.526   0.010  0.00  0.00    +0.009 C 
ATOM      2  C   UNL     1       0.002  -0.004   0.002  0.00  0.00    +0.003 C 
ATOM      3  C   UNL     1      -1.433  -0.534   0.015  0.00  0.00    +0.006 C 
ATOM      4  C   UNL     1      -1.414  -2.064  -0.027  0.00  0.00    +0.019 C 
ATOM      5  C   UNL     1      -0.692  -2.596   1.215  0.00  0.00    +0.107 C 
ATOM      6  N   UNL     1       0.639  -1.977   1.288  0.00  0.00    -0.308 N 
ATOM      7  C   UNL     1       0.742  -0.512   1.244  0.00  0.00    +0.110 C 
ATOM      8  C   UNL     1       1.774  -2.759   1.398  0.00  0.00    +0.184 A 
ATOM      9  N   UNL     1       1.874  -4.062   1.446  0.00  0.00    -0.141 NA
ATOM     10  N   UNL     1       3.111  -4.692   1.557  0.00  0.00    -0.201 N 
ATOM     11  C   UNL     1       3.350  -6.060   1.618  0.00  0.00    +0.135 A 
ATOM     12  C   UNL     1       4.618  -6.528   1.727  0.00  0.00    +0.105 A 
ATOM     13  C   UNL     1       5.702  -5.612   1.779  0.00  0.00    +0.275 A 
ATOM     14  O   UNL     1       6.854  -6.012   1.877  0.00  0.00    -0.266 OA
ATOM     15  N   UNL     1       5.436  -4.303   1.718  0.00  0.00    -0.183 NA
ATOM     16  C   UNL     1       4.204  -3.874   1.613  0.00  0.00    +0.201 A 
ATOM     17  S   UNL     1       3.483  -2.251   1.502  0.00  0.00    -0.013 S 
ENDROOT
BRANCH  11  18
ATOM     18  C   UNL     1       2.216  -7.009   1.564  0.00  0.00    +0.263 C 
ATOM     19  O   UNL     1       1.079  -6.593   1.467  0.00  0.00    -0.269 OA
ATOM     20  N   UNL     1       2.445  -8.336   1.623  0.00  0.00    -0.312 N 
ATOM     21  H   UNL     1       3.353  -8.669   1.701  0.00  0.00    +0.149 HD
BRANCH  20  22
ATOM     22  C   UNL     1       1.323  -9.276   1.569  0.00  0.00    +0.086 C 
BRANCH  22  23
ATOM     23  C   UNL     1       1.853 -10.709   1.654  0.00  0.00    -0.060 C 
BRANCH  23  24
ATOM     24  N   UNL     1       0.727 -11.651   1.600  0.00  0.00    +0.381 N 
ATOM     25  C   UNL     1       0.071 -11.556   0.289  0.00  0.00    -0.096 C 
ATOM     26  H   UNL     1       0.064 -11.424   2.326  0.00  0.00    -0.082 HD
BRANCH  24  27
ATOM     27  C   UNL     1       1.224 -13.019   1.801  0.00  0.00    -0.069 C 
ATOM     28  C   UNL     1       1.907 -13.118   3.167  0.00  0.00    -0.015 C 
ATOM     29  C   UNL     1       2.424 -14.543   3.376  0.00  0.00    -0.002 C 
ATOM     30  C   UNL     1       1.252 -15.524   3.320  0.00  0.00    -0.000 C 
ATOM     31  C   UNL     1       0.569 -15.425   1.955  0.00  0.00    -0.002 C 
ATOM     32  C   UNL     1       0.051 -14.001   1.745  0.00  0.00    -0.015 C 
ENDBRANCH  24  27
ENDBRANCH  23  24
ENDBRANCH  22  23
ENDBRANCH  20  22
ENDBRANCH  11  18
TORSDOF 5
