REMARK  Name = ZINC16852543
REMARK  5 active torsions:
REMARK  status: ('A' for Active; 'I' for Inactive)
REMARK    1  A    between atoms: C_1  and  C_2
REMARK    2  A    between atoms: C_5  and  C_12
REMARK    3  A    between atoms: C_7  and  C_11
REMARK    4  A    between atoms: C_13  and  C_14
REMARK    5  A    between atoms: C_19  and  O_20
REMARK                            x       y       z     vdW  Elec       q    Type
REMARK                         _______ _______ _______ _____ _____    ______ ____
ROOT
ATOM      1  C   UNL     1      -0.965  -3.589  -0.006  0.00  0.00    +0.086 C 
ATOM      2  C   UNL     1      -0.332  -2.221  -0.006  0.00  0.00    +0.105 A 
ATOM      3  C   UNL     1      -1.008  -1.061   0.006  0.00  0.00    +0.056 A 
ATOM      4  C   UNL     1       0.002  -0.004   0.002  0.00  0.00    +0.065 A 
ATOM      5  C   UNL     1      -0.017   1.403   0.010  0.00  0.00    +0.078 A 
ATOM      6  N   UNL     1       1.153   2.049   0.002  0.00  0.00    -0.232 NA
ATOM      7  C   UNL     1       2.292   1.386  -0.013  0.00  0.00    +0.130 A 
ATOM      8  N   UNL     1       2.352   0.070  -0.020  0.00  0.00    -0.197 NA
ATOM      9  C   UNL     1       1.244  -0.664  -0.013  0.00  0.00    +0.231 A 
ATOM     10  O   UNL     1       0.992  -1.984  -0.018  0.00  0.00    -0.442 OA
ATOM     11  C   UNL     1       3.580   2.166  -0.022  0.00  0.00    +0.088 C 
ENDROOT
BRANCH   5  12
ATOM     12  C   UNL     1      -1.287   2.141   0.020  0.00  0.00    +0.029 C 
ATOM     13  C   UNL     1      -1.283   3.487   0.027  0.00  0.00    +0.013 C 
BRANCH  13  14
ATOM     14  C   UNL     1      -2.555   4.226   0.037  0.00  0.00    +0.016 A 
ATOM     15  C   UNL     1      -3.771   3.534   0.039  0.00  0.00    +0.011 A 
ATOM     16  C   UNL     1      -4.959   4.233   0.049  0.00  0.00    +0.001 A 
ATOM     17  C   UNL     1      -4.954   5.618   0.056  0.00  0.00    +0.004 A 
ATOM     18  C   UNL     1      -3.761   6.314   0.054  0.00  0.00    +0.046 A 
ATOM     19  C   UNL     1      -2.557   5.629   0.051  0.00  0.00    +0.124 A 
BRANCH  19  20
ATOM     20  O   UNL     1      -1.383   6.312   0.055  0.00  0.00    -0.506 OA
ATOM     21  H   UNL     1      -1.045   6.518  -0.827  0.00  0.00    +0.292 HD
ENDBRANCH  19  20
ENDBRANCH  13  14
ENDBRANCH   5  12
TORSDOF 3
