REMARK  Name = ZINC67593490
REMARK  8 active torsions:
REMARK  status: ('A' for Active; 'I' for Inactive)
REMARK    1  A    between atoms: C_1  and  C_2
REMARK    2  A    between atoms: N_5  and  C_8
REMARK    3  A    between atoms: C_8  and  C_10
REMARK    4  A    between atoms: C_8  and  C_11
REMARK    5  A    between atoms: C_11  and  N_12
REMARK    6  A    between atoms: C_13  and  C_15
REMARK    7  A    between atoms: C_17  and  S_22
REMARK    8  A    between atoms: S_22  and  N_25
REMARK                            x       y       z     vdW  Elec       q    Type
REMARK                         _______ _______ _______ _____ _____    ______ ____
ROOT
ATOM      1  N   UNL     1       1.401  -3.769   2.567  0.00  0.00    -0.313 N 
ATOM      2  C   UNL     1       2.344  -4.097   3.472  0.00  0.00    +0.245 C 
ATOM      3  O   UNL     1       2.100  -4.918   4.334  0.00  0.00    -0.270 OA
ATOM      4  H   UNL     1       1.597  -3.113   1.879  0.00  0.00    +0.149 HD
ENDROOT
BRANCH   2   5
ATOM      5  C   UNL     1       3.675  -3.457   3.418  0.00  0.00    +0.057 A 
ATOM      6  C   UNL     1       3.958  -2.509   2.433  0.00  0.00    +0.043 A 
ATOM      7  C   UNL     1       5.202  -1.916   2.388  0.00  0.00    +0.106 A 
ATOM      8  C   UNL     1       6.171  -2.258   3.315  0.00  0.00    +0.030 A 
ATOM      9  C   UNL     1       5.899  -3.197   4.293  0.00  0.00    +0.022 A 
ATOM     10  C   UNL     1       4.655  -3.795   4.354  0.00  0.00    +0.053 A 
ATOM     11 CL   UNL     1       4.312  -4.968   5.588  0.00  0.00    -0.083 Cl
BRANCH   7  12
ATOM     12  S   UNL     1       5.560  -0.719   1.145  0.00  0.00    +0.056 S 
ATOM     13  O   UNL     1       6.972  -0.711   0.983  0.00  0.00    -0.153 OA
ATOM     14  O   UNL     1       4.670  -0.974   0.067  0.00  0.00    -0.153 OA
BRANCH  12  15
ATOM     15  N   UNL     1       5.146   0.763   1.759  0.00  0.00    -0.204 NA
ATOM     16  H   UNL     1       5.624   1.557   1.473  0.00  0.00    +0.144 HD
ATOM     17  H   UNL     1       4.426   0.837   2.405  0.00  0.00    +0.144 HD
ENDBRANCH  12  15
ENDBRANCH   7  12
ENDBRANCH   2   5
BRANCH   1  18
ATOM     18  C   UNL     1       0.082  -4.402   2.621  0.00  0.00    +0.089 C 
BRANCH  18  19
ATOM     19  C   UNL     1      -0.753  -3.945   1.423  0.00  0.00    -0.054 C 
ATOM     20  C   UNL     1      -2.159  -4.540   1.525  0.00  0.00    -0.012 C 
BRANCH  19  25
ATOM     21  C   UNL     1      -2.251   1.558   1.371  0.00  0.00    +0.007 C 
ATOM     22  C   UNL     1      -2.293   0.028   1.371  0.00  0.00    -0.018 C 
ATOM     23  C   UNL     1      -1.621  -0.503   2.641  0.00  0.00    -0.016 C 
ATOM     24  C   UNL     1      -1.596  -2.032   2.597  0.00  0.00    -0.078 C 
ATOM     25  N   UNL     1      -0.842  -2.478   1.420  0.00  0.00    +0.382 N 
ATOM     26  C   UNL     1      -1.519  -2.034   0.196  0.00  0.00    -0.078 C 
ATOM     27  C   UNL     1      -1.542  -0.504   0.148  0.00  0.00    -0.016 C 
ATOM     28  H   UNL     1       0.088  -2.088   1.449  0.00  0.00    -0.081 HD
ENDBRANCH  19  25
ENDBRANCH  18  19
ENDBRANCH   1  18
TORSDOF 6
