REMARK  Name = ZINC08595354
REMARK  7 active torsions:
REMARK  status: ('A' for Active; 'I' for Inactive)
REMARK    1  A    between atoms: C_1  and  C_2
REMARK    2  A    between atoms: C_5  and  N_9
REMARK    3  A    between atoms: C_7  and  C_8
REMARK    4  A    between atoms: N_21  and  C_24
REMARK    5  A    between atoms: C_24  and  C_25
REMARK    6  A    between atoms: N_27  and  C_28
REMARK    7  A    between atoms: C_28  and  C_29
REMARK                            x       y       z     vdW  Elec       q    Type
REMARK                         _______ _______ _______ _____ _____    ______ ____
ROOT
ATOM      1  N   UNL     1       0.059  -4.170  -0.021  0.00  0.00    -0.243 N 
ATOM      2  C   UNL     1       0.168  -4.853   1.118  0.00  0.00    +0.231 C 
ATOM      3  O   UNL     1       0.244  -4.285   2.187  0.00  0.00    -0.274 OA
ATOM      4  C   UNL     1       0.193  -6.372   1.026  0.00  0.00    +0.168 C 
ATOM      5  S   UNL     1      -0.402  -6.613  -0.706  0.00  0.00    -0.111 S 
ATOM      6  C   UNL     1      -0.048  -4.907  -1.276  0.00  0.00    +0.192 C 
ATOM      7  C   UNL     1      -1.135  -4.404  -2.174  0.00  0.00    +0.017 A 
ATOM      8  C   UNL     1      -2.487  -4.200  -2.015  0.00  0.00    +0.009 A 
ATOM      9  C   UNL     1      -3.243  -3.711  -3.066  0.00  0.00    +0.000 A 
ATOM     10  C   UNL     1      -2.637  -3.427  -4.276  0.00  0.00    +0.002 A 
ATOM     11  C   UNL     1      -1.283  -3.629  -4.440  0.00  0.00    +0.024 A 
ATOM     12  C   UNL     1      -0.514  -4.121  -3.389  0.00  0.00    +0.043 A 
ATOM     13  N   UNL     1       0.853  -4.403  -3.311  0.00  0.00    -0.259 N 
ATOM     14  C   UNL     1       1.206  -4.870  -2.096  0.00  0.00    +0.259 C 
ATOM     15  O   UNL     1       2.318  -5.196  -1.738  0.00  0.00    -0.272 OA
ENDROOT
BRANCH   1  20
ATOM     16  C   UNL     1      -0.017   1.503   0.009  0.00  0.00    +0.044 C 
ATOM     17  C   UNL     1       0.003  -0.004   0.001  0.00  0.00    -0.047 A 
ATOM     18  C   UNL     1       1.192  -0.677  -0.217  0.00  0.00    +0.005 A 
ATOM     19  C   UNL     1       1.213  -2.058  -0.225  0.00  0.00    +0.024 A 
ATOM     20  C   UNL     1       0.040  -2.771  -0.013  0.00  0.00    +0.039 A 
ATOM     21  C   UNL     1      -1.151  -2.092   0.206  0.00  0.00    +0.027 A 
ATOM     22  C   UNL     1      -1.165  -0.711   0.217  0.00  0.00    -0.046 A 
ATOM     23  C   UNL     1      -2.457   0.027   0.460  0.00  0.00    +0.044 C 
ENDBRANCH   1  20
BRANCH  13  24
ATOM     24  C   UNL     1       1.791  -4.213  -4.419  0.00  0.00    +0.209 C 
BRANCH  24  25
ATOM     25  C   UNL     1       2.362  -2.820  -4.361  0.00  0.00    +0.231 C 
ATOM     26  O   UNL     1       2.019  -2.060  -3.481  0.00  0.00    -0.274 OA
ATOM     27  N   UNL     1       3.255  -2.418  -5.288  0.00  0.00    -0.310 N 
ATOM     28  H   UNL     1       3.529  -3.026  -5.992  0.00  0.00    +0.149 HD
BRANCH  27  29
ATOM     29  C   UNL     1       3.810  -1.064  -5.232  0.00  0.00    +0.139 C 
BRANCH  29  30
ATOM     30  C   UNL     1       4.775  -0.869  -6.372  0.00  0.00    -0.030 A 
ATOM     31  C   UNL     1       6.112  -1.180  -6.207  0.00  0.00    +0.005 A 
ATOM     32  C   UNL     1       6.998  -1.001  -7.253  0.00  0.00    +0.000 A 
ATOM     33  C   UNL     1       6.547  -0.512  -8.465  0.00  0.00    +0.000 A 
ATOM     34  C   UNL     1       5.210  -0.201  -8.630  0.00  0.00    +0.000 A 
ATOM     35  C   UNL     1       4.324  -0.384  -7.586  0.00  0.00    +0.005 A 
ENDBRANCH  29  30
ENDBRANCH  27  29
ENDBRANCH  24  25
ENDBRANCH  13  24
TORSDOF 5
