REMARK  Name = ZINC23312284
REMARK  8 active torsions:
REMARK  status: ('A' for Active; 'I' for Inactive)
REMARK    1  A    between atoms: C_1  and  N_2
REMARK    2  A    between atoms: N_2  and  C_3
REMARK    3  A    between atoms: N_2  and  C_19
REMARK    4  A    between atoms: C_3  and  C_4
REMARK    5  A    between atoms: C_8  and  C_10
REMARK    6  A    between atoms: C_15  and  C_17
REMARK    7  A    between atoms: C_17  and  N_18
REMARK    8  A    between atoms: C_19  and  C_20
REMARK                            x       y       z     vdW  Elec       q    Type
REMARK                         _______ _______ _______ _____ _____    ______ ____
ROOT
ATOM      1  C   UNL     1      -2.067  -0.116  -1.267  0.00  0.00    -0.063 A 
ATOM      2  C   UNL     1      -2.751   1.085  -1.338  0.00  0.00    +0.002 A 
ATOM      3  C   UNL     1      -3.389   1.456  -2.509  0.00  0.00    +0.001 A 
ATOM      4  C   UNL     1      -3.347   0.630  -3.613  0.00  0.00    +0.011 A 
ATOM      5  C   UNL     1      -2.659  -0.583  -3.547  0.00  0.00    +0.018 A 
ATOM      6  C   UNL     1      -2.013  -0.949  -2.365  0.00  0.00    +0.013 A 
ENDROOT
BRANCH   5   7
ATOM      7  C   UNL     1      -2.611  -1.474  -4.726  0.00  0.00    +0.142 A 
ATOM      8  N   UNL     1      -1.963  -2.616  -4.646  0.00  0.00    -0.191 NA
ATOM      9  C   UNL     1      -1.903  -3.444  -5.701  0.00  0.00    +0.274 A 
ATOM     10  O   UNL     1      -1.300  -4.503  -5.618  0.00  0.00    -0.266 OA
ATOM     11  C   UNL     1      -2.546  -3.082  -6.911  0.00  0.00    +0.094 A 
ATOM     12  C   UNL     1      -3.207  -1.904  -6.972  0.00  0.00    +0.036 A 
ATOM     13  N   UNL     1      -3.242  -1.100  -5.872  0.00  0.00    -0.342 N 
ATOM     14  H   UNL     1      -3.717  -0.255  -5.907  0.00  0.00    +0.167 HD
BRANCH  12  15
ATOM     15  C   UNL     1      -3.901  -1.486  -8.243  0.00  0.00    +0.131 C 
BRANCH  15  16
ATOM     16  N   UNL     1      -5.350  -1.422  -8.011  0.00  0.00    -0.325 NA
ATOM     17  H   UNL     1      -5.567  -0.804  -7.244  0.00  0.00    +0.119 HD
ATOM     18  H   UNL     1      -5.839  -1.144  -8.849  0.00  0.00    +0.119 HD
ENDBRANCH  15  16
ENDBRANCH  12  15
ENDBRANCH   5   7
BRANCH   1  19
ATOM     19  C   UNL     1      -1.376  -0.512   0.012  0.00  0.00    -0.043 C 
BRANCH  19  21
ATOM     20  C   UNL     1      -0.018   1.465   0.010  0.00  0.00    -0.095 C 
ATOM     21  N   UNL     1       0.002  -0.004   0.002  0.00  0.00    +0.383 N 
ATOM     22  H   UNL     1       0.474  -0.330  -0.828  0.00  0.00    -0.081 HD
BRANCH  21  23
ATOM     23  C   UNL     1       0.713  -0.491   1.192  0.00  0.00    -0.043 C 
BRANCH  23  24
ATOM     24  C   UNL     1       2.158  -0.072   1.120  0.00  0.00    -0.062 A 
ATOM     25  C   UNL     1       3.082  -0.913   0.499  0.00  0.00    +0.004 A 
ATOM     26  C   UNL     1       4.391  -0.582   0.408  0.00  0.00    +0.031 A 
ATOM     27  C   UNL     1       4.855   0.646   0.952  0.00  0.00    +0.100 A 
ATOM     28  C   UNL     1       3.890   1.526   1.602  0.00  0.00    +0.100 A 
ATOM     29  C   UNL     1       2.531   1.114   1.655  0.00  0.00    +0.032 A 
ATOM     30  N   UNL     1       4.437   2.647   2.074  0.00  0.00    -0.191 NA
ATOM     31  S   UNL     1       6.002   2.552   1.712  0.00  0.00    +0.116 S 
ATOM     32  N   UNL     1       6.096   1.135   0.957  0.00  0.00    -0.191 NA
ENDBRANCH  23  24
ENDBRANCH  21  23
ENDBRANCH  19  21
ENDBRANCH   1  19
TORSDOF 7
