REMARK  Name = ZINC15206297
REMARK  8 active torsions:
REMARK  status: ('A' for Active; 'I' for Inactive)
REMARK    1  A    between atoms: C_4  and  C_29
REMARK    2  A    between atoms: C_11  and  O_12
REMARK    3  A    between atoms: O_12  and  C_13
REMARK    4  A    between atoms: C_15  and  O_28
REMARK    5  A    between atoms: C_17  and  O_27
REMARK    6  A    between atoms: C_19  and  O_26
REMARK    7  A    between atoms: C_21  and  C_24
REMARK    8  A    between atoms: C_24  and  O_25
REMARK                            x       y       z     vdW  Elec       q    Type
REMARK                         _______ _______ _______ _____ _____    ______ ____
ROOT
ATOM      1  O   UNL     1      -2.296  -2.822   0.007  0.00  0.00    -0.461 OA
ENDROOT
BRANCH   1  12
ATOM      2  C   UNL     1       0.083  -2.785  -0.015  0.00  0.00    +0.046 A 
ATOM      3  C   UNL     1       1.256  -2.087  -0.021  0.00  0.00    +0.016 A 
ATOM      4  C   UNL     1       1.232  -0.688  -0.013  0.00  0.00    +0.029 A 
ATOM      5  C   UNL     1       2.475   0.087  -0.021  0.00  0.00    +0.072 A 
ATOM      6  C   UNL     1       2.386   1.443  -0.012  0.00  0.00    +0.105 A 
ATOM      7  C   UNL     1       1.119   2.062   0.002  0.00  0.00    +0.338 A 
ATOM      8  O   UNL     1       1.053   3.278   0.010  0.00  0.00    -0.245 OA
ATOM      9  O   UNL     1      -0.016   1.346   0.009  0.00  0.00    -0.422 OA
ATOM     10  C   UNL     1       0.002  -0.004   0.002  0.00  0.00    +0.143 A 
ATOM     11  C   UNL     1      -1.180  -0.729   0.009  0.00  0.00    +0.092 A 
ATOM     12  C   UNL     1      -1.138  -2.114   0.001  0.00  0.00    +0.128 A 
BRANCH   5  13
ATOM     13  C   UNL     1       3.816  -0.600  -0.038  0.00  0.00    +0.418 C 
ATOM     14  F   UNL     1       4.832   0.361  -0.042  0.00  0.00    -0.166 F 
ATOM     15  F   UNL     1       3.941  -1.407   1.099  0.00  0.00    -0.166 F 
ATOM     16  F   UNL     1       3.919  -1.393  -1.186  0.00  0.00    -0.166 F 
ENDBRANCH   5  13
ENDBRANCH   1  12
BRANCH   1  17
ATOM     17  C   UNL     1      -2.185  -4.247  -0.002  0.00  0.00    +0.339 C 
ATOM     18  C   UNL     1      -3.577  -4.869   0.131  0.00  0.00    +0.214 C 
ATOM     19  C   UNL     1      -3.456  -6.394   0.060  0.00  0.00    +0.180 C 
ATOM     20  C   UNL     1      -2.771  -6.780  -1.254  0.00  0.00    +0.177 C 
ATOM     21  C   UNL     1      -1.409  -6.084  -1.334  0.00  0.00    +0.179 C 
ATOM     22  O   UNL     1      -1.591  -4.671  -1.231  0.00  0.00    -0.331 OA
BRANCH  20  23
ATOM     23  O   UNL     1      -3.582  -6.369  -2.356  0.00  0.00    -0.386 OA
ATOM     24  H   UNL     1      -4.461  -6.771  -2.369  0.00  0.00    +0.210 HD
ENDBRANCH  20  23
BRANCH  19  25
ATOM     25  O   UNL     1      -2.676  -6.863   1.162  0.00  0.00    -0.386 OA
ATOM     26  H   UNL     1      -3.053  -6.653   2.028  0.00  0.00    +0.210 HD
ENDBRANCH  19  25
BRANCH  18  27
ATOM     27  O   UNL     1      -4.150  -4.493   1.385  0.00  0.00    -0.383 OA
ATOM     28  H   UNL     1      -4.252  -3.538   1.501  0.00  0.00    +0.210 HD
ENDBRANCH  18  27
BRANCH  21  29
ATOM     29  C   UNL     1      -0.744  -6.417  -2.671  0.00  0.00    +0.190 C 
BRANCH  29  30
ATOM     30  O   UNL     1       0.574  -5.864  -2.698  0.00  0.00    -0.392 OA
ATOM     31  H   UNL     1       1.056  -6.036  -3.519  0.00  0.00    +0.210 HD
ENDBRANCH  29  30
ENDBRANCH  21  29
ENDBRANCH   1  17
TORSDOF 8
