REMARK  Name = ZINC09012277
REMARK  4 active torsions:
REMARK  status: ('A' for Active; 'I' for Inactive)
REMARK    1  A    between atoms: C_4  and  C_7
REMARK    2  A    between atoms: C_7  and  O_8
REMARK    3  A    between atoms: O_8  and  C_9
REMARK    4  A    between atoms: C_12  and  C_15
REMARK                            x       y       z     vdW  Elec       q    Type
REMARK                         _______ _______ _______ _____ _____    ______ ____
ROOT
ATOM      1  C   UNL     1       9.022  -3.675   1.977  0.00  0.00    +0.209 C 
ATOM      2  N   UNL     1       9.766  -3.105   3.114  0.00  0.00    -0.294 N 
ATOM      3  C   UNL     1       9.462  -3.493   4.392  0.00  0.00    +0.160 C 
ATOM      4  N   UNL     1       8.992  -4.701   4.650  0.00  0.00    -0.302 N 
ATOM      5  C   UNL     1       8.755  -5.536   3.613  0.00  0.00    +0.213 A 
ATOM      6  N   UNL     1       8.769  -5.085   2.301  0.00  0.00    -0.287 N 
ATOM      7  C   UNL     1       8.514  -6.153   1.494  0.00  0.00    +0.072 A 
ATOM      8  C   UNL     1       8.426  -6.299   0.115  0.00  0.00    +0.028 A 
ATOM      9  C   UNL     1       8.144  -7.566  -0.370  0.00  0.00    +0.002 A 
ATOM     10  C   UNL     1       7.955  -8.649   0.470  0.00  0.00    +0.002 A 
ATOM     11  C   UNL     1       8.038  -8.532   1.846  0.00  0.00    +0.030 A 
ATOM     12  C   UNL     1       8.323  -7.261   2.360  0.00  0.00    +0.091 A 
ATOM     13  N   UNL     1       8.473  -6.817   3.630  0.00  0.00    -0.212 NA
ATOM     14  N   UNL     1       9.649  -2.612   5.423  0.00  0.00    -0.332 N 
ATOM     15  H   UNL     1       9.994  -1.723   5.244  0.00  0.00    +0.145 HD
ATOM     16  H   UNL     1       9.437  -2.876   6.331  0.00  0.00    +0.145 HD
ATOM     17  H   UNL     1      10.470  -2.456   2.958  0.00  0.00    +0.151 HD
ATOM     18  H   UNL     1       8.820  -4.982   5.563  0.00  0.00    +0.171 HD
ENDROOT
BRANCH   1  22
ATOM     19  C   UNL     1       5.319  -1.605   1.466  0.00  0.00    +0.121 A 
ATOM     20  C   UNL     1       6.048  -2.007   0.357  0.00  0.00    +0.046 A 
ATOM     21  C   UNL     1       7.245  -2.676   0.525  0.00  0.00    +0.011 A 
ATOM     22  C   UNL     1       7.716  -2.945   1.797  0.00  0.00    -0.007 A 
ATOM     23  C   UNL     1       6.990  -2.545   2.904  0.00  0.00    +0.011 A 
ATOM     24  C   UNL     1       5.796  -1.871   2.742  0.00  0.00    +0.046 A 
BRANCH  19  25
ATOM     25  O   UNL     1       4.141  -0.946   1.304  0.00  0.00    -0.487 OA
BRANCH  25  26
ATOM     26  C   UNL     1       3.711  -0.707  -0.038  0.00  0.00    +0.264 C 
BRANCH  26  30
ATOM     27  C   UNL     1      -0.017   1.378   0.010  0.00  0.00    +0.000 A 
ATOM     28  C   UNL     1       1.171   2.086   0.002  0.00  0.00    +0.000 A 
ATOM     29  C   UNL     1       2.377   1.411  -0.013  0.00  0.00    +0.007 A 
ATOM     30  C   UNL     1       2.396   0.029  -0.020  0.00  0.00    -0.010 A 
ATOM     31  C   UNL     1       1.208  -0.679  -0.012  0.00  0.00    +0.007 A 
ATOM     32  C   UNL     1       0.002  -0.004   0.002  0.00  0.00    +0.000 A 
ENDBRANCH  26  30
ENDBRANCH  25  26
ENDBRANCH  19  25
ENDBRANCH   1  22
TORSDOF 4
