REMARK  Name = ZINC37556115
REMARK  5 active torsions:
REMARK  status: ('A' for Active; 'I' for Inactive)
REMARK    1  A    between atoms: C_6  and  N_7
REMARK    2  A    between atoms: N_7  and  S_8
REMARK    3  A    between atoms: S_8  and  C_11
REMARK    4  A    between atoms: C_12  and  N_19
REMARK    5  A    between atoms: N_19  and  N_20
REMARK                            x       y       z     vdW  Elec       q    Type
REMARK                         _______ _______ _______ _____ _____    ______ ____
ROOT
ATOM      1  C   UNL     1      -0.129  -3.227  -0.377  0.00  0.00    +0.225 A 
ATOM      2  C   UNL     1       1.190  -3.273  -0.655  0.00  0.00    +0.179 A 
ATOM      3  N   UNL     1       1.722  -4.319  -0.001  0.00  0.00    -0.203 NA
ATOM      4  C   UNL     1       0.783  -4.922   0.671  0.00  0.00    +0.181 A 
ATOM      5  N   UNL     1      -0.415  -4.286   0.489  0.00  0.00    -0.276 N 
ATOM      6  C   UNL     1      -1.507  -4.809   1.147  0.00  0.00    +0.102 A 
ATOM      7  C   UNL     1      -1.384  -5.884   1.924  0.00  0.00    +0.067 A 
ATOM      8  S   UNL     1       0.356  -6.256   1.767  0.00  0.00    -0.058 S 
ENDROOT
BRANCH   1   9
ATOM      9  S   UNL     1      -1.281  -2.041  -0.987  0.00  0.00    +0.092 S 
ATOM     10  O   UNL     1      -2.576  -2.586  -0.775  0.00  0.00    -0.148 OA
ATOM     11  O   UNL     1      -0.819  -1.651  -2.273  0.00  0.00    -0.148 OA
BRANCH   9  12
ATOM     12  N   UNL     1      -1.166  -0.703  -0.017  0.00  0.00    -0.215 N 
ATOM     13  H   UNL     1      -0.890   0.147  -0.394  0.00  0.00    +0.174 HD
BRANCH  12  19
ATOM     14  C   UNL     1      -0.618  -0.232   2.286  0.00  0.00    +0.027 A 
ATOM     15  C   UNL     1      -0.917  -0.327   3.631  0.00  0.00    +0.040 A 
ATOM     16  C   UNL     1      -2.063  -0.988   4.041  0.00  0.00    +0.124 A 
ATOM     17  C   UNL     1      -2.911  -1.554   3.105  0.00  0.00    +0.040 A 
ATOM     18  C   UNL     1      -2.615  -1.461   1.759  0.00  0.00    +0.027 A 
ATOM     19  C   UNL     1      -1.467  -0.799   1.345  0.00  0.00    +0.048 A 
ATOM     20  F   UNL     1      -2.354  -1.080   5.357  0.00  0.00    -0.205 F 
ENDBRANCH  12  19
ENDBRANCH   9  12
ENDBRANCH   1   9
BRANCH   2  21
ATOM     21  N   UNL     1       1.887  -2.381  -1.485  0.00  0.00    -0.265 N 
ATOM     22  H   UNL     1       1.415  -1.652  -1.917  0.00  0.00    +0.168 HD
BRANCH  21  23
ATOM     23  N   UNL     1       3.229  -2.541  -1.685  0.00  0.00    -0.255 NA
ATOM     24  H   UNL     1       3.434  -3.464  -2.038  0.00  0.00    +0.140 HD
ATOM     25  H   UNL     1       3.590  -1.829  -2.302  0.00  0.00    +0.140 HD
ENDBRANCH  21  23
ENDBRANCH   2  21
TORSDOF 5
