REMARK  Name = ZINC18196242
REMARK  2 active torsions:
REMARK  status: ('A' for Active; 'I' for Inactive)
REMARK    1  A    between atoms: C_3  and  C_6
REMARK    2  A    between atoms: C_11  and  C_20
REMARK                            x       y       z     vdW  Elec       q    Type
REMARK                         _______ _______ _______ _____ _____    ______ ____
ROOT
ATOM      1  C   UNL     1       3.791  -0.395  -0.036  0.00  0.00    +0.039 C 
ATOM      2  C   UNL     1       4.518   0.122   1.208  0.00  0.00    +0.060 C 
ATOM      3  C   UNL     1       5.963  -0.314   1.169  0.00  0.00    +0.020 C 
ATOM      4  C   UNL     1       6.608  -0.476  -0.006  0.00  0.00    +0.041 C 
ATOM      5  C   UNL     1       8.055  -0.912  -0.075  0.00  0.00    +0.175 C 
ATOM      6  N   UNL     1       8.676  -0.794   1.238  0.00  0.00    -0.219 N 
ATOM      7  C   UNL     1       7.971  -0.620   2.383  0.00  0.00    +0.220 A 
ATOM      8  N   UNL     1       8.817  -0.561   3.375  0.00  0.00    -0.180 NA
ATOM      9  C   UNL     1      10.066  -0.687   2.906  0.00  0.00    +0.233 A 
ATOM     10  N   UNL     1      10.021  -0.831   1.600  0.00  0.00    -0.132 NA
ATOM     11  N   UNL     1      11.228  -0.668   3.680  0.00  0.00    -0.326 N 
ATOM     12  N   UNL     1       6.589  -0.529   2.374  0.00  0.00    -0.287 N 
ATOM     13  C   UNL     1       5.950  -0.247  -1.228  0.00  0.00    +0.164 C 
ATOM     14  O   UNL     1       6.564  -0.381  -2.268  0.00  0.00    -0.292 OA
ATOM     15  C   UNL     1       4.503   0.158  -1.275  0.00  0.00    +0.088 C 
ATOM     16  H   UNL     1      12.095  -0.767   3.256  0.00  0.00    +0.145 HD
ATOM     17  H   UNL     1      11.168  -0.557   4.642  0.00  0.00    +0.145 HD
ATOM     18  H   UNL     1       6.077  -0.614   3.194  0.00  0.00    +0.155 HD
ENDROOT
BRANCH   5  19
ATOM     19  C   UNL     1       8.124  -2.346  -0.534  0.00  0.00    -0.018 A 
ATOM     20  C   UNL     1       7.515  -3.339   0.210  0.00  0.00    +0.007 A 
ATOM     21  C   UNL     1       7.572  -4.654  -0.212  0.00  0.00    +0.020 A 
ATOM     22  C   UNL     1       8.250  -4.978  -1.374  0.00  0.00    +0.041 A 
ATOM     23  C   UNL     1       8.864  -3.984  -2.116  0.00  0.00    +0.020 A 
ATOM     24  C   UNL     1       8.801  -2.669  -1.695  0.00  0.00    +0.007 A 
ATOM     25 CL   UNL     1       8.329  -6.630  -1.902  0.00  0.00    -0.084 Cl
ENDBRANCH   5  19
BRANCH   1  28
ATOM     26  C   UNL     1       0.002  -0.004   0.002  0.00  0.00    +0.008 A 
ATOM     27  C   UNL     1       1.220  -0.658  -0.013  0.00  0.00    +0.011 A 
ATOM     28  C   UNL     1       2.360   0.076  -0.020  0.00  0.00    -0.006 A 
ATOM     29  S   UNL     1       1.725   1.744  -0.005  0.00  0.00    -0.101 S 
ATOM     30  C   UNL     1      -0.016   1.351   0.009  0.00  0.00    +0.045 A 
ENDBRANCH   1  28
TORSDOF 2
