REMARK  Name = ZINC20752204
REMARK  8 active torsions:
REMARK  status: ('A' for Active; 'I' for Inactive)
REMARK    1  A    between atoms: C_1  and  C_2
REMARK    2  A    between atoms: C_2  and  C_3
REMARK    3  A    between atoms: C_3  and  C_5
REMARK    4  A    between atoms: C_3  and  N_6
REMARK    5  A    between atoms: N_6  and  S_7
REMARK    6  A    between atoms: S_7  and  C_10
REMARK    7  A    between atoms: C_23  and  C_26
REMARK    8  A    between atoms: C_35  and  O_36
REMARK                            x       y       z     vdW  Elec       q    Type
REMARK                         _______ _______ _______ _____ _____    ______ ____
ROOT
ATOM      1  C   UNL     1      -2.914   0.760  -5.403  0.00  0.00    +0.106 A 
ATOM      2  C   UNL     1      -3.226   1.838  -4.595  0.00  0.00    +0.030 A 
ATOM      3  C   UNL     1      -2.349   2.224  -3.601  0.00  0.00    +0.025 A 
ATOM      4  C   UNL     1      -1.159   1.532  -3.416  0.00  0.00    +0.031 A 
ATOM      5  C   UNL     1      -0.843   0.449  -4.222  0.00  0.00    -0.018 A 
ATOM      6  C   UNL     1      -1.733   0.071  -5.219  0.00  0.00    +0.034 A 
ATOM      7  C   UNL     1       0.421  -0.332  -4.055  0.00  0.00    +0.049 C 
ATOM      8  C   UNL     1       1.419  -0.006  -5.141  0.00  0.00    -0.023 C 
ATOM      9  C   UNL     1       2.637  -0.016  -4.656  0.00  0.00    -0.030 C 
ATOM     10  C   UNL     1       2.617  -0.356  -3.178  0.00  0.00    +0.033 C 
ATOM     11  C   UNL     1       1.164  -0.000  -2.746  0.00  0.00    +0.029 C 
ATOM     12  C   UNL     1       1.122   1.509  -2.490  0.00  0.00    +0.109 C 
ATOM     13  N   UNL     1      -0.278   1.938  -2.407  0.00  0.00    -0.336 N 
ATOM     14  H   UNL     1      -0.613   2.562  -1.566  0.00  0.00    +0.147 HD
ENDROOT
BRANCH  12  15
ATOM     15  C   UNL     1       1.823   1.821  -1.194  0.00  0.00    +0.022 A 
ATOM     16  C   UNL     1       3.098   2.410  -1.204  0.00  0.00    -0.009 A 
ATOM     17  C   UNL     1       3.748   2.721  -2.411  0.00  0.00    +0.009 A 
ATOM     18  C   UNL     1       4.983   3.291  -2.384  0.00  0.00    +0.001 A 
ATOM     19  C   UNL     1       5.617   3.572  -1.175  0.00  0.00    +0.001 A 
ATOM     20  C   UNL     1       5.019   3.285   0.014  0.00  0.00    +0.008 A 
ATOM     21  C   UNL     1       3.743   2.696   0.026  0.00  0.00    -0.017 A 
ATOM     22  C   UNL     1       3.095   2.385   1.234  0.00  0.00    +0.012 A 
ATOM     23  C   UNL     1       1.858   1.820   1.210  0.00  0.00    +0.046 A 
ATOM     24  C   UNL     1       1.223   1.532  -0.001  0.00  0.00    +0.122 A 
BRANCH  24  25
ATOM     25  O   UNL     1      -0.011   0.963   0.007  0.00  0.00    -0.506 OA
ATOM     26  H   UNL     1      -0.501   0.727   0.963  0.00  0.00    +0.292 HD
ENDBRANCH  24  25
ENDBRANCH  12  15
BRANCH   1  27
ATOM     27  S   UNL     1      -4.029   0.265  -6.674  0.00  0.00    +0.059 S 
ATOM     28  O   UNL     1      -3.763  -1.106  -6.937  0.00  0.00    -0.153 OA
ATOM     29  O   UNL     1      -5.316   0.730  -6.289  0.00  0.00    -0.153 OA
BRANCH  27  30
ATOM     30  N   UNL     1      -3.615   1.099  -8.043  0.00  0.00    -0.187 NA
ATOM     31  H   UNL     1      -4.243   1.940  -8.370  0.00  0.00    +0.148 HD
BRANCH  30  32
ATOM     32  C   UNL     1      -2.317   0.862  -8.680  0.00  0.00    +0.073 C 
ATOM     33  C   UNL     1      -2.478  -0.170  -9.798  0.00  0.00    +0.025 C 
BRANCH  32  35
ATOM     34  C   UNL     1      -1.510   3.163  -8.136  0.00  0.00    +0.005 C 
ATOM     35  C   UNL     1      -1.790   2.173  -9.268  0.00  0.00    +0.017 C 
ENDBRANCH  32  35
ENDBRANCH  30  32
ENDBRANCH  27  30
ENDBRANCH   1  27
TORSDOF 6
