REMARK  Name = ZINC36403641
REMARK  11 active torsions:
REMARK  status: ('A' for Active; 'I' for Inactive)
REMARK    1  A    between atoms: C_1  and  C_2
REMARK    2  A    between atoms: C_2  and  C_3
REMARK    3  A    between atoms: C_3  and  O_5
REMARK    4  A    between atoms: O_5  and  C_6
REMARK    5  A    between atoms: C_6  and  C_7
REMARK    6  A    between atoms: C_7  and  C_9
REMARK    7  A    between atoms: C_9  and  O_36
REMARK    8  A    between atoms: C_10  and  C_35
REMARK    9  A    between atoms: C_15  and  C_34
REMARK   10  A    between atoms: C_17  and  O_33
REMARK   11  A    between atoms: C_30  and  C_31
REMARK                            x       y       z     vdW  Elec       q    Type
REMARK                         _______ _______ _______ _____ _____    ______ ____
ROOT
ATOM      1  C   UNL     1       3.790  -4.210   2.419  0.00  0.00    +0.135 C 
ATOM      2  C   UNL     1       2.694  -3.624   3.343  0.00  0.00    +0.026 C 
ATOM      3  C   UNL     1       2.056  -4.830   4.085  0.00  0.00    +0.011 C 
ATOM      4  C   UNL     1       3.164  -5.888   4.037  0.00  0.00    +0.005 C 
ATOM      5  C   UNL     1       3.693  -5.723   2.587  0.00  0.00    +0.010 C 
ATOM      6  C   UNL     1       4.993  -6.498   2.494  0.00  0.00    +0.044 C 
ATOM      7  C   UNL     1       4.651  -7.983   2.698  0.00  0.00    +0.154 C 
ATOM      8  C   UNL     1       3.949  -8.222   4.031  0.00  0.00    +0.153 C 
ATOM      9  C   UNL     1       2.711  -7.327   4.207  0.00  0.00    +0.034 C 
ATOM     10  C   UNL     1       2.113  -7.523   5.601  0.00  0.00    +0.011 C 
ATOM     11  C   UNL     1       1.623  -8.966   5.755  0.00  0.00    +0.032 C 
ATOM     12  C   UNL     1       2.781  -9.894   5.444  0.00  0.00    -0.053 C 
ATOM     13  C   UNL     1       3.092 -10.847   6.312  0.00  0.00    +0.051 C 
ATOM     14  C   UNL     1       4.222 -11.753   6.055  0.00  0.00    +0.179 C 
ATOM     15  O   UNL     1       4.487 -12.654   6.830  0.00  0.00    -0.288 OA
ATOM     16  C   UNL     1       5.026 -11.547   4.838  0.00  0.00    +0.047 C 
ATOM     17  C   UNL     1       4.693 -10.594   3.982  0.00  0.00    -0.009 C 
ATOM     18  C   UNL     1       3.520  -9.689   4.122  0.00  0.00    +0.044 C 
ATOM     19  C   UNL     1       2.562  -9.967   2.961  0.00  0.00    +0.023 C 
ATOM     20  F   UNL     1       4.835  -7.936   5.075  0.00  0.00    -0.238 F 
ATOM     21  C   UNL     1       2.675  -6.291   1.596  0.00  0.00    +0.015 C 
ATOM     22  C   UNL     1       3.318  -2.657   4.351  0.00  0.00    +0.011 C 
ENDROOT
BRANCH   1  23
ATOM     23  C   UNL     1       3.525  -3.826   0.986  0.00  0.00    +0.202 C 
ATOM     24  O   UNL     1       2.404  -3.548   0.633  0.00  0.00    -0.291 OA
BRANCH  23  25
ATOM     25  C   UNL     1       4.659  -3.789  -0.006  0.00  0.00    +0.309 C 
BRANCH  25  26
ATOM     26  O   UNL     1       4.159  -3.400  -1.287  0.00  0.00    -0.457 OA
BRANCH  26  27
ATOM     27  C   UNL     1       5.048  -3.318  -2.289  0.00  0.00    +0.307 C 
ATOM     28  O   UNL     1       6.212  -3.569  -2.086  0.00  0.00    -0.251 OA
BRANCH  27  30
ATOM     29  C   UNL     1       5.794  -2.899  -4.616  0.00  0.00    +0.015 C 
ATOM     30  C   UNL     1       4.593  -2.914  -3.668  0.00  0.00    +0.117 C 
ENDBRANCH  27  30
ENDBRANCH  26  27
ENDBRANCH  25  26
ENDBRANCH  23  25
ENDBRANCH   1  23
BRANCH   7  31
ATOM     31  O   UNL     1       3.796  -8.414   1.638  0.00  0.00    -0.389 OA
ATOM     32  H   UNL     1       4.185  -8.325   0.757  0.00  0.00    +0.210 HD
ENDBRANCH   7  31
BRANCH   1  33
ATOM     33  O   UNL     1       5.080  -3.749   2.824  0.00  0.00    -0.380 OA
ATOM     34  H   UNL     1       5.194  -2.791   2.758  0.00  0.00    +0.211 HD
ENDBRANCH   1  33
TORSDOF 7
