REMARK  Name = ZINC00704736
REMARK  8 active torsions:
REMARK  status: ('A' for Active; 'I' for Inactive)
REMARK    1  A    between atoms: C_1  and  C_2
REMARK    2  A    between atoms: C_5  and  O_9
REMARK    3  A    between atoms: O_9  and  C_10
REMARK    4  A    between atoms: C_10  and  C_11
REMARK    5  A    between atoms: N_13  and  N_14
REMARK    6  A    between atoms: C_15  and  C_16
REMARK    7  A    between atoms: C_15  and  C_17
REMARK    8  A    between atoms: C_21  and  N_23
REMARK                            x       y       z     vdW  Elec       q    Type
REMARK                         _______ _______ _______ _____ _____    ______ ____
ROOT
ATOM      1  C   UNL     1      -2.379   8.026   0.068  0.00  0.00    +0.270 C 
ATOM      2  O   UNL     1      -3.424   7.410   0.073  0.00  0.00    -0.270 OA
ATOM      3  N   UNL     1      -1.206   7.364   0.053  0.00  0.00    -0.204 N 
ATOM      4  H   UNL     1      -0.370   7.857   0.049  0.00  0.00    +0.177 HD
ENDROOT
BRANCH   3   5
ATOM      5  N   UNL     1      -1.192   5.963   0.045  0.00  0.00    -0.184 NA
ATOM      6  C   UNL     1      -0.063   5.325   0.031  0.00  0.00    +0.063 C 
ATOM      7  C   UNL     1       1.235   6.091   0.024  0.00  0.00    +0.068 C 
BRANCH   6   8
ATOM      8  C   UNL     1      -0.049   3.850   0.023  0.00  0.00    -0.001 A 
ATOM      9  C   UNL     1       1.167   3.160   0.008  0.00  0.00    +0.010 A 
ATOM     10  C   UNL     1       1.177   1.781   0.000  0.00  0.00    +0.002 A 
ATOM     11  C   UNL     1      -0.013   1.076   0.008  0.00  0.00    +0.023 A 
ATOM     12  C   UNL     1      -1.227   1.752   0.017  0.00  0.00    +0.025 A 
ATOM     13  C   UNL     1      -1.249   3.138   0.030  0.00  0.00    +0.032 A 
BRANCH  12  14
ATOM     14  N   UNL     1      -2.426   1.034   0.019  0.00  0.00    -0.358 N 
ATOM     15  H   UNL     1      -2.411   0.065   0.014  0.00  0.00    +0.142 HD
ATOM     16  H   UNL     1      -3.273   1.506   0.026  0.00  0.00    +0.142 HD
ENDBRANCH  12  14
ENDBRANCH   6   8
ENDBRANCH   3   5
BRANCH   1  17
ATOM     17  C   UNL     1      -2.394   9.533   0.076  0.00  0.00    +0.326 C 
BRANCH  17  18
ATOM     18  O   UNL     1      -3.745   9.997   0.091  0.00  0.00    -0.480 OA
BRANCH  18  23
ATOM     19  C   UNL     1      -4.535  15.575   0.130  0.00  0.00    +0.044 C 
ATOM     20  C   UNL     1      -4.325  14.082   0.119  0.00  0.00    -0.048 A 
ATOM     21  C   UNL     1      -4.239  13.406  -1.083  0.00  0.00    +0.022 A 
ATOM     22  C   UNL     1      -4.045  12.037  -1.096  0.00  0.00    +0.061 A 
ATOM     23  C   UNL     1      -3.937  11.342   0.100  0.00  0.00    +0.149 A 
ATOM     24  C   UNL     1      -4.029  12.023   1.306  0.00  0.00    +0.061 A 
ATOM     25  C   UNL     1      -4.217  13.393   1.313  0.00  0.00    +0.022 A 
ATOM     26 BR   UNL     1      -3.890  11.079   2.939  0.00  0.00    -0.046 Br
ATOM     27 BR   UNL     1      -3.927  11.114  -2.741  0.00  0.00    -0.046 Br
ENDBRANCH  18  23
ENDBRANCH  17  18
ENDBRANCH   1  17
TORSDOF 6
