REMARK  Name = ZINC35856455
REMARK  12 active torsions:
REMARK  status: ('A' for Active; 'I' for Inactive)
REMARK    1  A    between atoms: C_1  and  C_2
REMARK    2  A    between atoms: C_5  and  C_8
REMARK    3  A    between atoms: C_12  and  O_26
REMARK    4  A    between atoms: C_19  and  C_21
REMARK    5  A    between atoms: O_26  and  C_27
REMARK    6  A    between atoms: C_27  and  C_29
REMARK    7  A    between atoms: C_27  and  C_30
REMARK    8  A    between atoms: N_32  and  C_33
REMARK    9  A    between atoms: C_33  and  C_34
REMARK   10  A    between atoms: C_34  and  N_35
REMARK   11  A    between atoms: N_35  and  C_36
REMARK   12  A    between atoms: N_35  and  C_37
REMARK                            x       y       z     vdW  Elec       q    Type
REMARK                         _______ _______ _______ _____ _____    ______ ____
ROOT
ATOM      1  C   UNL     1      -0.022  -4.247  -0.176  0.00  0.00    +0.137 C 
ATOM      2  C   UNL     1      -1.354  -4.824   0.231  0.00  0.00    -0.016 A 
ATOM      3  C   UNL     1      -2.496  -4.278  -0.336  0.00  0.00    +0.051 A 
ATOM      4  C   UNL     1      -3.748  -4.772  -0.009  0.00  0.00    +0.122 A 
ATOM      5  C   UNL     1      -3.856  -5.823   0.891  0.00  0.00    +0.046 A 
ATOM      6  C   UNL     1      -2.719  -6.361   1.455  0.00  0.00    +0.007 A 
ATOM      7  C   UNL     1      -1.463  -5.861   1.132  0.00  0.00    -0.040 A 
ATOM      8  C   UNL     1      -0.270  -6.482   1.810  0.00  0.00    +0.054 C 
ATOM      9  C   UNL     1       1.012  -6.189   1.032  0.00  0.00    +0.113 C 
ATOM     10  N   UNL     1       1.028  -4.752   0.714  0.00  0.00    -0.290 N 
ATOM     11  C   UNL     1       1.972  -3.933   1.220  0.00  0.00    +0.219 C 
ATOM     12  O   UNL     1       1.932  -2.744   0.987  0.00  0.00    -0.275 OA
ENDROOT
BRANCH   1  17
ATOM     13  C   UNL     1      -0.233   1.517   0.182  0.00  0.00    +0.044 C 
ATOM     14  C   UNL     1      -0.178   0.014   0.088  0.00  0.00    -0.050 A 
ATOM     15  C   UNL     1      -0.495  -0.759   1.190  0.00  0.00    +0.004 A 
ATOM     16  C   UNL     1      -0.445  -2.138   1.104  0.00  0.00    +0.006 A 
ATOM     17  C   UNL     1      -0.078  -2.743  -0.083  0.00  0.00    -0.023 A 
ATOM     18  C   UNL     1       0.238  -1.970  -1.185  0.00  0.00    +0.006 A 
ATOM     19  C   UNL     1       0.184  -0.592  -1.100  0.00  0.00    +0.004 A 
ENDBRANCH   1  17
BRANCH  11  20
ATOM     20  C   UNL     1       3.078  -4.496   2.076  0.00  0.00    +0.075 C 
ATOM     21  C   UNL     1       2.488  -5.118   3.358  0.00  0.00    +0.013 C 
ATOM     22  C   UNL     1       3.524  -4.774   4.458  0.00  0.00    +0.001 C 
ATOM     23  C   UNL     1       3.972  -3.343   4.069  0.00  0.00    +0.001 C 
ATOM     24  C   UNL     1       4.021  -3.368   2.528  0.00  0.00    +0.013 C 
ENDBRANCH  11  20
BRANCH   4  25
ATOM     25  O   UNL     1      -4.863  -4.231  -0.566  0.00  0.00    -0.480 OA
BRANCH  25  26
ATOM     26  C   UNL     1      -6.123  -4.697  -0.078  0.00  0.00    +0.255 C 
ATOM     27  C   UNL     1      -6.603  -5.866  -0.940  0.00  0.00    +0.062 C 
BRANCH  26  28
ATOM     28  C   UNL     1      -7.131  -3.579  -0.142  0.00  0.00    +0.253 C 
ATOM     29  O   UNL     1      -6.829  -2.518  -0.647  0.00  0.00    -0.272 OA
ATOM     30  N   UNL     1      -8.368  -3.757   0.362  0.00  0.00    -0.314 N 
ATOM     31  H   UNL     1      -8.610  -4.605   0.766  0.00  0.00    +0.149 HD
BRANCH  30  32
ATOM     32  C   UNL     1      -9.348  -2.670   0.300  0.00  0.00    +0.086 C 
BRANCH  32  33
ATOM     33  C   UNL     1     -10.661  -3.129   0.937  0.00  0.00    -0.061 C 
BRANCH  33  34
ATOM     34  N   UNL     1     -11.643  -2.039   0.875  0.00  0.00    +0.377 N 
ATOM     35  C   UNL     1     -12.938  -2.518   1.377  0.00  0.00    -0.097 C 
ATOM     36  C   UNL     1     -11.182  -0.916   1.703  0.00  0.00    -0.097 C 
ATOM     37  H   UNL     1     -11.745  -1.732  -0.081  0.00  0.00    -0.083 HD
ENDBRANCH  33  34
ENDBRANCH  32  33
ENDBRANCH  30  32
ENDBRANCH  26  28
ENDBRANCH  25  26
ENDBRANCH   4  25
TORSDOF 8
