REMARK  Name = ZINC38012669
REMARK  6 active torsions:
REMARK  status: ('A' for Active; 'I' for Inactive)
REMARK    1  A    between atoms: C_1  and  C_2
REMARK    2  A    between atoms: C_3  and  S_9
REMARK    3  A    between atoms: S_9  and  N_12
REMARK    4  A    between atoms: N_12  and  C_13
REMARK    5  A    between atoms: C_13  and  C_15
REMARK    6  A    between atoms: C_13  and  C_16
REMARK                            x       y       z     vdW  Elec       q    Type
REMARK                         _______ _______ _______ _____ _____    ______ ____
ROOT
ATOM      1  S   UNL     1      -2.797  -0.150   0.016  0.00  0.00    +0.067 S 
ATOM      2  O   UNL     1      -3.492  -0.955   0.959  0.00  0.00    -0.152 OA
ATOM      3  O   UNL     1      -2.745   1.266   0.116  0.00  0.00    -0.152 OA
ENDROOT
BRANCH   1   6
ATOM      4  C   UNL     1      -0.018   1.503   0.010  0.00  0.00    +0.066 C 
ATOM      5  C   UNL     1       0.002  -0.004   0.002  0.00  0.00    +0.050 A 
ATOM      6  C   UNL     1      -1.129  -0.716   0.004  0.00  0.00    +0.166 A 
ATOM      7  S   UNL     1      -0.508  -2.388  -0.008  0.00  0.00    -0.007 S 
ATOM      8  C   UNL     1       1.138  -2.048  -0.015  0.00  0.00    +0.290 A 
ATOM      9  O   UNL     1       2.072  -2.830  -0.024  0.00  0.00    -0.260 OA
ATOM     10  N   UNL     1       1.176  -0.699  -0.013  0.00  0.00    -0.318 N 
ATOM     11  H   UNL     1       2.025  -0.230  -0.020  0.00  0.00    +0.169 HD
ENDBRANCH   1   6
BRANCH   1  12
ATOM     12  N   UNL     1      -3.443  -0.496  -1.469  0.00  0.00    -0.182 NA
ATOM     13  H   UNL     1      -3.712   0.224  -2.060  0.00  0.00    +0.149 HD
BRANCH  12  14
ATOM     14  C   UNL     1      -3.606  -1.890  -1.890  0.00  0.00    +0.103 C 
ATOM     15  C   UNL     1      -5.028  -2.356  -1.569  0.00  0.00    +0.031 C 
BRANCH  14  16
ATOM     16  C   UNL     1      -3.365  -1.999  -3.373  0.00  0.00    -0.028 A 
ATOM     17  C   UNL     1      -3.836  -1.016  -4.224  0.00  0.00    +0.005 A 
ATOM     18  C   UNL     1      -3.615  -1.115  -5.585  0.00  0.00    +0.001 A 
ATOM     19  C   UNL     1      -2.922  -2.197  -6.096  0.00  0.00    +0.015 A 
ATOM     20  C   UNL     1      -2.450  -3.180  -5.245  0.00  0.00    +0.018 A 
ATOM     21  C   UNL     1      -2.667  -3.078  -3.882  0.00  0.00    +0.020 A 
ATOM     22 BR   UNL     1      -1.503  -4.660  -5.943  0.00  0.00    -0.050 Br
ENDBRANCH  14  16
ENDBRANCH  12  14
ENDBRANCH   1  12
TORSDOF 4
