REMARK  Name = ZINC17005649
REMARK  8 active torsions:
REMARK  status: ('A' for Active; 'I' for Inactive)
REMARK    1  A    between atoms: C_1  and  C_2
REMARK    2  A    between atoms: C_5  and  O_32
REMARK    3  A    between atoms: C_16  and  O_31
REMARK    4  A    between atoms: C_19  and  C_30
REMARK    5  A    between atoms: C_24  and  C_25
REMARK    6  A    between atoms: C_24  and  O_29
REMARK    7  A    between atoms: C_25  and  C_27
REMARK    8  A    between atoms: C_27  and  O_28
REMARK                            x       y       z     vdW  Elec       q    Type
REMARK                         _______ _______ _______ _____ _____    ______ ____
ROOT
ATOM      1  C   UNL     1      -0.458   3.242   1.041  0.00  0.00    +0.012 C 
ATOM      2  C   UNL     1      -0.442   1.715   1.126  0.00  0.00    -0.024 C 
ATOM      3  C   UNL     1       0.319   1.161  -0.077  0.00  0.00    +0.010 C 
ATOM      4  C   UNL     1      -0.338   1.716  -1.350  0.00  0.00    +0.032 C 
ATOM      5  C   UNL     1      -1.804   1.288  -1.414  0.00  0.00    +0.115 C 
ATOM      6  C   UNL     1      -2.559   1.779  -0.173  0.00  0.00    +0.035 C 
ATOM      7  C   UNL     1      -1.883   1.201   1.066  0.00  0.00    -0.002 C 
ATOM      8  C   UNL     1      -2.599   1.591   2.354  0.00  0.00    +0.004 C 
ATOM      9  C   UNL     1      -2.030   0.737   3.489  0.00  0.00    +0.004 C 
ATOM     10  C   UNL     1      -0.632   0.228   3.136  0.00  0.00    -0.001 C 
ATOM     11  C   UNL     1       0.197   1.317   2.449  0.00  0.00    +0.027 C 
ATOM     12  C   UNL     1       1.635   0.870   2.194  0.00  0.00    +0.119 C 
ATOM     13  C   UNL     1       2.310   0.346   3.470  0.00  0.00    +0.041 C 
ATOM     14  C   UNL     1       1.453  -0.793   3.990  0.00  0.00    +0.009 C 
ATOM     15  C   UNL     1       0.091  -0.176   4.408  0.00  0.00    +0.002 C 
ATOM     16  C   UNL     1      -0.544  -1.327   5.196  0.00  0.00    +0.008 C 
ATOM     17  C   UNL     1       0.647  -1.877   6.028  0.00  0.00    +0.043 C 
ATOM     18  C   UNL     1       1.935  -1.476   5.266  0.00  0.00    +0.131 C 
ATOM     19  C   UNL     1       1.236  -1.836   2.892  0.00  0.00    +0.015 C 
ENDROOT
BRANCH  18  20
ATOM     20  C   UNL     1       2.746  -2.701   4.931  0.00  0.00    +0.190 C 
ATOM     21  O   UNL     1       2.204  -3.776   4.835  0.00  0.00    -0.292 OA
BRANCH  20  22
ATOM     22  C   UNL     1       4.233  -2.584   4.715  0.00  0.00    +0.233 C 
BRANCH  22  23
ATOM     23  O   UNL     1       4.773  -3.872   4.412  0.00  0.00    -0.387 OA
ATOM     24  H   UNL     1       5.728  -3.872   4.260  0.00  0.00    +0.210 HD
ENDBRANCH  22  23
ENDBRANCH  20  22
ENDBRANCH  18  20
BRANCH  18  25
ATOM     25  O   UNL     1       2.711  -0.568   6.051  0.00  0.00    -0.380 OA
ATOM     26  H   UNL     1       3.012  -0.935   6.894  0.00  0.00    +0.211 HD
ENDBRANCH  18  25
BRANCH  12  27
ATOM     27  O   UNL     1       2.384   1.979   1.694  0.00  0.00    -0.391 OA
ATOM     28  H   UNL     1       3.300   1.767   1.471  0.00  0.00    +0.210 HD
ENDBRANCH  12  27
BRANCH   5  29
ATOM     29  O   UNL     1      -2.407   1.843  -2.585  0.00  0.00    -0.392 OA
ATOM     30  H   UNL     1      -1.990   1.565  -3.412  0.00  0.00    +0.210 HD
ENDBRANCH   5  29
TORSDOF 6
