REMARK  Name = ZINC36602742
REMARK  17 active torsions:
REMARK  status: ('A' for Active; 'I' for Inactive)
REMARK    1  A    between atoms: C_1  and  C_2
REMARK    2  A    between atoms: C_5  and  C_9
REMARK    3  A    between atoms: C_6  and  C_8
REMARK    4  A    between atoms: C_9  and  C_11
REMARK    5  A    between atoms: C_9  and  N_22
REMARK    6  A    between atoms: N_13  and  C_14
REMARK    7  A    between atoms: C_14  and  C_15
REMARK    8  A    between atoms: C_14  and  C_16
REMARK    9  A    between atoms: C_14  and  C_17
REMARK   10  A    between atoms: C_17  and  C_18
REMARK   11  A    between atoms: C_18  and  C_19
REMARK   12  A    between atoms: C_18  and  C_20
REMARK   13  A    between atoms: C_18  and  C_21
REMARK   14  A    between atoms: N_22  and  C_23
REMARK   15  A    between atoms: C_23  and  C_24
REMARK   16  A    between atoms: C_27  and  C_29
REMARK   17  A    between atoms: C_30  and  C_32
REMARK                            x       y       z     vdW  Elec       q    Type
REMARK                         _______ _______ _______ _____ _____    ______ ____
ROOT
ATOM      1  C   UNL     1       0.509  -3.001  -1.159  0.00  0.00    +0.193 C 
ENDROOT
BRANCH   1   6
ATOM      2  C   UNL     1       2.326   1.977  -3.462  0.00  0.00    +0.044 C 
ATOM      3  C   UNL     1       1.853   0.679  -2.861  0.00  0.00    -0.050 A 
ATOM      4  C   UNL     1       2.769  -0.292  -2.503  0.00  0.00    +0.004 A 
ATOM      5  C   UNL     1       2.334  -1.483  -1.952  0.00  0.00    +0.006 A 
ATOM      6  C   UNL     1       0.983  -1.702  -1.759  0.00  0.00    -0.015 A 
ATOM      7  C   UNL     1       0.067  -0.731  -2.116  0.00  0.00    -0.045 A 
ATOM      8  C   UNL     1       0.502   0.462  -2.663  0.00  0.00    +0.007 A 
ATOM      9  C   UNL     1      -1.406  -0.971  -1.906  0.00  0.00    +0.044 C 
ENDBRANCH   1   6
BRANCH   1  10
ATOM     10  C   UNL     1       1.671  -3.708  -0.508  0.00  0.00    +0.239 C 
ATOM     11  O   UNL     1       2.104  -4.733  -0.990  0.00  0.00    -0.273 OA
ATOM     12  N   UNL     1       2.228  -3.200   0.609  0.00  0.00    -0.308 N 
ATOM     13  H   UNL     1       1.844  -2.414   1.028  0.00  0.00    +0.149 HD
BRANCH  12  14
ATOM     14  C   UNL     1       3.413  -3.835   1.190  0.00  0.00    +0.030 C 
ATOM     15  C   UNL     1       3.036  -5.213   1.739  0.00  0.00    +0.031 C 
ATOM     16  C   UNL     1       4.488  -3.993   0.113  0.00  0.00    +0.031 C 
BRANCH  14  17
ATOM     17  C   UNL     1       3.953  -2.964   2.326  0.00  0.00    +0.031 C 
BRANCH  17  18
ATOM     18  C   UNL     1       3.849  -1.490   1.932  0.00  0.00    -0.036 C 
ATOM     19  C   UNL     1       2.534  -0.912   2.461  0.00  0.00    +0.010 C 
ATOM     20  C   UNL     1       5.024  -0.716   2.533  0.00  0.00    +0.010 C 
ATOM     21  C   UNL     1       3.883  -1.365   0.407  0.00  0.00    +0.010 C 
ENDBRANCH  17  18
ENDBRANCH  14  17
ENDBRANCH  12  14
ENDBRANCH   1  10
BRANCH   1  22
ATOM     22  N   UNL     1      -0.050  -3.851  -2.213  0.00  0.00    -0.275 N 
ATOM     23  C   UNL     1      -1.301  -4.339  -2.092  0.00  0.00    +0.248 C 
ATOM     24  O   UNL     1      -1.960  -4.084  -1.103  0.00  0.00    -0.270 OA
BRANCH  23  25
ATOM     25  C   UNL     1      -1.870  -5.184  -3.162  0.00  0.00    +0.037 A 
ATOM     26  C   UNL     1      -1.209  -5.305  -4.386  0.00  0.00    +0.016 A 
ATOM     27  C   UNL     1      -1.745  -6.095  -5.380  0.00  0.00    +0.039 A 
ATOM     28  C   UNL     1      -2.938  -6.769  -5.167  0.00  0.00    +0.123 A 
ATOM     29  C   UNL     1      -3.598  -6.653  -3.953  0.00  0.00    +0.039 A 
ATOM     30  C   UNL     1      -3.068  -5.870  -2.950  0.00  0.00    +0.016 A 
ATOM     31  F   UNL     1      -3.459  -7.541  -6.146  0.00  0.00    -0.205 F 
ENDBRANCH  23  25
BRANCH  22  32
ATOM     32  C   UNL     1       0.749  -4.169  -3.399  0.00  0.00    +0.183 C 
BRANCH  32  33
ATOM     33  C   UNL     1       0.363  -3.248  -4.527  0.00  0.00    +0.122 A 
ATOM     34  C   UNL     1       0.830  -2.002  -4.720  0.00  0.00    +0.046 A 
ATOM     35  C   UNL     1       0.205  -1.507  -5.889  0.00  0.00    +0.045 A 
ATOM     36  C   UNL     1      -0.605  -2.481  -6.340  0.00  0.00    +0.102 A 
ATOM     37  O   UNL     1      -0.502  -3.535  -5.514  0.00  0.00    -0.463 OA
ATOM     38  C   UNL     1      -1.478  -2.404  -7.566  0.00  0.00    +0.086 C 
ENDBRANCH  32  33
ENDBRANCH  22  32
ENDBRANCH   1  22
TORSDOF 9
