REMARK  Name = ZINC10233366
REMARK  10 active torsions:
REMARK  status: ('A' for Active; 'I' for Inactive)
REMARK    1  A    between atoms: C_1  and  C_2
REMARK    2  A    between atoms: N_9  and  C_10
REMARK    3  A    between atoms: C_10  and  C_11
REMARK    4  A    between atoms: C_11  and  O_12
REMARK    5  A    between atoms: O_12  and  C_13
REMARK    6  A    between atoms: C_13  and  C_14
REMARK    7  A    between atoms: C_14  and  O_15
REMARK    8  A    between atoms: N_16  and  C_30
REMARK    9  A    between atoms: N_19  and  C_22
REMARK   10  A    between atoms: C_22  and  C_23
REMARK                            x       y       z     vdW  Elec       q    Type
REMARK                         _______ _______ _______ _____ _____    ______ ____
ROOT
ATOM      1  C   UNL     1       4.538  -2.112  -0.052  0.00  0.00    +0.065 C 
ATOM      2  C   UNL     1       3.348  -1.187  -0.036  0.00  0.00    +0.035 A 
ATOM      3  C   UNL     1       3.393   0.142  -0.029  0.00  0.00    +0.116 A 
ATOM      4  N   UNL     1       2.095   0.621  -0.015  0.00  0.00    -0.277 N 
ATOM      5  C   UNL     1       1.308   1.763  -0.001  0.00  0.00    +0.157 A 
ATOM      6  C   UNL     1      -0.016   1.326   0.009  0.00  0.00    +0.170 A 
ATOM      7  N   UNL     1       0.002  -0.004   0.002  0.00  0.00    -0.193 NA
ATOM      8  C   UNL     1       1.254  -0.439  -0.012  0.00  0.00    +0.218 A 
ATOM      9  N   UNL     1       2.021  -1.573  -0.026  0.00  0.00    -0.312 N 
ATOM     10  N   UNL     1      -1.031   2.271   0.019  0.00  0.00    -0.279 N 
ATOM     11  C   UNL     1      -0.729   3.583   0.027  0.00  0.00    +0.334 A 
ATOM     12  O   UNL     1      -1.631   4.399   0.039  0.00  0.00    -0.246 OA
ATOM     13  N   UNL     1       0.544   4.014   0.017  0.00  0.00    -0.255 N 
ATOM     14  C   UNL     1       1.574   3.142   0.003  0.00  0.00    +0.283 A 
ATOM     15  O   UNL     1       2.723   3.548  -0.006  0.00  0.00    -0.265 OA
ATOM     16  C   UNL     1      -2.432   1.841   0.024  0.00  0.00    +0.155 C 
ENDROOT
BRANCH   9  17
ATOM     17  C   UNL     1       1.524  -2.951  -0.029  0.00  0.00    +0.153 C 
BRANCH  17  18
ATOM     18  C   UNL     1       1.337  -3.423  -1.472  0.00  0.00    +0.181 C 
BRANCH  18  19
ATOM     19  O   UNL     1       0.852  -4.767  -1.476  0.00  0.00    -0.376 OA
BRANCH  19  20
ATOM     20  C   UNL     1       0.642  -5.306  -2.782  0.00  0.00    +0.187 C 
BRANCH  20  21
ATOM     21  C   UNL     1       0.126  -6.742  -2.665  0.00  0.00    +0.184 C 
BRANCH  21  22
ATOM     22  O   UNL     1      -1.163  -6.735  -2.048  0.00  0.00    -0.393 OA
ATOM     23  H   UNL     1      -1.553  -7.613  -1.941  0.00  0.00    +0.209 HD
ENDBRANCH  21  22
ENDBRANCH  20  21
ENDBRANCH  19  20
ENDBRANCH  18  19
ENDBRANCH  17  18
ENDBRANCH   9  17
BRANCH  13  24
ATOM     24  C   UNL     1       0.818   5.453   0.021  0.00  0.00    +0.168 C 
BRANCH  24  25
ATOM     25  C   UNL     1       0.899   5.953  -1.399  0.00  0.00    +0.008 A 
ATOM     26  C   UNL     1      -0.144   6.685  -1.934  0.00  0.00    +0.008 A 
ATOM     27  C   UNL     1      -0.070   7.144  -3.236  0.00  0.00    +0.000 A 
ATOM     28  C   UNL     1       1.047   6.872  -4.003  0.00  0.00    +0.003 A 
ATOM     29  C   UNL     1       2.091   6.141  -3.470  0.00  0.00    +0.039 A 
ATOM     30  C   UNL     1       2.020   5.684  -2.165  0.00  0.00    +0.128 A 
ATOM     31  F   UNL     1       3.043   4.973  -1.641  0.00  0.00    -0.205 F 
ENDBRANCH  24  25
ENDBRANCH  13  24
TORSDOF 8
