REMARK  Name = ZINC62264739
REMARK  9 active torsions:
REMARK  status: ('A' for Active; 'I' for Inactive)
REMARK    1  A    between atoms: C_1  and  N_2
REMARK    2  A    between atoms: N_2  and  C_3
REMARK    3  A    between atoms: N_2  and  C_4
REMARK    4  A    between atoms: C_4  and  C_5
REMARK    5  A    between atoms: C_5  and  C_6
REMARK    6  A    between atoms: N_11  and  S_14
REMARK    7  A    between atoms: S_14  and  C_17
REMARK    8  A    between atoms: C_20  and  C_23
REMARK    9  A    between atoms: C_23  and  C_25
REMARK                            x       y       z     vdW  Elec       q    Type
REMARK                         _______ _______ _______ _____ _____    ______ ____
ROOT
ATOM      1  C   UNL     1       2.864  -0.539  -2.397  0.00  0.00    +0.214 C 
ATOM      2  O   UNL     1       2.252  -1.164  -3.237  0.00  0.00    -0.276 OA
ATOM      3  N   UNL     1       4.175  -0.280  -2.572  0.00  0.00    -0.299 N 
ATOM      4  C   UNL     1       4.931   0.470  -1.559  0.00  0.00    +0.125 C 
ATOM      5  C   UNL     1       6.143  -0.367  -1.132  0.00  0.00    +0.128 C 
ATOM      6  N   UNL     1       6.842  -0.830  -2.339  0.00  0.00    -0.174 NA
ATOM      7  C   UNL     1       6.087  -1.580  -3.352  0.00  0.00    +0.128 C 
ATOM      8  C   UNL     1       4.876  -0.748  -3.776  0.00  0.00    +0.125 C 
ENDROOT
BRANCH   6   9
ATOM      9  S   UNL     1       8.453  -0.512  -2.554  0.00  0.00    +0.061 S 
ATOM     10  O   UNL     1       8.694  -0.559  -3.953  0.00  0.00    -0.153 OA
ATOM     11  O   UNL     1       8.749   0.635  -1.768  0.00  0.00    -0.153 OA
BRANCH   9  12
ATOM     12  C   UNL     1       9.349  -1.853  -1.843  0.00  0.00    +0.106 A 
ATOM     13  C   UNL     1       9.720  -1.803  -0.511  0.00  0.00    +0.029 A 
ATOM     14  C   UNL     1      10.421  -2.848   0.052  0.00  0.00    +0.013 A 
ATOM     15  C   UNL     1      10.757  -3.961  -0.726  0.00  0.00    +0.018 A 
ATOM     16  C   UNL     1      10.377  -4.003  -2.071  0.00  0.00    +0.013 A 
ATOM     17  C   UNL     1       9.672  -2.952  -2.619  0.00  0.00    +0.029 A 
BRANCH  15  18
ATOM     18  C   UNL     1      11.505  -5.080  -0.133  0.00  0.00    +0.166 C 
ATOM     19  O   UNL     1      11.833  -5.040   1.034  0.00  0.00    -0.292 OA
BRANCH  18  20
ATOM     20  C   UNL     1      11.865  -6.277  -0.976  0.00  0.00    +0.060 C 
ATOM     21  C   UNL     1      11.669  -7.662  -0.356  0.00  0.00    +0.012 C 
ATOM     22  C   UNL     1      13.080  -7.102  -0.548  0.00  0.00    +0.012 C 
ENDBRANCH  18  20
ENDBRANCH  15  18
ENDBRANCH   9  12
ENDBRANCH   6   9
BRANCH   1  23
ATOM     23  C   UNL     1       2.159  -0.053  -1.157  0.00  0.00    +0.077 C 
BRANCH  23  24
ATOM     24  C   UNL     1       0.690  -0.478  -1.207  0.00  0.00    -0.070 C 
BRANCH  24  26
ATOM     25  C   UNL     1      -0.018   1.465   0.010  0.00  0.00    -0.097 C 
ATOM     26  N   UNL     1       0.002  -0.004   0.002  0.00  0.00    +0.376 N 
ATOM     27  C   UNL     1      -1.376  -0.512   0.012  0.00  0.00    -0.097 C 
ATOM     28  H   UNL     1       0.490  -0.338   0.820  0.00  0.00    -0.083 HD
ENDBRANCH  24  26
ENDBRANCH  23  24
ENDBRANCH   1  23
TORSDOF 7
