REMARK  Name = ZINC21227636
REMARK  6 active torsions:
REMARK  status: ('A' for Active; 'I' for Inactive)
REMARK    1  A    between atoms: C_1  and  C_2
REMARK    2  A    between atoms: C_2  and  C_3
REMARK    3  A    between atoms: C_2  and  O_4
REMARK    4  A    between atoms: O_4  and  C_5
REMARK    5  A    between atoms: C_8  and  C_11
REMARK    6  A    between atoms: C_16  and  C_22
REMARK                            x       y       z     vdW  Elec       q    Type
REMARK                         _______ _______ _______ _____ _____    ______ ____
ROOT
ATOM      1  C   UNL     1       3.660   3.561   0.230  0.00  0.00    +0.032 C 
ATOM      2  C   UNL     1       3.017   4.357  -0.908  0.00  0.00    +0.059 C 
ATOM      3  C   UNL     1       1.549   4.021  -0.996  0.00  0.00    +0.018 C 
ATOM      4  C   UNL     1       1.097   2.800  -0.643  0.00  0.00    +0.020 C 
ATOM      5  C   UNL     1      -0.377   2.484  -0.747  0.00  0.00    +0.063 C 
ATOM      6  C   UNL     1      -0.969   3.212  -1.954  0.00  0.00    +0.109 C 
ATOM      7  C   UNL     1      -0.533   4.654  -1.923  0.00  0.00    +0.218 C 
ATOM      8  O   UNL     1      -1.277   5.520  -2.333  0.00  0.00    -0.275 OA
ATOM      9  N   UNL     1       0.678   4.983  -1.443  0.00  0.00    -0.289 N 
ATOM     10  C   UNL     1       1.970   1.803  -0.176  0.00  0.00    +0.162 C 
ATOM     11  O   UNL     1       1.527   0.711   0.120  0.00  0.00    -0.292 OA
ATOM     12  C   UNL     1       3.445   2.068  -0.037  0.00  0.00    +0.088 C 
ATOM     13  H   UNL     1       0.967   6.043  -1.412  0.00  0.00    +0.155 HD
ENDROOT
BRANCH   5  14
ATOM     14  C   UNL     1      -1.077   2.938   0.508  0.00  0.00    -0.039 A 
ATOM     15  C   UNL     1      -1.041   4.270   0.876  0.00  0.00    +0.005 A 
ATOM     16  C   UNL     1      -1.687   4.689   2.024  0.00  0.00    +0.015 A 
ATOM     17  C   UNL     1      -2.361   3.772   2.810  0.00  0.00    +0.018 A 
ATOM     18  C   UNL     1      -2.393   2.438   2.445  0.00  0.00    +0.015 A 
ATOM     19  C   UNL     1      -1.751   2.022   1.294  0.00  0.00    +0.005 A 
ATOM     20 BR   UNL     1      -3.239   4.342   4.385  0.00  0.00    -0.050 Br
ENDBRANCH   5  14
BRANCH   1  24
ATOM     21  C   UNL     1       7.846   4.401   0.396  0.00  0.00    +0.121 A 
ATOM     22  C   UNL     1       7.041   4.662   1.496  0.00  0.00    +0.046 A 
ATOM     23  C   UNL     1       5.688   4.390   1.439  0.00  0.00    +0.007 A 
ATOM     24  C   UNL     1       5.136   3.858   0.288  0.00  0.00    -0.043 A 
ATOM     25  C   UNL     1       5.938   3.592  -0.807  0.00  0.00    +0.007 A 
ATOM     26  C   UNL     1       7.290   3.868  -0.757  0.00  0.00    +0.046 A 
BRANCH  21  27
ATOM     27  O   UNL     1       9.178   4.668   0.450  0.00  0.00    -0.489 OA
BRANCH  27  29
ATOM     28  C   UNL     1       9.909   5.352  -1.750  0.00  0.00    +0.051 C 
ATOM     29  C   UNL     1       9.966   4.266  -0.673  0.00  0.00    +0.167 C 
ATOM     30  C   UNL     1      11.416   4.061  -0.232  0.00  0.00    +0.051 C 
ENDBRANCH  27  29
ENDBRANCH  21  27
ENDBRANCH   1  24
TORSDOF 4
