REMARK  Name = ZINC43042237
REMARK  9 active torsions:
REMARK  status: ('A' for Active; 'I' for Inactive)
REMARK    1  A    between atoms: C_1  and  C_2
REMARK    2  A    between atoms: C_7  and  N_12
REMARK    3  A    between atoms: C_9  and  C_11
REMARK    4  A    between atoms: N_15  and  N_16
REMARK    5  A    between atoms: C_17  and  O_19
REMARK    6  A    between atoms: O_19  and  C_20
REMARK    7  A    between atoms: C_20  and  C_21
REMARK    8  A    between atoms: C_20  and  C_22
REMARK    9  A    between atoms: C_20  and  C_23
REMARK                            x       y       z     vdW  Elec       q    Type
REMARK                         _______ _______ _______ _____ _____    ______ ____
ROOT
ATOM      1  N   UNL     1       1.471  -2.526   2.420  0.00  0.00    -0.295 N 
ATOM      2  C   UNL     1       2.056  -3.740   2.406  0.00  0.00    +0.316 C 
ATOM      3  O   UNL     1       1.996  -4.433   1.409  0.00  0.00    -0.251 OA
ATOM      4  N   UNL     1       2.708  -4.187   3.498  0.00  0.00    -0.216 N 
ATOM      5  H   UNL     1       1.520  -1.974   3.216  0.00  0.00    +0.151 HD
ATOM      6  H   UNL     1       3.129  -5.060   3.488  0.00  0.00    +0.174 HD
ENDROOT
BRANCH   1  12
ATOM      7  C   UNL     1      -0.019   1.526   0.010  0.00  0.00    +0.008 C 
ATOM      8  C   UNL     1       0.002  -0.004   0.002  0.00  0.00    -0.009 C 
ATOM      9  C   UNL     1      -1.433  -0.534   0.013  0.00  0.00    +0.003 C 
ATOM     10  C   UNL     1      -1.413  -2.063   0.004  0.00  0.00    +0.002 C 
ATOM     11  C   UNL     1      -0.673  -2.570   1.244  0.00  0.00    +0.022 C 
ATOM     12  C   UNL     1       0.763  -2.041   1.233  0.00  0.00    +0.078 C 
ATOM     13  C   UNL     1       0.742  -0.511   1.242  0.00  0.00    +0.009 C 
ATOM     14  C   UNL     1       0.026  -0.018   2.500  0.00  0.00    +0.009 C 
ENDBRANCH   1  12
BRANCH   4  15
ATOM     15  N   UNL     1       2.778  -3.389   4.647  0.00  0.00    -0.198 N 
ATOM     16  C   UNL     1       3.430  -3.835   5.739  0.00  0.00    +0.417 C 
ATOM     17  O   UNL     1       3.490  -3.143   6.736  0.00  0.00    -0.225 OA
ATOM     18  H   UNL     1       2.357  -2.515   4.657  0.00  0.00    +0.176 HD
BRANCH  16  19
ATOM     19  O   UNL     1       4.014  -5.048   5.726  0.00  0.00    -0.444 OA
BRANCH  19  20
ATOM     20  C   UNL     1       4.688  -5.457   6.917  0.00  0.00    +0.107 C 
ATOM     21  C   UNL     1       3.692  -5.494   8.079  0.00  0.00    +0.055 C 
ATOM     22  C   UNL     1       5.284  -6.851   6.713  0.00  0.00    +0.055 C 
ATOM     23  C   UNL     1       5.808  -4.465   7.237  0.00  0.00    +0.055 C 
ENDBRANCH  19  20
ENDBRANCH  16  19
ENDBRANCH   4  15
TORSDOF 4
