REMARK  Name = ZINC34710568
REMARK  8 active torsions:
REMARK  status: ('A' for Active; 'I' for Inactive)
REMARK    1  A    between atoms: C_1  and  C_2
REMARK    2  A    between atoms: C_2  and  N_3
REMARK    3  A    between atoms: C_4  and  C_6
REMARK    4  A    between atoms: C_9  and  C_20
REMARK    5  A    between atoms: N_16  and  C_17
REMARK    6  A    between atoms: C_17  and  C_18
REMARK    7  A    between atoms: C_17  and  C_19
REMARK    8  A    between atoms: C_24  and  C_26
REMARK                            x       y       z     vdW  Elec       q    Type
REMARK                         _______ _______ _______ _____ _____    ______ ____
ROOT
ATOM      1  C   UNL     1       1.581  -2.312   2.611  0.00  0.00    +0.093 C 
ATOM      2  C   UNL     1       1.601  -3.842   2.604  0.00  0.00    +0.024 C 
ATOM      3  C   UNL     1       0.166  -4.372   2.581  0.00  0.00    +0.037 C 
ATOM      4  C   UNL     1      -0.567  -3.905   3.842  0.00  0.00    +0.117 C 
ATOM      5  N   UNL     1      -0.466  -2.442   3.933  0.00  0.00    -0.284 N 
ATOM      6  C   UNL     1       0.865  -1.820   3.873  0.00  0.00    +0.122 C 
ATOM      7  C   UNL     1      -1.572  -1.684   4.069  0.00  0.00    +0.302 C 
ATOM      8  O   UNL     1      -1.470  -0.484   4.235  0.00  0.00    -0.253 OA
ATOM      9  N   UNL     1      -2.791  -2.257   4.020  0.00  0.00    -0.297 N 
ATOM     10  H   UNL     1      -2.872  -3.221   3.961  0.00  0.00    +0.150 HD
ENDROOT
BRANCH   3  11
ATOM     11  C   UNL     1       0.187  -5.879   2.540  0.00  0.00    -0.043 A 
ATOM     12  C   UNL     1       0.784  -6.590   3.564  0.00  0.00    +0.004 A 
ATOM     13  C   UNL     1       0.803  -7.971   3.526  0.00  0.00    +0.001 A 
ATOM     14  C   UNL     1       0.225  -8.642   2.465  0.00  0.00    +0.003 A 
ATOM     15  C   UNL     1      -0.373  -7.931   1.441  0.00  0.00    -0.050 A 
ATOM     16  C   UNL     1      -0.396  -6.550   1.481  0.00  0.00    +0.007 A 
ATOM     17  C   UNL     1      -1.003  -8.662   0.284  0.00  0.00    +0.044 C 
ENDBRANCH   3  11
BRANCH   1  19
ATOM     18  N   UNL     1       0.708  -0.488   1.188  0.00  0.00    -0.315 N 
ATOM     19  C   UNL     1       0.851  -1.812   1.391  0.00  0.00    +0.218 C 
ATOM     20  O   UNL     1       0.393  -2.602   0.593  0.00  0.00    -0.275 OA
ATOM     21  H   UNL     1       1.075   0.144   1.826  0.00  0.00    +0.149 HD
BRANCH  18  23
ATOM     22  C   UNL     1      -0.023   1.528   0.011  0.00  0.00    +0.024 C 
ATOM     23  C   UNL     1      -0.002  -0.002   0.002  0.00  0.00    +0.101 C 
ENDBRANCH  18  23
ENDBRANCH   1  19
BRANCH   9  24
ATOM     24  C   UNL     1      -3.994  -1.422   4.056  0.00  0.00    +0.068 C 
ATOM     25  C   UNL     1      -5.152  -2.166   3.387  0.00  0.00    +0.027 C 
ATOM     26  C   UNL     1      -4.359  -1.114   5.509  0.00  0.00    +0.027 C 
ENDBRANCH   9  24
TORSDOF 4
