REMARK  Name = ZINC15953751
REMARK  5 active torsions:
REMARK  status: ('A' for Active; 'I' for Inactive)
REMARK    1  A    between atoms: C_1  and  C_2
REMARK    2  A    between atoms: C_13  and  C_38
REMARK    3  A    between atoms: C_15  and  C_27
REMARK    4  A    between atoms: C_27  and  C_29
REMARK    5  A    between atoms: C_38  and  C_40
REMARK                            x       y       z     vdW  Elec       q    Type
REMARK                         _______ _______ _______ _____ _____    ______ ____
ROOT
ATOM      1  C   UNL     1       0.607  -5.912  -0.369  0.00  0.00    +0.044 C 
ATOM      2  C   UNL     1       0.731  -4.431  -0.120  0.00  0.00    -0.050 A 
ATOM      3  C   UNL     1       1.923  -3.784  -0.396  0.00  0.00    +0.005 A 
ATOM      4  C   UNL     1       2.053  -2.425  -0.176  0.00  0.00    +0.024 A 
ATOM      5  C   UNL     1       0.985  -1.704   0.322  0.00  0.00    +0.038 A 
ATOM      6  C   UNL     1      -0.231  -2.362   0.609  0.00  0.00    -0.004 A 
ATOM      7  C   UNL     1      -0.347  -3.727   0.382  0.00  0.00    +0.013 A 
ATOM      8  C   UNL     1      -1.356  -1.567   1.157  0.00  0.00    +0.007 C 
ATOM      9  C   UNL     1      -1.369  -0.248   0.892  0.00  0.00    -0.003 C 
ATOM     10  C   UNL     1      -0.234   0.271   0.064  0.00  0.00    +0.117 C 
ATOM     11  N   UNL     1       1.024  -0.351   0.561  0.00  0.00    -0.311 N 
ATOM     12  C   UNL     1       2.085   0.446  -0.068  0.00  0.00    +0.152 C 
ATOM     13  C   UNL     1       1.564   1.906   0.056  0.00  0.00    +0.109 C 
ATOM     14  C   UNL     1       0.033   1.763   0.177  0.00  0.00    +0.108 C 
ATOM     15  C   UNL     1      -0.676   2.557  -0.868  0.00  0.00    -0.008 A 
ATOM     16  C   UNL     1      -0.641   2.506  -2.244  0.00  0.00    +0.006 A 
ATOM     17  C   UNL     1      -1.444   3.409  -2.932  0.00  0.00    +0.000 A 
ATOM     18  C   UNL     1      -2.241   4.315  -2.262  0.00  0.00    +0.002 A 
ATOM     19  C   UNL     1      -2.282   4.374  -0.878  0.00  0.00    +0.023 A 
ATOM     20  C   UNL     1      -1.480   3.473  -0.176  0.00  0.00    +0.038 A 
ATOM     21  N   UNL     1      -1.327   3.312   1.191  0.00  0.00    -0.284 N 
ATOM     22  C   UNL     1      -0.454   2.325   1.489  0.00  0.00    +0.231 C 
ATOM     23  O   UNL     1      -0.124   1.962   2.598  0.00  0.00    -0.274 OA
ATOM     24  H   UNL     1      -1.792   3.845   1.855  0.00  0.00    +0.155 HD
ENDROOT
BRANCH  12  25
ATOM     25  C   UNL     1       3.385   0.278   0.674  0.00  0.00    +0.151 C 
ATOM     26  O   UNL     1       3.385  -0.137   1.808  0.00  0.00    -0.296 OA
ATOM     27  C   UNL     1       4.688   0.628   0.001  0.00  0.00    +0.088 C 
ENDBRANCH  12  25
BRANCH  13  28
ATOM     28  C   UNL     1       1.922   2.699  -1.174  0.00  0.00    +0.170 C 
ATOM     29  O   UNL     1       2.167   2.125  -2.215  0.00  0.00    -0.292 OA
BRANCH  28  30
ATOM     30  C   UNL     1       1.975   4.165  -1.113  0.00  0.00    +0.021 A 
ATOM     31  C   UNL     1       1.790   4.824   0.107  0.00  0.00    +0.015 A 
ATOM     32  C   UNL     1       1.846   6.199   0.162  0.00  0.00    +0.050 A 
ATOM     33  C   UNL     1       2.074   6.937  -0.993  0.00  0.00    +0.166 A 
ATOM     34  C   UNL     1       2.254   6.286  -2.215  0.00  0.00    +0.167 A 
ATOM     35  C   UNL     1       2.206   4.908  -2.278  0.00  0.00    +0.061 A 
ATOM     36  O   UNL     1       2.460   7.227  -3.183  0.00  0.00    -0.453 OA
ATOM     37  C   UNL     1       2.810   8.432  -2.477  0.00  0.00    +0.466 C 
ATOM     38  O   UNL     1       2.166   8.281  -1.199  0.00  0.00    -0.453 OA
ENDBRANCH  28  30
ENDBRANCH  13  28
TORSDOF 3
