REMARK  Name = ZINC39673657
REMARK  10 active torsions:
REMARK  status: ('A' for Active; 'I' for Inactive)
REMARK    1  A    between atoms: C_1  and  C_2
REMARK    2  A    between atoms: C_2  and  C_3
REMARK    3  A    between atoms: C_3  and  C_4
REMARK    4  A    between atoms: C_4  and  C_6
REMARK    5  A    between atoms: C_4  and  N_7
REMARK    6  A    between atoms: C_8  and  C_10
REMARK    7  A    between atoms: C_21  and  C_23
REMARK    8  A    between atoms: C_28  and  O_29
REMARK    9  A    between atoms: O_29  and  C_30
REMARK   10  A    between atoms: C_30  and  C_31
REMARK                            x       y       z     vdW  Elec       q    Type
REMARK                         _______ _______ _______ _____ _____    ______ ____
ROOT
ATOM      1  C   UNL     1       2.136  -4.214  -1.603  0.00  0.00    +0.100 C 
ATOM      2  C   UNL     1       3.643  -4.213  -1.260  0.00  0.00    +0.121 C 
ATOM      3  N   UNL     1       3.924  -5.595  -0.805  0.00  0.00    -0.296 N 
ATOM      4  C   UNL     1       3.123  -6.452  -1.713  0.00  0.00    +0.115 C 
ATOM      5  C   UNL     1       1.800  -5.684  -1.904  0.00  0.00    -0.004 C 
ATOM      6  C   UNL     1       1.307  -5.831  -3.340  0.00  0.00    -0.010 C 
ATOM      7  C   UNL     1       0.923  -7.291  -3.597  0.00  0.00    -0.082 C 
ATOM      8  N   UNL     1      -0.126  -7.697  -2.654  0.00  0.00    +0.379 N 
ATOM      9  C   UNL     1       0.388  -7.642  -1.280  0.00  0.00    -0.082 C 
ATOM     10  C   UNL     1       0.748  -6.197  -0.925  0.00  0.00    -0.010 C 
ATOM     11  C   UNL     1       4.726  -5.986   0.205  0.00  0.00    +0.250 C 
ATOM     12  O   UNL     1       5.244  -5.154   0.926  0.00  0.00    -0.270 OA
ATOM     13  H   UNL     1      -0.914  -7.074  -2.742  0.00  0.00    -0.086 HD
ATOM     14  H   UNL     1      -0.419  -8.639  -2.864  0.00  0.00    -0.086 HD
ENDROOT
BRANCH  11  15
ATOM     15  C   UNL     1       4.975  -7.421   0.437  0.00  0.00    +0.078 A 
ATOM     16  C   UNL     1       5.057  -8.303  -0.643  0.00  0.00    +0.017 A 
ATOM     17  C   UNL     1       5.291  -9.643  -0.420  0.00  0.00    +0.001 A 
ATOM     18  C   UNL     1       5.444 -10.120   0.871  0.00  0.00    +0.004 A 
ATOM     19  C   UNL     1       5.365  -9.259   1.948  0.00  0.00    +0.046 A 
ATOM     20  C   UNL     1       5.136  -7.907   1.742  0.00  0.00    +0.133 A 
BRANCH  20  21
ATOM     21  O   UNL     1       5.063  -7.059   2.798  0.00  0.00    -0.491 OA
BRANCH  21  22
ATOM     22  C   UNL     1       5.237  -7.626   4.098  0.00  0.00    +0.226 C 
ATOM     23  C   UNL     1       5.123  -6.525   5.154  0.00  0.00    +0.048 C 
ENDBRANCH  21  22
ENDBRANCH  20  21
ENDBRANCH  11  15
BRANCH   1  25
ATOM     24  N   UNL     1       0.168  -3.069  -0.636  0.00  0.00    -0.312 N 
ATOM     25  C   UNL     1       1.330  -3.721  -0.429  0.00  0.00    +0.218 C 
ATOM     26  O   UNL     1       1.727  -3.910   0.701  0.00  0.00    -0.275 OA
ATOM     27  H   UNL     1      -0.149  -2.918  -1.540  0.00  0.00    +0.149 HD
BRANCH  24  28
ATOM     28  C   UNL     1      -0.615  -2.590   0.506  0.00  0.00    +0.070 C 
ATOM     29  C   UNL     1      -0.094  -1.220   0.943  0.00  0.00    +0.028 C 
BRANCH  28  30
ATOM     30  C   UNL     1      -2.086  -2.470   0.101  0.00  0.00    +0.022 C 
BRANCH  30  32
ATOM     31  C   UNL     1      -4.112  -3.741  -0.622  0.00  0.00    +0.004 C 
ATOM     32  C   UNL     1      -2.642  -3.860  -0.217  0.00  0.00    -0.002 C 
ENDBRANCH  30  32
ENDBRANCH  28  30
ENDBRANCH  24  28
ENDBRANCH   1  25
TORSDOF 7
