REMARK  Name = ZINC39601905
REMARK  10 active torsions:
REMARK  status: ('A' for Active; 'I' for Inactive)
REMARK    1  A    between atoms: C_1  and  C_2
REMARK    2  A    between atoms: C_4  and  C_11
REMARK    3  A    between atoms: C_5  and  C_7
REMARK    4  A    between atoms: C_15  and  C_24
REMARK    5  A    between atoms: N_26  and  C_27
REMARK    6  A    between atoms: C_27  and  C_28
REMARK    7  A    between atoms: C_28  and  O_29
REMARK    8  A    between atoms: O_29  and  C_30
REMARK    9  A    between atoms: C_30  and  C_31
REMARK   10  A    between atoms: C_31  and  O_32
REMARK                            x       y       z     vdW  Elec       q    Type
REMARK                         _______ _______ _______ _____ _____    ______ ____
ROOT
ATOM      1  C   UNL     1      -0.856  -2.896  -0.336  0.00  0.00    +0.250 C 
ATOM      2  O   UNL     1      -0.268  -3.959  -0.281  0.00  0.00    -0.270 OA
ATOM      3  N   UNL     1      -2.197  -2.861  -0.207  0.00  0.00    -0.296 N 
ATOM      4  C   UNL     1      -3.096  -1.695  -0.380  0.00  0.00    +0.121 C 
ATOM      5  C   UNL     1      -4.339  -2.265  -1.099  0.00  0.00    +0.100 C 
ATOM      6  C   UNL     1      -4.342  -3.763  -0.751  0.00  0.00    -0.004 C 
ATOM      7  C   UNL     1      -3.107  -3.980   0.135  0.00  0.00    +0.115 C 
ATOM      8  C   UNL     1      -5.612  -4.126   0.011  0.00  0.00    -0.010 C 
ATOM      9  C   UNL     1      -5.619  -5.631   0.295  0.00  0.00    -0.082 C 
ATOM     10  N   UNL     1      -5.557  -6.370  -0.972  0.00  0.00    +0.379 N 
ATOM     11  C   UNL     1      -4.290  -6.086  -1.655  0.00  0.00    -0.082 C 
ATOM     12  C   UNL     1      -4.226  -4.600  -2.022  0.00  0.00    -0.010 C 
ATOM     13  H   UNL     1      -5.623  -7.359  -0.786  0.00  0.00    -0.086 HD
ATOM     14  H   UNL     1      -6.326  -6.089  -1.562  0.00  0.00    -0.086 HD
ENDROOT
BRANCH   1  18
ATOM     15  C   UNL     1       0.371   2.034  -0.803  0.00  0.00    +0.086 C 
ATOM     16  C   UNL     1       0.419   0.528  -0.747  0.00  0.00    +0.103 A 
ATOM     17  C   UNL     1      -0.626  -0.274  -0.497  0.00  0.00    +0.058 A 
ATOM     18  C   UNL     1      -0.103  -1.647  -0.545  0.00  0.00    +0.087 A 
ATOM     19  C   UNL     1       1.227  -1.523  -0.825  0.00  0.00    +0.220 A 
ATOM     20  O   UNL     1       1.513  -0.223  -0.945  0.00  0.00    -0.455 OA
BRANCH  19  21
ATOM     21  C   UNL     1       2.205  -2.659  -0.978  0.00  0.00    +0.451 C 
ATOM     22  F   UNL     1       2.242  -3.066  -2.315  0.00  0.00    -0.163 F 
ATOM     23  F   UNL     1       3.479  -2.234  -0.584  0.00  0.00    -0.163 F 
ATOM     24  F   UNL     1       1.804  -3.732  -0.174  0.00  0.00    -0.163 F 
ENDBRANCH  19  21
ENDBRANCH   1  18
BRANCH   5  25
ATOM     25  C   UNL     1      -4.219  -2.070  -2.589  0.00  0.00    +0.218 C 
ATOM     26  O   UNL     1      -3.124  -2.001  -3.105  0.00  0.00    -0.275 OA
ATOM     27  N   UNL     1      -5.329  -1.972  -3.347  0.00  0.00    -0.313 N 
ATOM     28  H   UNL     1      -6.203  -1.954  -2.927  0.00  0.00    +0.149 HD
BRANCH  27  29
ATOM     29  C   UNL     1      -5.215  -1.892  -4.806  0.00  0.00    +0.132 C 
BRANCH  29  30
ATOM     30  C   UNL     1      -6.601  -1.665  -5.414  0.00  0.00    +0.178 C 
BRANCH  30  31
ATOM     31  O   UNL     1      -7.088  -0.380  -5.023  0.00  0.00    -0.376 OA
BRANCH  31  32
ATOM     32  C   UNL     1      -8.426  -0.112  -5.448  0.00  0.00    +0.187 C 
BRANCH  32  33
ATOM     33  C   UNL     1      -8.798   1.327  -5.085  0.00  0.00    +0.184 C 
BRANCH  33  34
ATOM     34  O   UNL     1      -7.984   2.233  -5.833  0.00  0.00    -0.393 OA
ATOM     35  H   UNL     1      -8.165   3.165  -5.652  0.00  0.00    +0.209 HD
ENDBRANCH  33  34
ENDBRANCH  32  33
ENDBRANCH  31  32
ENDBRANCH  30  31
ENDBRANCH  29  30
ENDBRANCH  27  29
ENDBRANCH   5  25
TORSDOF 9
