REMARK  Name = ZINC07742618
REMARK  9 active torsions:
REMARK  status: ('A' for Active; 'I' for Inactive)
REMARK    1  A    between atoms: C_1  and  C_2
REMARK    2  A    between atoms: C_6  and  N_9
REMARK    3  A    between atoms: C_7  and  C_8
REMARK    4  A    between atoms: C_13  and  S_15
REMARK    5  A    between atoms: S_15  and  C_16
REMARK    6  A    between atoms: C_16  and  C_18
REMARK    7  A    between atoms: C_16  and  C_21
REMARK    8  A    between atoms: C_18  and  C_19
REMARK    9  A    between atoms: C_18  and  C_20
REMARK                            x       y       z     vdW  Elec       q    Type
REMARK                         _______ _______ _______ _____ _____    ______ ____
ROOT
ATOM      1  N   UNL     1       3.332   2.128  -0.918  0.00  0.00    -0.292 N 
ATOM      2  C   UNL     1       3.363   3.516  -0.841  0.00  0.00    +0.187 A 
ATOM      3  N   UNL     1       2.373   4.364  -0.637  0.00  0.00    -0.125 NA
ATOM      4  N   UNL     1       2.627   5.715  -0.593  0.00  0.00    -0.133 NA
ATOM      5  C   UNL     1       3.858   6.157  -0.765  0.00  0.00    +0.161 A 
ATOM      6  S   UNL     1       4.752   4.628  -0.999  0.00  0.00    -0.024 S 
ATOM      7  H   UNL     1       4.159   1.629  -1.006  0.00  0.00    +0.154 HD
ENDROOT
BRANCH   1  13
ATOM      8  C   UNL     1       0.804  -2.072  -1.272  0.00  0.00    +0.044 C 
ATOM      9  C   UNL     1       0.855  -0.584  -1.038  0.00  0.00    -0.046 A 
ATOM     10  C   UNL     1      -0.310   0.114  -0.774  0.00  0.00    +0.004 A 
ATOM     11  C   UNL     1      -0.267   1.480  -0.558  0.00  0.00    +0.002 A 
ATOM     12  C   UNL     1       0.939   2.151  -0.605  0.00  0.00    +0.023 A 
ATOM     13  C   UNL     1       2.110   1.452  -0.870  0.00  0.00    +0.036 A 
ATOM     14  C   UNL     1       2.064   0.081  -1.086  0.00  0.00    -0.026 A 
ATOM     15  C   UNL     1       3.333  -0.681  -1.373  0.00  0.00    +0.046 C 
ENDBRANCH   1  13
BRANCH   5  16
ATOM     16  S   UNL     1       4.460   7.813  -0.764  0.00  0.00    -0.084 S 
BRANCH  16  17
ATOM     17  C   UNL     1       3.011   8.807  -0.312  0.00  0.00    +0.142 C 
BRANCH  17  18
ATOM     18  C   UNL     1       2.606   8.489   1.104  0.00  0.00    +0.234 C 
ATOM     19  O   UNL     1       3.426   8.059   1.887  0.00  0.00    -0.274 OA
ATOM     20  N   UNL     1       1.332   8.682   1.501  0.00  0.00    -0.239 N 
ATOM     21  C   UNL     1       0.970   8.397   2.767  0.00  0.00    +0.303 C 
ATOM     22  O   UNL     1       1.792   7.966   3.552  0.00  0.00    -0.253 OA
ATOM     23  N   UNL     1      -0.303   8.591   3.163  0.00  0.00    -0.313 N 
ATOM     24  H   UNL     1       0.676   9.026   0.874  0.00  0.00    +0.159 HD
ATOM     25  H   UNL     1      -0.959   8.935   2.537  0.00  0.00    +0.146 HD
ATOM     26  H   UNL     1      -0.564   8.386   4.075  0.00  0.00    +0.146 HD
ENDBRANCH  17  18
BRANCH  17  27
ATOM     27  C   UNL     1       3.357  10.293  -0.422  0.00  0.00    +0.005 C 
ATOM     28  C   UNL     1       3.764  10.617  -1.861  0.00  0.00    +0.009 C 
ATOM     29  C   UNL     1       2.137  11.131  -0.035  0.00  0.00    +0.009 C 
ENDBRANCH  17  27
ENDBRANCH  16  17
ENDBRANCH   5  16
TORSDOF 5
