REMARK  Name = ZINC46095470
REMARK  7 active torsions:
REMARK  status: ('A' for Active; 'I' for Inactive)
REMARK    1  A    between atoms: C_1  and  C_2
REMARK    2  A    between atoms: C_2  and  C_4
REMARK    3  A    between atoms: C_2  and  S_11
REMARK    4  A    between atoms: S_11  and  C_14
REMARK    5  A    between atoms: C_14  and  C_16
REMARK    6  A    between atoms: C_14  and  C_17
REMARK    7  A    between atoms: C_22  and  C_25
REMARK                            x       y       z     vdW  Elec       q    Type
REMARK                         _______ _______ _______ _____ _____    ______ ____
ROOT
ATOM      1  C   UNL     1      -2.314   0.161  -1.341  0.00  0.00    +0.213 C 
ATOM      2  C   UNL     1      -1.935   1.643  -1.323  0.00  0.00    +0.042 C 
ENDROOT
BRANCH   1   3
ATOM      3  C   UNL     1      -3.814   0.025  -1.292  0.00  0.00    +0.240 C 
ATOM      4  O   UNL     1      -4.373  -0.143  -0.228  0.00  0.00    -0.274 OA
ATOM      5  N   UNL     1      -4.534   0.089  -2.429  0.00  0.00    -0.300 N 
ATOM      6  C   UNL     1      -3.871   0.286  -3.725  0.00  0.00    +0.108 C 
ATOM      7  C   UNL     1      -4.509   1.488  -4.428  0.00  0.00    +0.032 C 
ATOM      8  C   UNL     1      -6.021   1.275  -4.522  0.00  0.00    +0.078 C 
ATOM      9  C   UNL     1      -6.612   1.170  -3.114  0.00  0.00    +0.032 C 
ATOM     10  C   UNL     1      -5.997  -0.042  -2.397  0.00  0.00    +0.108 C 
BRANCH   8  11
ATOM     11  C   UNL     1      -6.648   2.440  -5.244  0.00  0.00    +0.214 C 
ATOM     12  O   UNL     1      -5.954   3.350  -5.644  0.00  0.00    -0.276 OA
ATOM     13  N   UNL     1      -7.981   2.470  -5.445  0.00  0.00    -0.329 N 
ATOM     14  H   UNL     1      -8.536   1.742  -5.126  0.00  0.00    +0.145 HD
ATOM     15  H   UNL     1      -8.384   3.220  -5.910  0.00  0.00    +0.145 HD
ENDBRANCH   8  11
ENDBRANCH   1   3
BRANCH   1  16
ATOM     16  S   UNL     1      -1.584  -0.667   0.099  0.00  0.00    -0.013 S 
ATOM     17  O   UNL     1      -2.179  -0.133   1.274  0.00  0.00    -0.173 OA
ATOM     18  O   UNL     1      -0.170  -0.637  -0.035  0.00  0.00    -0.173 OA
BRANCH  16  20
ATOM     19  C   UNL     1      -1.508  -2.984  -1.353  0.00  0.00    +0.037 C 
ATOM     20  C   UNL     1      -2.143  -2.381  -0.098  0.00  0.00    +0.159 C 
BRANCH  20  21
ATOM     21  C   UNL     1      -1.733  -3.185   1.109  0.00  0.00    -0.005 A 
ATOM     22  C   UNL     1      -0.652  -2.785   1.871  0.00  0.00    +0.007 A 
ATOM     23  C   UNL     1      -0.276  -3.522   2.978  0.00  0.00    +0.000 A 
ATOM     24  C   UNL     1      -0.980  -4.661   3.323  0.00  0.00    +0.001 A 
ATOM     25  C   UNL     1      -2.061  -5.062   2.562  0.00  0.00    +0.020 A 
ATOM     26  C   UNL     1      -2.442  -4.321   1.457  0.00  0.00    +0.046 A 
ATOM     27 CL   UNL     1      -3.804  -4.821   0.503  0.00  0.00    -0.083 Cl
ENDBRANCH  20  21
ENDBRANCH  16  20
ENDBRANCH   1  16
TORSDOF 5
