REMARK  Name = ZINC15947818
REMARK  6 active torsions:
REMARK  status: ('A' for Active; 'I' for Inactive)
REMARK    1  A    between atoms: C_1  and  C_2
REMARK    2  A    between atoms: C_11  and  O_31
REMARK    3  A    between atoms: C_13  and  C_16
REMARK    4  A    between atoms: C_18  and  C_23
REMARK    5  A    between atoms: C_21  and  O_22
REMARK    6  A    between atoms: C_23  and  C_24
REMARK                            x       y       z     vdW  Elec       q    Type
REMARK                         _______ _______ _______ _____ _____    ______ ____
ROOT
ATOM      1  C   UNL     1      -0.019   1.526   0.010  0.00  0.00    +0.008 C 
ATOM      2  C   UNL     1       0.002  -0.004   0.002  0.00  0.00    -0.009 C 
ATOM      3  C   UNL     1      -1.433  -0.537   0.019  0.00  0.00    +0.008 C 
ATOM      4  C   UNL     1      -1.432  -2.045  -0.237  0.00  0.00    +0.037 C 
ATOM      5  C   UNL     1      -0.467  -2.705   0.737  0.00  0.00    -0.023 A 
ATOM      6  C   UNL     1       0.482  -1.985   1.377  0.00  0.00    -0.004 A 
ATOM      7  S   UNL     1       1.343  -3.163   2.383  0.00  0.00    -0.078 S 
ATOM      8  C   UNL     1       0.495  -4.532   1.987  0.00  0.00    +0.080 A 
ATOM      9  C   UNL     1      -0.471  -4.120   1.062  0.00  0.00    +0.068 A 
ATOM     10  C   UNL     1      -1.381  -5.159   0.513  0.00  0.00    +0.220 C 
ATOM     11  N   UNL     1      -1.394  -6.324   1.100  0.00  0.00    -0.223 NA
ATOM     12  C   UNL     1      -0.626  -6.657   2.294  0.00  0.00    +0.227 C 
ATOM     13  N   UNL     1       0.598  -5.843   2.397  0.00  0.00    -0.313 N 
ATOM     14  C   UNL     1       0.739  -0.515   1.249  0.00  0.00    +0.046 C 
ATOM     15  H   UNL     1       1.430  -6.210   2.735  0.00  0.00    +0.149 HD
ENDROOT
BRANCH  12  16
ATOM     16  C   UNL     1      -1.481  -6.414   3.511  0.00  0.00    +0.036 A 
ATOM     17  C   UNL     1      -2.858  -6.462   3.410  0.00  0.00    +0.015 A 
ATOM     18  C   UNL     1      -3.642  -6.239   4.527  0.00  0.00    -0.042 A 
ATOM     19  C   UNL     1      -3.051  -5.968   5.747  0.00  0.00    +0.007 A 
ATOM     20  C   UNL     1      -1.674  -5.919   5.853  0.00  0.00    +0.046 A 
ATOM     21  C   UNL     1      -0.885  -6.148   4.735  0.00  0.00    +0.124 A 
BRANCH  21  22
ATOM     22  O   UNL     1       0.470  -6.106   4.838  0.00  0.00    -0.506 OA
ATOM     23  H   UNL     1       0.849  -5.230   4.686  0.00  0.00    +0.292 HD
ENDBRANCH  21  22
BRANCH  18  24
ATOM     24  C   UNL     1      -5.144  -6.291   4.414  0.00  0.00    +0.071 C 
BRANCH  24  25
ATOM     25  C   UNL     1      -5.619  -7.698   4.672  0.00  0.00    -0.025 A 
ATOM     26  C   UNL     1      -5.833  -8.560   3.613  0.00  0.00    +0.005 A 
ATOM     27  C   UNL     1      -6.269  -9.850   3.850  0.00  0.00    +0.000 A 
ATOM     28  C   UNL     1      -6.490 -10.279   5.145  0.00  0.00    +0.001 A 
ATOM     29  C   UNL     1      -6.276  -9.418   6.205  0.00  0.00    +0.020 A 
ATOM     30  C   UNL     1      -5.834  -8.128   5.969  0.00  0.00    +0.044 A 
ATOM     31 CL   UNL     1      -5.558  -7.048   7.299  0.00  0.00    -0.083 Cl
ENDBRANCH  24  25
ENDBRANCH  18  24
ENDBRANCH  12  16
BRANCH  10  32
ATOM     32  O   UNL     1      -2.168  -4.905  -0.558  0.00  0.00    -0.492 OA
ATOM     33  H   UNL     1      -2.718  -5.653  -0.828  0.00  0.00    +0.294 HD
ENDBRANCH  10  32
TORSDOF 5
