REMARK  Name = ZINC62720519
REMARK  4 active torsions:
REMARK  status: ('A' for Active; 'I' for Inactive)
REMARK    1  A    between atoms: C_1  and  N_2
REMARK    2  A    between atoms: N_11  and  C_16
REMARK    3  A    between atoms: N_14  and  N_15
REMARK    4  A    between atoms: C_16  and  C_17
REMARK                            x       y       z     vdW  Elec       q    Type
REMARK                         _______ _______ _______ _____ _____    ______ ____
ROOT
ATOM      1  C   UNL     1       0.798   0.862  -0.994  0.00  0.00    +0.155 C 
ATOM      2  N   UNL     1       0.595  -0.579  -0.829  0.00  0.00    -0.280 N 
ATOM      3  C   UNL     1      -0.619  -1.058  -0.363  0.00  0.00    +0.170 A 
ATOM      4  C   UNL     1      -0.785  -2.431  -0.216  0.00  0.00    +0.153 A 
ATOM      5  C   UNL     1       0.279  -3.291  -0.543  0.00  0.00    +0.280 A 
ATOM      6  O   UNL     1       0.155  -4.497  -0.422  0.00  0.00    -0.265 OA
ATOM      7  N   UNL     1       1.437  -2.766  -0.992  0.00  0.00    -0.273 N 
ATOM      8  H   UNL     1       2.173  -3.356  -1.219  0.00  0.00    +0.173 HD
ATOM      9  C   UNL     1       1.586  -1.437  -1.135  0.00  0.00    +0.331 A 
ATOM     10  O   UNL     1       2.643  -1.000  -1.547  0.00  0.00    -0.246 OA
ATOM     11  N   UNL     1      -2.076  -2.620   0.259  0.00  0.00    -0.301 N 
ATOM     12  C   UNL     1      -2.633  -1.386   0.381  0.00  0.00    +0.212 A 
ATOM     13  N   UNL     1      -1.759  -0.473   0.009  0.00  0.00    -0.195 NA
ATOM     14  N   UNL     1      -3.911  -1.130   0.822  0.00  0.00    -0.253 N 
ATOM     15  H   UNL     1      -4.535  -1.861   0.950  0.00  0.00    +0.169 HD
ENDROOT
BRANCH  14  16
ATOM     16  N   UNL     1      -4.300   0.154   1.081  0.00  0.00    -0.254 NA
ATOM     17  H   UNL     1      -5.258   0.185   1.395  0.00  0.00    +0.140 HD
ATOM     18  H   UNL     1      -3.685   0.590   1.751  0.00  0.00    +0.140 HD
ENDBRANCH  14  16
BRANCH  11  19
ATOM     19  C   UNL     1      -2.715  -3.902   0.570  0.00  0.00    +0.163 C 
BRANCH  19  20
ATOM     20  C   UNL     1      -2.777  -4.083   2.064  0.00  0.00    +0.009 A 
ATOM     21  C   UNL     1      -1.622  -4.352   2.777  0.00  0.00    +0.047 A 
ATOM     22  C   UNL     1      -1.679  -4.519   4.149  0.00  0.00    +0.020 A 
ATOM     23  C   UNL     1      -2.890  -4.417   4.808  0.00  0.00    +0.003 A 
ATOM     24  C   UNL     1      -4.044  -4.149   4.097  0.00  0.00    +0.020 A 
ATOM     25  C   UNL     1      -3.987  -3.976   2.725  0.00  0.00    +0.047 A 
ATOM     26 CL   UNL     1      -5.436  -3.631   1.833  0.00  0.00    -0.083 Cl
ATOM     27 CL   UNL     1      -0.101  -4.481   1.950  0.00  0.00    -0.083 Cl
ENDBRANCH  19  20
ENDBRANCH  11  19
TORSDOF 3
