REMARK  Name = ZINC38212279
REMARK  5 active torsions:
REMARK  status: ('A' for Active; 'I' for Inactive)
REMARK    1  A    between atoms: C_3  and  O_27
REMARK    2  A    between atoms: C_6  and  C_7
REMARK    3  A    between atoms: C_10  and  S_12
REMARK    4  A    between atoms: S_12  and  C_13
REMARK    5  A    between atoms: C_13  and  C_14
REMARK                            x       y       z     vdW  Elec       q    Type
REMARK                         _______ _______ _______ _____ _____    ______ ____
ROOT
ATOM      1  C   UNL     1      -5.251  -3.594   0.037  0.00  0.00    +0.175 C 
ENDROOT
BRANCH   1   2
ATOM      2  C   UNL     1      -6.024  -4.888   0.043  0.00  0.00    +0.229 C 
ATOM      3  O   UNL     1      -5.434  -5.947   0.038  0.00  0.00    -0.275 OA
ATOM      4  N   UNL     1      -7.372  -4.867   0.052  0.00  0.00    -0.264 N 
ATOM      5  C   UNL     1      -8.083  -6.056   0.057  0.00  0.00    +0.165 A 
ATOM      6  N   UNL     1      -7.628  -7.287   0.059  0.00  0.00    -0.225 NA
ATOM      7  C   UNL     1      -8.445  -8.363   0.064  0.00  0.00    +0.080 A 
ATOM      8  C   UNL     1      -8.087  -9.731   0.066  0.00  0.00    +0.030 A 
ATOM      9  C   UNL     1      -9.049 -10.707   0.070  0.00  0.00    +0.017 A 
ATOM     10  C   UNL     1     -10.401 -10.392   0.071  0.00  0.00    +0.019 A 
ATOM     11  C   UNL     1     -10.787  -9.064   0.070  0.00  0.00    +0.032 A 
ATOM     12  C   UNL     1      -9.830  -8.080   0.066  0.00  0.00    +0.042 A 
ATOM     13  S   UNL     1      -9.853  -6.303   0.069  0.00  0.00    -0.052 S 
ATOM     14 BR   UNL     1     -11.701 -11.765   0.075  0.00  0.00    -0.050 Br
ATOM     15  H   UNL     1      -7.844  -4.019   0.056  0.00  0.00    +0.157 HD
ENDBRANCH   1   2
BRANCH   1  16
ATOM     16  S   UNL     1      -3.473  -3.953   0.025  0.00  0.00    -0.056 S 
BRANCH  16  20
ATOM     17  C   UNL     1      -1.266  -0.762   0.011  0.00  0.00    +0.249 A 
ATOM     18  N   UNL     1      -2.474  -0.254   0.020  0.00  0.00    -0.106 NA
ATOM     19  N   UNL     1      -3.339  -1.206   0.025  0.00  0.00    -0.101 NA
ATOM     20  C   UNL     1      -2.716  -2.361   0.020  0.00  0.00    +0.278 A 
ATOM     21  O   UNL     1      -1.394  -2.107   0.005  0.00  0.00    -0.411 OA
BRANCH  17  27
ATOM     22  C   UNL     1      -0.017   1.392   0.010  0.00  0.00    +0.017 A 
ATOM     23  C   UNL     1       1.169   2.096   0.002  0.00  0.00    +0.046 A 
ATOM     24  C   UNL     1       2.380   1.418  -0.013  0.00  0.00    +0.117 A 
ATOM     25  C   UNL     1       2.404   0.029  -0.021  0.00  0.00    +0.046 A 
ATOM     26  C   UNL     1       1.223  -0.682  -0.013  0.00  0.00    +0.017 A 
ATOM     27  C   UNL     1       0.002  -0.004   0.002  0.00  0.00    +0.039 A 
BRANCH  24  28
ATOM     28  O   UNL     1       3.546   2.115  -0.022  0.00  0.00    -0.507 OA
ATOM     29  H   UNL     1       3.893   2.312   0.859  0.00  0.00    +0.292 HD
ENDBRANCH  24  28
ENDBRANCH  17  27
ENDBRANCH  16  20
ENDBRANCH   1  16
TORSDOF 5
