REMARK  Name = ZINC61525698
REMARK  6 active torsions:
REMARK  status: ('A' for Active; 'I' for Inactive)
REMARK    1  A    between atoms: C_1  and  C_2
REMARK    2  A    between atoms: N_7  and  C_8
REMARK    3  A    between atoms: C_8  and  C_9
REMARK    4  A    between atoms: C_9  and  C_10
REMARK    5  A    between atoms: C_10  and  N_11
REMARK    6  A    between atoms: C_12  and  C_14
REMARK                            x       y       z     vdW  Elec       q    Type
REMARK                         _______ _______ _______ _____ _____    ______ ____
ROOT
ATOM      1  N   UNL     1       4.830  -0.113   3.802  0.00  0.00    -0.315 N 
ATOM      2  C   UNL     1       6.088   0.304   4.047  0.00  0.00    +0.216 C 
ATOM      3  O   UNL     1       6.664   1.000   3.238  0.00  0.00    -0.276 OA
ATOM      4  H   UNL     1       4.370  -0.670   4.449  0.00  0.00    +0.149 HD
ENDROOT
BRANCH   2   5
ATOM      5  C   UNL     1       6.779  -0.095   5.325  0.00  0.00    +0.078 C 
ATOM      6  C   UNL     1       5.978   0.423   6.521  0.00  0.00    +0.032 C 
ATOM      7  C   UNL     1       6.664  -0.014   7.819  0.00  0.00    +0.110 C 
ATOM      8  N   UNL     1       8.062   0.437   7.789  0.00  0.00    -0.286 N 
ATOM      9  C   UNL     1       8.898   0.070   6.638  0.00  0.00    +0.110 C 
ATOM     10  C   UNL     1       8.187   0.506   5.353  0.00  0.00    +0.032 C 
ATOM     11  C   UNL     1       8.569   1.173   8.799  0.00  0.00    +0.300 C 
ATOM     12  O   UNL     1       7.843   1.550   9.699  0.00  0.00    -0.253 OA
ATOM     13  N   UNL     1       9.878   1.490   8.810  0.00  0.00    -0.313 N 
ATOM     14  H   UNL     1      10.442   1.251   8.058  0.00  0.00    +0.146 HD
ATOM     15  H   UNL     1      10.257   1.957   9.571  0.00  0.00    +0.146 HD
ENDBRANCH   2   5
BRANCH   1  16
ATOM     16  C   UNL     1       4.159   0.275   2.560  0.00  0.00    +0.102 C 
BRANCH  16  17
ATOM     17  C   UNL     1       2.752  -0.326   2.531  0.00  0.00    +0.000 C 
BRANCH  17  18
ATOM     18  C   UNL     1       2.050   0.079   1.233  0.00  0.00    -0.077 C 
BRANCH  18  25
ATOM     19  C   UNL     1      -0.040   1.518   0.031  0.00  0.00    -0.013 C 
ATOM     20  C   UNL     1      -0.015  -0.012   0.019  0.00  0.00    -0.072 C 
ATOM     21  C   UNL     1      -1.449  -0.546   0.029  0.00  0.00    -0.016 C 
ATOM     22  C   UNL     1      -1.418  -2.077   0.017  0.00  0.00    -0.003 C 
ATOM     23  C   UNL     1      -0.608  -2.571   1.218  0.00  0.00    -0.019 C 
ATOM     24  C   UNL     1       0.795  -1.962   1.165  0.00  0.00    -0.078 C 
ATOM     25  N   UNL     1       0.700  -0.498   1.206  0.00  0.00    +0.381 N 
ATOM     26  H   UNL     1       0.200  -0.218   2.037  0.00  0.00    -0.081 HD
ENDBRANCH  18  25
ENDBRANCH  17  18
ENDBRANCH  16  17
ENDBRANCH   1  16
TORSDOF 5
