REMARK  Name = ZINC66756234
REMARK  6 active torsions:
REMARK  status: ('A' for Active; 'I' for Inactive)
REMARK    1  A    between atoms: C_1  and  C_2
REMARK    2  A    between atoms: C_3  and  N_11
REMARK    3  A    between atoms: C_7  and  N_8
REMARK    4  A    between atoms: C_12  and  C_14
REMARK    5  A    between atoms: N_19  and  C_21
REMARK    6  A    between atoms: C_24  and  C_27
REMARK                            x       y       z     vdW  Elec       q    Type
REMARK                         _______ _______ _______ _____ _____    ______ ____
ROOT
ATOM      1  N   UNL     1      -0.411   0.191  -2.476  0.00  0.00    -0.285 N 
ATOM      2  C   UNL     1      -0.694  -0.490  -3.604  0.00  0.00    +0.222 C 
ATOM      3  O   UNL     1      -0.661  -1.702  -3.605  0.00  0.00    -0.275 OA
ATOM      4  H   UNL     1      -0.385   1.160  -2.488  0.00  0.00    +0.155 HD
ENDROOT
BRANCH   1   7
ATOM      5  C   UNL     1      -1.256   1.369  -0.026  0.00  0.00    +0.048 C 
ATOM      6  C   UNL     1      -0.551   0.037  -0.069  0.00  0.00    +0.001 A 
ATOM      7  C   UNL     1      -0.155  -0.501  -1.287  0.00  0.00    +0.038 A 
ATOM      8  C   UNL     1       0.495  -1.727  -1.321  0.00  0.00    +0.024 A 
ATOM      9  C   UNL     1       0.746  -2.408  -0.146  0.00  0.00    +0.004 A 
ATOM     10  C   UNL     1       0.350  -1.869   1.065  0.00  0.00    +0.033 A 
ATOM     11  C   UNL     1      -0.292  -0.645   1.103  0.00  0.00    +0.131 A 
BRANCH  11  12
ATOM     12  N   UNL     1      -0.708  -0.069   2.401  0.00  0.00    +0.057 N 
ATOM     13  O   UNL     1      -0.804   1.129   2.528  0.00  0.00    -0.126 OA
ATOM     14  O   UNL     1      -0.952  -0.797   3.335  0.00  0.00    -0.126 OA
ENDBRANCH  11  12
ENDBRANCH   1   7
BRANCH   2  15
ATOM     15  C   UNL     1      -1.050   0.255  -4.864  0.00  0.00    +0.101 C 
ATOM     16  C   UNL     1      -2.374   1.035  -4.690  0.00  0.00    +0.110 C 
ATOM     17  C   UNL     1      -3.057   0.912  -6.035  0.00  0.00    +0.217 C 
ATOM     18  O   UNL     1      -3.978   1.605  -6.412  0.00  0.00    -0.276 OA
ATOM     19  N   UNL     1      -2.493  -0.076  -6.751  0.00  0.00    -0.298 N 
ATOM     20  C   UNL     1      -1.408  -0.725  -6.003  0.00  0.00    +0.121 C 
BRANCH  19  21
ATOM     21  C   UNL     1      -2.908  -0.458  -8.103  0.00  0.00    +0.076 C 
ATOM     22  C   UNL     1      -2.739   0.737  -9.044  0.00  0.00    +0.023 C 
ATOM     23  C   UNL     1      -3.172   0.339 -10.456  0.00  0.00    +0.005 C 
ATOM     24  C   UNL     1      -4.640  -0.092 -10.437  0.00  0.00    -0.014 C 
ATOM     25  C   UNL     1      -4.808  -1.287  -9.497  0.00  0.00    +0.005 C 
ATOM     26  C   UNL     1      -4.375  -0.889  -8.084  0.00  0.00    +0.023 C 
ATOM     27  C   UNL     1      -5.073  -0.490 -11.850  0.00  0.00    +0.007 C 
ENDBRANCH  19  21
ENDBRANCH   2  15
TORSDOF 4
