REMARK  Name = ZINC40317858
REMARK  12 active torsions:
REMARK  status: ('A' for Active; 'I' for Inactive)
REMARK    1  A    between atoms: C_1  and  C_2
REMARK    2  A    between atoms: C_2  and  O_3
REMARK    3  A    between atoms: O_3  and  C_4
REMARK    4  A    between atoms: C_7  and  C_10
REMARK    5  A    between atoms: C_10  and  N_11
REMARK    6  A    between atoms: N_11  and  C_12
REMARK    7  A    between atoms: N_11  and  C_26
REMARK    8  A    between atoms: C_12  and  C_13
REMARK    9  A    between atoms: C_13  and  C_15
REMARK   10  A    between atoms: C_13  and  O_25
REMARK   11  A    between atoms: C_15  and  O_16
REMARK   12  A    between atoms: O_16  and  C_17
REMARK                            x       y       z     vdW  Elec       q    Type
REMARK                         _______ _______ _______ _____ _____    ______ ____
ROOT
ATOM      1  N   UNL     1      -2.097  -6.514   1.253  0.00  0.00    +0.387 N 
ATOM      2  H   UNL     1      -2.819  -5.898   1.595  0.00  0.00    -0.081 HD
ENDROOT
BRANCH   1   3
ATOM      3  C   UNL     1      -0.786  -6.031   1.707  0.00  0.00    -0.045 C 
ATOM      4  C   UNL     1      -0.734  -4.498   1.604  0.00  0.00    +0.009 C 
ATOM      5  C   UNL     1       0.725  -4.007   1.768  0.00  0.00    +0.164 C 
ATOM      6  S   UNL     1       1.704  -5.436   1.149  0.00  0.00    -0.033 S 
ATOM      7  O   UNL     1       2.495  -5.949   2.212  0.00  0.00    -0.174 OA
ATOM      8  O   UNL     1       2.328  -5.073  -0.075  0.00  0.00    -0.174 OA
ATOM      9  C   UNL     1       0.333  -6.615   0.798  0.00  0.00    +0.151 C 
ENDBRANCH   1   3
BRANCH   1  10
ATOM     10  C   UNL     1      -2.128  -6.539  -0.215  0.00  0.00    -0.042 C 
BRANCH  10  14
ATOM     11  C   UNL     1      -2.106  -2.535  -1.709  0.00  0.00    +0.121 A 
ATOM     12  C   UNL     1      -0.931  -3.272  -1.679  0.00  0.00    +0.046 A 
ATOM     13  C   UNL     1      -0.941  -4.566  -1.196  0.00  0.00    +0.005 A 
ATOM     14  C   UNL     1      -2.120  -5.127  -0.742  0.00  0.00    -0.064 A 
ATOM     15  C   UNL     1      -3.293  -4.395  -0.770  0.00  0.00    +0.005 A 
ATOM     16  C   UNL     1      -3.287  -3.098  -1.247  0.00  0.00    +0.046 A 
BRANCH  11  17
ATOM     17  O   UNL     1      -2.099  -1.262  -2.183  0.00  0.00    -0.492 OA
BRANCH  17  19
ATOM     18  C   UNL     1      -1.036   0.689  -3.135  0.00  0.00    +0.048 C 
ATOM     19  C   UNL     1      -0.847  -0.747  -2.642  0.00  0.00    +0.225 C 
ENDBRANCH  17  19
ENDBRANCH  11  17
ENDBRANCH  10  14
ENDBRANCH   1  10
BRANCH   1  20
ATOM     20  C   UNL     1      -2.324  -7.870   1.771  0.00  0.00    -0.043 C 
BRANCH  20  21
ATOM     21  C   UNL     1      -2.456  -7.819   3.294  0.00  0.00    +0.135 C 
BRANCH  21  22
ATOM     22  O   UNL     1      -3.587  -7.020   3.648  0.00  0.00    -0.390 OA
ATOM     23  H   UNL     1      -4.426  -7.350   3.300  0.00  0.00    +0.210 HD
ENDBRANCH  21  22
BRANCH  21  24
ATOM     24  C   UNL     1      -2.644  -9.237   3.838  0.00  0.00    +0.258 C 
BRANCH  24  25
ATOM     25  O   UNL     1      -2.651  -9.202   5.266  0.00  0.00    -0.488 OA
BRANCH  25  26
ATOM     26  C   UNL     1      -2.810 -10.388   5.912  0.00  0.00    +0.139 A 
ATOM     27  C   UNL     1      -2.950 -11.561   5.185  0.00  0.00    +0.048 A 
ATOM     28  C   UNL     1      -3.112 -12.766   5.842  0.00  0.00    +0.023 A 
ATOM     29  C   UNL     1      -3.133 -12.803   7.225  0.00  0.00    +0.043 A 
ATOM     30  C   UNL     1      -2.993 -11.635   7.953  0.00  0.00    +0.043 A 
ATOM     31  C   UNL     1      -2.826 -10.428   7.299  0.00  0.00    +0.084 A 
ATOM     32 CL   UNL     1      -2.643  -8.963   8.212  0.00  0.00    -0.080 Cl
ATOM     33 CL   UNL     1      -3.336 -14.318   8.048  0.00  0.00    -0.083 Cl
ENDBRANCH  25  26
ENDBRANCH  24  25
ENDBRANCH  21  24
ENDBRANCH  20  21
ENDBRANCH   1  20
TORSDOF 11
