REMARK  Name = ZINC13953264
REMARK  8 active torsions:
REMARK  status: ('A' for Active; 'I' for Inactive)
REMARK    1  A    between atoms: C_1  and  C_2
REMARK    2  A    between atoms: C_2  and  C_16
REMARK    3  A    between atoms: N_3  and  N_4
REMARK    4  A    between atoms: C_5  and  C_7
REMARK    5  A    between atoms: C_9  and  O_15
REMARK    6  A    between atoms: C_10  and  O_14
REMARK    7  A    between atoms: C_11  and  O_13
REMARK    8  A    between atoms: C_20  and  N_22
REMARK                            x       y       z     vdW  Elec       q    Type
REMARK                         _______ _______ _______ _____ _____    ______ ____
ROOT
ATOM      1  N   UNL     1      -1.222   7.354   0.054  0.00  0.00    -0.203 N 
ATOM      2  C   UNL     1      -2.398   8.012   0.069  0.00  0.00    +0.263 C 
ATOM      3  O   UNL     1      -3.443   7.390   0.075  0.00  0.00    -0.268 OA
ATOM      4  H   UNL     1      -0.388   7.850   0.049  0.00  0.00    +0.178 HD
ENDROOT
BRANCH   2   5
ATOM      5  C   UNL     1      -2.418   9.487   0.077  0.00  0.00    +0.045 A 
ATOM      6  C   UNL     1      -1.218  10.204   0.076  0.00  0.00    +0.062 A 
ATOM      7  C   UNL     1      -1.240  11.586   0.079  0.00  0.00    +0.163 A 
ATOM      8  C   UNL     1      -2.455  12.264   0.095  0.00  0.00    +0.201 A 
ATOM      9  C   UNL     1      -3.652  11.553   0.101  0.00  0.00    +0.163 A 
ATOM     10  C   UNL     1      -3.636  10.171   0.093  0.00  0.00    +0.062 A 
BRANCH   9  11
ATOM     11  O   UNL     1      -4.838  12.219   0.117  0.00  0.00    -0.503 OA
ATOM     12  H   UNL     1      -5.173  12.406   1.004  0.00  0.00    +0.292 HD
ENDBRANCH   9  11
BRANCH   8  13
ATOM     13  O   UNL     1      -2.474  13.623   0.103  0.00  0.00    -0.501 OA
ATOM     14  H   UNL     1      -2.471  14.011   0.989  0.00  0.00    +0.292 HD
ENDBRANCH   8  13
BRANCH   7  15
ATOM     15  O   UNL     1      -0.072  12.284   0.072  0.00  0.00    -0.503 OA
ATOM     16  H   UNL     1       0.274  12.480   0.954  0.00  0.00    +0.292 HD
ENDBRANCH   7  15
ENDBRANCH   2   5
BRANCH   1  19
ATOM     17  C   UNL     1       1.225   6.091   0.024  0.00  0.00    +0.068 C 
ATOM     18  C   UNL     1      -0.070   5.320   0.032  0.00  0.00    +0.063 C 
ATOM     19  N   UNL     1      -1.203   5.953   0.046  0.00  0.00    -0.184 NA
BRANCH  18  20
ATOM     20  C   UNL     1      -0.050   3.845   0.023  0.00  0.00    -0.000 A 
ATOM     21  C   UNL     1       1.167   3.160   0.008  0.00  0.00    +0.010 A 
ATOM     22  C   UNL     1       1.178   1.781   0.000  0.00  0.00    +0.003 A 
ATOM     23  C   UNL     1      -0.013   1.076   0.008  0.00  0.00    +0.033 A 
ATOM     24  C   UNL     1      -1.222   1.748   0.017  0.00  0.00    +0.127 A 
ATOM     25  C   UNL     1      -1.248   3.127   0.031  0.00  0.00    +0.042 A 
BRANCH  24  26
ATOM     26  N   UNL     1      -2.490   0.985   0.019  0.00  0.00    +0.056 N 
ATOM     27  O   UNL     1      -2.469  -0.233   0.013  0.00  0.00    -0.126 OA
ATOM     28  O   UNL     1      -3.556   1.575   0.028  0.00  0.00    -0.126 OA
ENDBRANCH  24  26
ENDBRANCH  18  20
ENDBRANCH   1  19
TORSDOF 7
