REMARK  Name = ZINC39530579
REMARK  4 active torsions:
REMARK  status: ('A' for Active; 'I' for Inactive)
REMARK    1  A    between atoms: C_4  and  O_7
REMARK    2  A    between atoms: O_7  and  S_8
REMARK    3  A    between atoms: S_8  and  C_11
REMARK    4  A    between atoms: C_16  and  N_17
REMARK                            x       y       z     vdW  Elec       q    Type
REMARK                         _______ _______ _______ _____ _____    ______ ____
ROOT
ATOM      1  C   UNL     1       3.192  -2.273   2.002  0.00  0.00    +0.150 A 
ATOM      2  C   UNL     1       2.051  -2.014   2.737  0.00  0.00    +0.046 A 
ATOM      3  C   UNL     1       1.307  -3.060   3.252  0.00  0.00    +0.015 A 
ATOM      4  C   UNL     1       1.702  -4.368   3.034  0.00  0.00    +0.016 A 
ATOM      5  C   UNL     1       2.841  -4.633   2.300  0.00  0.00    +0.026 A 
ATOM      6  C   UNL     1       3.588  -3.586   1.776  0.00  0.00    +0.058 A 
ATOM      7  I   UNL     1      -0.423  -2.662   4.365  0.00  0.00    -0.044 I 
ENDROOT
BRANCH   6   8
ATOM      8  N   UNL     1       4.738  -3.851   1.029  0.00  0.00    -0.329 N 
ATOM      9  C   UNL     1       6.052  -3.973   1.680  0.00  0.00    +0.086 C 
ATOM     10  C   UNL     1       6.710  -5.272   1.204  0.00  0.00    -0.060 C 
ATOM     11  N   UNL     1       6.758  -5.287  -0.263  0.00  0.00    +0.400 N 
ATOM     12  C   UNL     1       5.394  -5.313  -0.807  0.00  0.00    +0.119 C 
ATOM     13  C   UNL     1       4.669  -4.022  -0.430  0.00  0.00    +0.120 C 
ATOM     14  O   UNL     1       5.451  -5.431  -2.230  0.00  0.00    -0.250 OA
ATOM     15  H   UNL     1       7.234  -4.460  -0.591  0.00  0.00    -0.082 HD
ATOM     16  H   UNL     1       7.258  -6.106  -0.574  0.00  0.00    -0.082 HD
ENDBRANCH   6   8
BRANCH   1  17
ATOM     17  S   UNL     1       4.140  -0.941   1.346  0.00  0.00    +0.153 S 
ATOM     18  O   UNL     1       5.458  -1.436   1.154  0.00  0.00    -0.131 OA
ATOM     19  O   UNL     1       3.863   0.192   2.158  0.00  0.00    -0.131 OA
BRANCH  17  20
ATOM     20  O   UNL     1       3.586  -0.632  -0.037  0.00  0.00    -0.342 OA
BRANCH  20  24
ATOM     21  C   UNL     1      -0.017   1.378   0.010  0.00  0.00    +0.000 A 
ATOM     22  C   UNL     1       1.170   2.088   0.002  0.00  0.00    +0.004 A 
ATOM     23  C   UNL     1       2.377   1.417  -0.013  0.00  0.00    +0.048 A 
ATOM     24  C   UNL     1       2.399   0.030  -0.021  0.00  0.00    +0.157 A 
ATOM     25  C   UNL     1       1.207  -0.680  -0.013  0.00  0.00    +0.048 A 
ATOM     26  C   UNL     1       0.002  -0.004   0.002  0.00  0.00    +0.004 A 
ENDBRANCH  20  24
ENDBRANCH  17  20
ENDBRANCH   1  17
TORSDOF 4
