REMARK  Name = ZINC52260576
REMARK  6 active torsions:
REMARK  status: ('A' for Active; 'I' for Inactive)
REMARK    1  A    between atoms: C_1  and  C_2
REMARK    2  A    between atoms: C_2  and  C_3
REMARK    3  A    between atoms: C_3  and  C_5
REMARK    4  A    between atoms: C_3  and  C_8
REMARK    5  A    between atoms: C_8  and  O_18
REMARK    6  A    between atoms: C_15  and  O_17
REMARK                            x       y       z     vdW  Elec       q    Type
REMARK                         _______ _______ _______ _____ _____    ______ ____
ROOT
ATOM      1  C   UNL     1      -1.994  -1.842  -0.547  0.00  0.00    +0.141 C 
ATOM      2  C   UNL     1      -2.066  -2.929   0.552  0.00  0.00    +0.269 C 
ATOM      3  O   UNL     1      -3.274  -3.635   0.224  0.00  0.00    -0.488 OA
ATOM      4  C   UNL     1      -4.127  -2.792  -0.421  0.00  0.00    +0.130 A 
ATOM      5  C   UNL     1      -3.454  -1.687  -0.929  0.00  0.00    +0.030 A 
ATOM      6  C   UNL     1      -4.126  -0.711  -1.631  0.00  0.00    +0.014 A 
ATOM      7  C   UNL     1      -5.490  -0.818  -1.832  0.00  0.00    +0.046 A 
ATOM      8  C   UNL     1      -6.176  -1.911  -1.324  0.00  0.00    +0.120 A 
ATOM      9  C   UNL     1      -5.500  -2.894  -0.622  0.00  0.00    +0.091 A 
ENDROOT
BRANCH   8  10
ATOM     10  O   UNL     1      -7.518  -2.018  -1.516  0.00  0.00    -0.507 OA
ATOM     11  H   UNL     1      -7.763  -2.488  -2.325  0.00  0.00    +0.292 HD
ENDBRANCH   8  10
BRANCH   1  12
ATOM     12  O   UNL     1      -1.220  -2.292  -1.661  0.00  0.00    -0.380 OA
ATOM     13  H   UNL     1      -1.535  -3.118  -2.051  0.00  0.00    +0.211 HD
ENDBRANCH   1  12
BRANCH   1  14
ATOM     14  C   UNL     1      -1.433  -0.534   0.013  0.00  0.00    +0.141 C 
BRANCH  14  15
ATOM     15  C   UNL     1      -2.298  -0.064   1.154  0.00  0.00    +0.362 C 
ATOM     16  O   UNL     1      -3.189   0.743   0.952  0.00  0.00    -0.246 OA
ATOM     17  O   UNL     1      -2.107  -0.492   2.280  0.00  0.00    -0.246 OA
ENDBRANCH  14  15
BRANCH  14  19
ATOM     18  C   UNL     1       0.599   0.569   0.960  0.00  0.00    +0.005 C 
ATOM     19  C   UNL     1      -0.007  -0.764   0.515  0.00  0.00    +0.015 C 
ENDBRANCH  14  19
ENDBRANCH   1  14
TORSDOF 5
