REMARK  Name = ZINC14742441
REMARK  7 active torsions:
REMARK  status: ('A' for Active; 'I' for Inactive)
REMARK    1  A    between atoms: C_1  and  C_2
REMARK    2  A    between atoms: C_2  and  N_3
REMARK    3  A    between atoms: C_6  and  C_8
REMARK    4  A    between atoms: N_13  and  C_16
REMARK    5  A    between atoms: C_18  and  N_22
REMARK    6  A    between atoms: N_22  and  C_23
REMARK    7  A    between atoms: C_23  and  C_24
REMARK                            x       y       z     vdW  Elec       q    Type
REMARK                         _______ _______ _______ _____ _____    ______ ____
ROOT
ATOM      1  N   UNL     1       0.683  -0.516  -1.190  0.00  0.00    -0.268 N 
ATOM      2  C   UNL     1       0.089  -0.744  -2.373  0.00  0.00    +0.043 A 
ATOM      3  C   UNL     1       1.056  -1.137  -3.238  0.00  0.00    +0.004 A 
ATOM      4  C   UNL     1       2.255  -1.133  -2.505  0.00  0.00    +0.151 A 
ATOM      5  N   UNL     1       1.948  -0.742  -1.280  0.00  0.00    -0.166 NA
ATOM      6  C   UNL     1       0.820  -1.489  -4.681  0.00  0.00    +0.023 C 
ATOM      7  C   UNL     1      -0.556  -0.947  -5.090  0.00  0.00    -0.067 C 
ATOM      8  C   UNL     1      -1.601  -1.371  -4.054  0.00  0.00    -0.009 C 
ATOM      9  C   UNL     1      -1.366  -0.612  -2.743  0.00  0.00    +0.054 C 
ENDROOT
BRANCH   4  10
ATOM     10  C   UNL     1       3.597  -1.492  -3.007  0.00  0.00    +0.267 C 
ATOM     11  O   UNL     1       3.727  -1.935  -4.131  0.00  0.00    -0.268 OA
ATOM     12  N   UNL     1       4.677  -1.327  -2.218  0.00  0.00    -0.294 N 
ATOM     13  C   UNL     1       6.032  -1.579  -2.732  0.00  0.00    +0.123 C 
ATOM     14  C   UNL     1       6.905  -0.359  -2.419  0.00  0.00    +0.103 C 
ATOM     15  N   UNL     1       6.831  -0.062  -0.983  0.00  0.00    -0.302 NA
ATOM     16  C   UNL     1       5.465   0.301  -0.584  0.00  0.00    +0.103 C 
ATOM     17  C   UNL     1       4.533  -0.886  -0.823  0.00  0.00    +0.123 C 
ATOM     18  C   UNL     1       7.785   0.991  -0.613  0.00  0.00    +0.105 C 
ENDBRANCH   4  10
BRANCH   7  19
ATOM     19  N   UNL     1      -0.924  -1.486  -6.406  0.00  0.00    +0.381 N 
ATOM     20  H   UNL     1      -0.195  -1.276  -7.071  0.00  0.00    -0.086 HD
ATOM     21  H   UNL     1      -1.040  -2.486  -6.338  0.00  0.00    -0.086 HD
BRANCH  19  22
ATOM     22  C   UNL     1      -2.184  -0.876  -6.851  0.00  0.00    -0.078 C 
BRANCH  22  23
ATOM     23  C   UNL     1      -2.567  -1.438  -8.221  0.00  0.00    -0.022 C 
ATOM     24  C   UNL     1      -1.523  -1.013  -9.256  0.00  0.00    -0.009 C 
ATOM     25  C   UNL     1      -1.906  -1.575 -10.627  0.00  0.00    +0.007 C 
ATOM     26  C   UNL     1      -3.278  -1.035 -11.035  0.00  0.00    -0.010 C 
ATOM     27  C   UNL     1      -3.224   0.492 -11.107  0.00  0.00    +0.007 C 
ATOM     28  C   UNL     1      -2.841   1.055  -9.736  0.00  0.00    -0.010 C 
ATOM     29  C   UNL     1      -1.469   0.514  -9.329  0.00  0.00    +0.007 C 
ATOM     30  C   UNL     1      -3.884   0.630  -8.701  0.00  0.00    +0.007 C 
ATOM     31  C   UNL     1      -3.939  -0.897  -8.629  0.00  0.00    -0.009 C 
ATOM     32  C   UNL     1      -4.322  -1.460  -9.999  0.00  0.00    +0.007 C 
ENDBRANCH  22  23
ENDBRANCH  19  22
ENDBRANCH   7  19
BRANCH   1  34
ATOM     33  C   UNL     1      -0.027   1.459   0.066  0.00  0.00    +0.029 C 
ATOM     34  C   UNL     1      -0.006  -0.070   0.024  0.00  0.00    +0.140 C 
ENDBRANCH   1  34
TORSDOF 5
