REMARK  Name = ZINC63726121
REMARK  7 active torsions:
REMARK  status: ('A' for Active; 'I' for Inactive)
REMARK    1  A    between atoms: C_1  and  C_2
REMARK    2  A    between atoms: C_7  and  C_10
REMARK    3  A    between atoms: C_11  and  C_13
REMARK    4  A    between atoms: C_13  and  S_14
REMARK    5  A    between atoms: S_14  and  C_15
REMARK    6  A    between atoms: C_21  and  O_25
REMARK    7  A    between atoms: O_25  and  C_26
REMARK                            x       y       z     vdW  Elec       q    Type
REMARK                         _______ _______ _______ _____ _____    ______ ____
ROOT
ATOM      1  C   UNL     1       6.527   2.075  -3.226  0.00  0.00    +0.236 C 
ATOM      2  N   UNL     1       7.258   0.834  -2.944  0.00  0.00    -0.355 N 
ATOM      3  C   UNL     1       7.752   0.934  -1.743  0.00  0.00    +0.061 A 
ATOM      4  C   UNL     1       8.564   0.018  -0.929  0.00  0.00    +0.031 A 
ATOM      5  C   UNL     1       8.946   0.384   0.309  0.00  0.00    +0.048 A 
ATOM      6  C   UNL     1       8.577   1.673   0.879  0.00  0.00    +0.122 A 
ATOM      7  C   UNL     1       7.830   2.571   0.191  0.00  0.00    +0.073 A 
ATOM      8  C   UNL     1       7.375   2.251  -1.163  0.00  0.00    +0.064 A 
ATOM      9  N   UNL     1       6.660   2.917  -2.031  0.00  0.00    -0.355 N 
ATOM     10  H   UNL     1       7.354   0.076  -3.542  0.00  0.00    +0.162 HD
ATOM     11  H   UNL     1       6.286   3.803  -1.909  0.00  0.00    +0.162 HD
ENDROOT
BRANCH   6  12
ATOM     12  O   UNL     1       8.992   1.983   2.133  0.00  0.00    -0.495 OA
ATOM     13  C   UNL     1       9.775   1.004   2.817  0.00  0.00    +0.277 C 
ENDBRANCH   6  12
BRANCH   1  14
ATOM     14  S   UNL     1       4.778   1.710  -3.540  0.00  0.00    -0.106 S 
BRANCH  14  15
ATOM     15  C   UNL     1       4.228   0.867  -2.031  0.00  0.00    +0.168 C 
BRANCH  15  24
ATOM     16  C   UNL     1      -0.019   1.526   0.010  0.00  0.00    +0.039 C 
ATOM     17  C   UNL     1       0.002  -0.004   0.002  0.00  0.00    +0.133 C 
ATOM     18  C   UNL     1       0.722  -0.499  -1.258  0.00  0.00    +0.139 C 
ATOM     19  N   UNL     1       2.143  -0.135  -1.154  0.00  0.00    -0.296 N 
ATOM     20  C   UNL     1       2.860  -0.488   0.082  0.00  0.00    +0.139 C 
ATOM     21  C   UNL     1       2.036   0.007   1.277  0.00  0.00    +0.133 C 
ATOM     22  O   UNL     1       0.695  -0.479   1.159  0.00  0.00    -0.371 OA
ATOM     23  C   UNL     1       2.656  -0.513   2.575  0.00  0.00    +0.039 C 
ATOM     24  C   UNL     1       2.771   0.504  -2.161  0.00  0.00    +0.226 C 
ATOM     25  O   UNL     1       2.164   0.786  -3.172  0.00  0.00    -0.275 OA
ENDBRANCH  15  24
ENDBRANCH  14  15
ENDBRANCH   1  14
TORSDOF 4
