REMARK  Name = ZINC67033360
REMARK  5 active torsions:
REMARK  status: ('A' for Active; 'I' for Inactive)
REMARK    1  A    between atoms: C_1  and  C_2
REMARK    2  A    between atoms: C_5  and  N_22
REMARK    3  A    between atoms: C_7  and  C_8
REMARK    4  A    between atoms: N_10  and  C_11
REMARK    5  A    between atoms: N_10  and  C_12
REMARK                            x       y       z     vdW  Elec       q    Type
REMARK                         _______ _______ _______ _____ _____    ______ ____
ROOT
ATOM      1  C   UNL     1       0.129   0.182   2.391  0.00  0.00    +0.247 C 
ATOM      2  O   UNL     1      -0.011   1.388   2.332  0.00  0.00    -0.270 OA
ATOM      3  N   UNL     1       0.323  -0.417   3.583  0.00  0.00    -0.293 N 
ATOM      4  C   UNL     1       0.593  -1.856   3.644  0.00  0.00    +0.133 C 
ENDROOT
BRANCH   3   5
ATOM      5  C   UNL     1       0.263   0.371   4.816  0.00  0.00    +0.107 C 
ATOM      6  C   UNL     1       1.597   0.262   5.586  0.00  0.00    +0.032 C 
ATOM      7  C   UNL     1       1.333  -0.921   6.541  0.00  0.00    +0.037 C 
ATOM      8  C   UNL     1      -0.167  -0.940   6.744  0.00  0.00    -0.042 A 
ATOM      9  C   UNL     1      -0.784  -0.196   5.751  0.00  0.00    -0.024 A 
ATOM     10  C   UNL     1      -2.163  -0.072   5.736  0.00  0.00    +0.006 A 
ATOM     11  C   UNL     1      -2.927  -0.687   6.708  0.00  0.00    +0.000 A 
ATOM     12  C   UNL     1      -2.314  -1.430   7.699  0.00  0.00    +0.000 A 
ATOM     13  C   UNL     1      -0.933  -1.558   7.718  0.00  0.00    +0.004 A 
ENDBRANCH   3   5
BRANCH   1  20
ATOM     14  C   UNL     1      -2.059   0.526   0.529  0.00  0.00    +0.044 C 
ATOM     15  C   UNL     1      -0.964  -0.471   0.249  0.00  0.00    -0.038 A 
ATOM     16  C   UNL     1      -0.995  -1.227  -0.905  0.00  0.00    +0.006 A 
ATOM     17  C   UNL     1       0.009  -2.142  -1.163  0.00  0.00    +0.033 A 
ATOM     18  C   UNL     1       1.051  -2.307  -0.267  0.00  0.00    +0.127 A 
ATOM     19  C   UNL     1       1.094  -1.558   0.890  0.00  0.00    +0.046 A 
ATOM     20  C   UNL     1       0.086  -0.628   1.155  0.00  0.00    +0.042 A 
BRANCH  18  21
ATOM     21  N   UNL     1       2.121  -3.289  -0.551  0.00  0.00    +0.056 N 
ATOM     22  O   UNL     1       2.084  -3.947  -1.565  0.00  0.00    -0.126 OA
ATOM     23  O   UNL     1       3.032  -3.434   0.231  0.00  0.00    -0.126 OA
ENDBRANCH  18  21
ENDBRANCH   1  20
TORSDOF 3
