REMARK  Name = ZINC63502611
REMARK  8 active torsions:
REMARK  status: ('A' for Active; 'I' for Inactive)
REMARK    1  A    between atoms: C_1  and  C_2
REMARK    2  A    between atoms: C_2  and  O_3
REMARK    3  A    between atoms: O_3  and  C_4
REMARK    4  A    between atoms: C_4  and  C_5
REMARK    5  A    between atoms: C_5  and  C_6
REMARK    6  A    between atoms: C_6  and  N_7
REMARK    7  A    between atoms: C_8  and  C_10
REMARK    8  A    between atoms: N_13  and  C_16
REMARK                            x       y       z     vdW  Elec       q    Type
REMARK                         _______ _______ _______ _____ _____    ______ ____
ROOT
ATOM      1  C   UNL     1       3.274  -5.878   5.379  0.00  0.00    +0.077 C 
ATOM      2  C   UNL     1       2.531  -5.337   6.604  0.00  0.00    +0.028 C 
ATOM      3  C   UNL     1       3.259  -5.782   7.874  0.00  0.00    +0.089 C 
ATOM      4  N   UNL     1       3.312  -7.249   7.920  0.00  0.00    -0.266 NA
ATOM      5  C   UNL     1       4.061  -7.790   6.779  0.00  0.00    +0.089 C 
ATOM      6  C   UNL     1       3.357  -7.404   5.476  0.00  0.00    +0.028 C 
ENDROOT
BRANCH   4   7
ATOM      7  C   UNL     1       3.880  -7.716   9.192  0.00  0.00    +0.252 C 
ATOM      8  N   UNL     1       5.270  -7.259   9.320  0.00  0.00    -0.351 N 
ATOM      9  C   UNL     1       6.022  -8.318   9.408  0.00  0.00    +0.061 A 
ATOM     10  C   UNL     1       7.473  -8.503   9.552  0.00  0.00    +0.027 A 
ATOM     11  C   UNL     1       7.981  -9.750   9.618  0.00  0.00    +0.002 A 
ATOM     12  C   UNL     1       7.175 -10.901   9.556  0.00  0.00    +0.002 A 
ATOM     13  C   UNL     1       5.835 -10.843   9.424  0.00  0.00    +0.027 A 
ATOM     14  C   UNL     1       5.170  -9.536   9.342  0.00  0.00    +0.061 A 
ATOM     15  N   UNL     1       3.923  -9.184   9.216  0.00  0.00    -0.351 N 
ATOM     16  H   UNL     1       5.572  -6.337   9.336  0.00  0.00    +0.163 HD
ATOM     17  H   UNL     1       3.162  -9.781   9.151  0.00  0.00    +0.163 HD
ENDBRANCH   4   7
BRANCH   1  19
ATOM     18  N   UNL     1       2.333  -4.192   3.833  0.00  0.00    -0.315 N 
ATOM     19  C   UNL     1       2.529  -5.493   4.127  0.00  0.00    +0.216 C 
ATOM     20  O   UNL     1       2.105  -6.353   3.385  0.00  0.00    -0.276 OA
ATOM     21  H   UNL     1       2.672  -3.504   4.427  0.00  0.00    +0.149 HD
BRANCH  18  22
ATOM     22  C   UNL     1       1.609  -3.818   2.616  0.00  0.00    +0.106 C 
BRANCH  22  23
ATOM     23  C   UNL     1       1.526  -2.293   2.520  0.00  0.00    +0.047 C 
BRANCH  23  24
ATOM     24  C   UNL     1       0.770  -1.902   1.249  0.00  0.00    +0.161 C 
BRANCH  24  25
ATOM     25  O   UNL     1       0.693  -0.477   1.160  0.00  0.00    -0.380 OA
BRANCH  25  27
ATOM     26  C   UNL     1      -0.019   1.526   0.010  0.00  0.00    +0.034 C 
ATOM     27  C   UNL     1       0.002  -0.004   0.002  0.00  0.00    +0.156 C 
ENDBRANCH  25  27
ENDBRANCH  24  25
ENDBRANCH  23  24
ENDBRANCH  22  23
ENDBRANCH  18  22
ENDBRANCH   1  19
TORSDOF 7
