REMARK  Name = ZINC39836512
REMARK  12 active torsions:
REMARK  status: ('A' for Active; 'I' for Inactive)
REMARK    1  A    between atoms: C_1  and  C_2
REMARK    2  A    between atoms: C_4  and  C_38
REMARK    3  A    between atoms: C_6  and  O_8
REMARK    4  A    between atoms: O_8  and  C_9
REMARK    5  A    between atoms: C_9  and  C_10
REMARK    6  A    between atoms: N_12  and  C_13
REMARK    7  A    between atoms: C_14  and  C_27
REMARK    8  A    between atoms: C_19  and  C_23
REMARK    9  A    between atoms: C_23  and  C_24
REMARK   10  A    between atoms: C_23  and  C_25
REMARK   11  A    between atoms: C_23  and  C_26
REMARK   12  A    between atoms: N_29  and  C_30
REMARK                            x       y       z     vdW  Elec       q    Type
REMARK                         _______ _______ _______ _____ _____    ______ ____
ROOT
ATOM      1  C   UNL     1       0.080  -3.277   7.094  0.00  0.00    +0.084 A 
ATOM      2  C   UNL     1       0.076  -2.939   8.438  0.00  0.00    +0.069 A 
ATOM      3  C   UNL     1       0.097  -4.029   9.397  0.00  0.00    -0.023 A 
ATOM      4  C   UNL     1       0.117  -5.258   8.837  0.00  0.00    -0.004 A 
ATOM      5  S   UNL     1       0.102  -4.956   7.094  0.00  0.00    -0.077 S 
ATOM      6  C   UNL     1       0.139  -6.573   9.553  0.00  0.00    +0.046 C 
ATOM      7  C   UNL     1      -0.245  -6.330  11.020  0.00  0.00    -0.000 C 
ATOM      8  C   UNL     1       0.572  -5.151  11.557  0.00  0.00    +0.009 C 
ATOM      9  C   UNL     1       0.097  -3.849  10.908  0.00  0.00    +0.037 C 
ENDROOT
BRANCH   1  12
ATOM     10  C   UNL     1       0.064  -2.932   4.751  0.00  0.00    +0.255 C 
ATOM     11  O   UNL     1       0.080  -4.133   4.584  0.00  0.00    -0.272 OA
ATOM     12  N   UNL     1       0.063  -2.425   6.000  0.00  0.00    -0.277 N 
ATOM     13  H   UNL     1       0.051  -1.464   6.134  0.00  0.00    +0.155 HD
BRANCH  10  14
ATOM     14  C   UNL     1       0.046  -2.005   3.563  0.00  0.00    +0.324 C 
BRANCH  14  15
ATOM     15  O   UNL     1       0.051  -2.775   2.359  0.00  0.00    -0.483 OA
BRANCH  15  21
ATOM     16  C   UNL     1      -0.018   1.503   0.010  0.00  0.00    +0.044 C 
ATOM     17  C   UNL     1       0.002  -0.004   0.002  0.00  0.00    -0.047 A 
ATOM     18  C   UNL     1       0.006  -0.688  -1.200  0.00  0.00    +0.007 A 
ATOM     19  C   UNL     1       0.025  -2.071  -1.210  0.00  0.00    -0.047 A 
ATOM     20  C   UNL     1       0.040  -2.772  -0.020  0.00  0.00    +0.049 A 
ATOM     21  C   UNL     1       0.036  -2.088   1.187  0.00  0.00    +0.122 A 
ATOM     22  C   UNL     1       0.023  -0.701   1.195  0.00  0.00    +0.049 A 
ATOM     23  C   UNL     1       0.029  -2.813  -2.522  0.00  0.00    +0.044 C 
ENDBRANCH  15  21
ENDBRANCH  14  15
ENDBRANCH  10  14
ENDBRANCH   1  12
BRANCH   7  24
ATOM     24  C   UNL     1       0.057  -7.583  11.844  0.00  0.00    -0.035 C 
ATOM     25  C   UNL     1       1.551  -7.904  11.755  0.00  0.00    +0.011 C 
ATOM     26  C   UNL     1      -0.326  -7.338  13.305  0.00  0.00    +0.011 C 
ATOM     27  C   UNL     1      -0.751  -8.761  11.295  0.00  0.00    +0.011 C 
ENDBRANCH   7  24
BRANCH   2  28
ATOM     28  C   UNL     1       0.053  -1.539   8.873  0.00  0.00    +0.247 C 
ATOM     29  O   UNL     1      -1.011  -0.976   9.056  0.00  0.00    -0.270 OA
ATOM     30  N   UNL     1       1.209  -0.875   9.071  0.00  0.00    -0.307 N 
ATOM     31  H   UNL     1       2.057  -1.324   8.925  0.00  0.00    +0.149 HD
BRANCH  30  32
ATOM     32  C   UNL     1       1.185   0.524   9.506  0.00  0.00    +0.096 C 
ATOM     33  C   UNL     1       1.075   1.446   8.281  0.00  0.00    +0.046 C 
ATOM     34  C   UNL     1       1.371   2.909   8.693  0.00  0.00    +0.168 C 
ATOM     35  S   UNL     1       2.498   2.703  10.132  0.00  0.00    -0.029 S 
ATOM     36  O   UNL     1       1.872   3.238  11.290  0.00  0.00    -0.174 OA
ATOM     37  O   UNL     1       3.797   3.150   9.769  0.00  0.00    -0.174 OA
ATOM     38  C   UNL     1       2.508   0.864  10.251  0.00  0.00    +0.188 C 
ENDBRANCH  30  32
ENDBRANCH   2  28
TORSDOF 7
