REMARK  Name = ZINC63743234
REMARK  8 active torsions:
REMARK  status: ('A' for Active; 'I' for Inactive)
REMARK    1  A    between atoms: C_1  and  C_2
REMARK    2  A    between atoms: C_2  and  O_3
REMARK    3  A    between atoms: O_3  and  C_4
REMARK    4  A    between atoms: C_4  and  C_6
REMARK    5  A    between atoms: C_12  and  C_14
REMARK    6  A    between atoms: C_14  and  C_15
REMARK    7  A    between atoms: C_23  and  S_25
REMARK    8  A    between atoms: S_25  and  C_26
REMARK                            x       y       z     vdW  Elec       q    Type
REMARK                         _______ _______ _______ _____ _____    ______ ____
ROOT
ATOM      1  C   UNL     1      -5.958  -7.129   2.841  0.00  0.00    -0.019 C 
ATOM      2  C   UNL     1      -5.368  -7.497   4.000  0.00  0.00    +0.000 A 
ATOM      3  C   UNL     1      -3.972  -7.481   4.455  0.00  0.00    +0.010 A 
ATOM      4  C   UNL     1      -3.682  -7.924   5.699  0.00  0.00    +0.001 A 
ATOM      5  C   UNL     1      -4.678  -8.398   6.564  0.00  0.00    +0.002 A 
ATOM      6  C   UNL     1      -5.982  -8.444   6.218  0.00  0.00    +0.026 A 
ATOM      7  C   UNL     1      -6.401  -8.003   4.932  0.00  0.00    +0.044 A 
ATOM      8  N   UNL     1      -7.585  -7.949   4.370  0.00  0.00    -0.369 N 
ATOM      9  C   UNL     1      -7.436  -7.397   3.019  0.00  0.00    +0.170 C 
ATOM     10  H   UNL     1      -8.419  -8.224   4.781  0.00  0.00    +0.161 HD
ENDROOT
BRANCH   1  11
ATOM     11  C   UNL     1      -5.282  -6.561   1.620  0.00  0.00    +0.130 C 
BRANCH  11  18
ATOM     12  C   UNL     1      -2.725  -2.894  -0.646  0.00  0.00    +0.101 C 
ATOM     13  C   UNL     1      -3.386  -2.315   0.607  0.00  0.00    +0.033 C 
ATOM     14  C   UNL     1      -4.813  -2.859   0.724  0.00  0.00    +0.108 C 
ATOM     15  N   UNL     1      -4.763  -4.327   0.692  0.00  0.00    -0.301 N 
ATOM     16  C   UNL     1      -4.071  -4.986  -0.424  0.00  0.00    +0.108 C 
ATOM     17  C   UNL     1      -2.652  -4.418  -0.529  0.00  0.00    +0.033 C 
ATOM     18  C   UNL     1      -5.341  -5.056   1.667  0.00  0.00    +0.220 C 
ATOM     19  O   UNL     1      -5.909  -4.500   2.583  0.00  0.00    -0.275 OA
BRANCH  12  20
ATOM     20  C   UNL     1      -1.333  -2.334  -0.784  0.00  0.00    +0.310 C 
ATOM     21  O   UNL     1      -0.380  -3.078  -0.787  0.00  0.00    -0.251 OA
BRANCH  20  22
ATOM     22  O   UNL     1      -1.151  -1.009  -0.902  0.00  0.00    -0.465 OA
BRANCH  22  24
ATOM     23  C   UNL     1       0.204   0.977  -1.151  0.00  0.00    +0.048 C 
ATOM     24  C   UNL     1       0.196  -0.548  -1.029  0.00  0.00    +0.229 C 
ENDBRANCH  22  24
ENDBRANCH  20  22
ENDBRANCH  12  20
ENDBRANCH  11  18
ENDBRANCH   1  11
BRANCH   9  25
ATOM     25  S   UNL     1      -8.006  -8.603   1.789  0.00  0.00    -0.096 S 
BRANCH  25  26
ATOM     26  C   UNL     1      -7.526 -10.159   2.463  0.00  0.00    +0.010 A 
ATOM     27  C   UNL     1      -8.400 -10.861   3.285  0.00  0.00    +0.016 A 
ATOM     28  C   UNL     1      -8.022 -12.080   3.812  0.00  0.00    +0.021 A 
ATOM     29  C   UNL     1      -6.773 -12.602   3.522  0.00  0.00    +0.041 A 
ATOM     30  C   UNL     1      -5.901 -11.905   2.705  0.00  0.00    +0.021 A 
ATOM     31  C   UNL     1      -6.276 -10.689   2.171  0.00  0.00    +0.016 A 
ATOM     32 CL   UNL     1      -6.301 -14.135   4.187  0.00  0.00    -0.084 Cl
ENDBRANCH  25  26
ENDBRANCH   9  25
TORSDOF 7
