REMARK  Name = ZINC25702746
REMARK  8 active torsions:
REMARK  status: ('A' for Active; 'I' for Inactive)
REMARK    1  A    between atoms: C_1  and  C_2
REMARK    2  A    between atoms: C_3  and  C_23
REMARK    3  A    between atoms: C_4  and  C_13
REMARK    4  A    between atoms: C_6  and  C_10
REMARK    5  A    between atoms: C_7  and  C_9
REMARK    6  A    between atoms: C_15  and  O_22
REMARK    7  A    between atoms: C_16  and  O_20
REMARK    8  A    between atoms: O_20  and  C_21
REMARK                            x       y       z     vdW  Elec       q    Type
REMARK                         _______ _______ _______ _____ _____    ______ ____
ROOT
ATOM      1  C   UNL     1      -6.171  -0.976  -0.700  0.00  0.00    +0.061 C 
ATOM      2  C   UNL     1      -4.831  -0.391  -0.335  0.00  0.00    +0.019 C 
ATOM      3  C   UNL     1      -3.723  -1.135  -0.471  0.00  0.00    +0.058 C 
ATOM      4  C   UNL     1      -2.368  -0.596  -0.118  0.00  0.00    +0.098 C 
ATOM      5  C   UNL     1      -2.404   0.900   0.011  0.00  0.00    +0.043 C 
ATOM      6  C   UNL     1      -3.565   1.566   0.130  0.00  0.00    +0.014 C 
ATOM      7  N   UNL     1      -4.759   0.897   0.134  0.00  0.00    -0.320 N 
ATOM      8  C   UNL     1      -3.553   3.067   0.259  0.00  0.00    +0.061 C 
ATOM      9  H   UNL     1      -5.662   1.395   0.515  0.00  0.00    +0.152 HD
ENDROOT
BRANCH   4  10
ATOM     10  C   UNL     1      -1.928  -1.197   1.192  0.00  0.00    -0.017 A 
ATOM     11  C   UNL     1      -2.670  -0.973   2.337  0.00  0.00    +0.054 A 
ATOM     12  C   UNL     1      -2.267  -1.524   3.543  0.00  0.00    +0.159 A 
ATOM     13  C   UNL     1      -1.114  -2.303   3.598  0.00  0.00    +0.162 A 
ATOM     14  C   UNL     1      -0.375  -2.524   2.447  0.00  0.00    +0.065 A 
ATOM     15  C   UNL     1      -0.786  -1.975   1.246  0.00  0.00    +0.026 A 
ATOM     16 BR   UNL     1       0.220  -2.283  -0.326  0.00  0.00    -0.050 Br
BRANCH  13  17
ATOM     17  O   UNL     1      -0.715  -2.845   4.779  0.00  0.00    -0.491 OA
ATOM     18  C   UNL     1       0.477  -3.633   4.761  0.00  0.00    +0.277 C 
ENDBRANCH  13  17
BRANCH  12  19
ATOM     19  O   UNL     1      -2.996  -1.305   4.670  0.00  0.00    -0.503 OA
ATOM     20  H   UNL     1      -2.675  -1.743   5.626  0.00  0.00    +0.292 HD
ENDBRANCH  12  19
ENDBRANCH   4  10
BRANCH   5  21
ATOM     21  C   UNL     1      -1.188   1.625   0.001  0.00  0.00    +0.240 C 
ATOM     22  O   UNL     1      -1.205   2.843  -0.008  0.00  0.00    -0.271 OA
ATOM     23  N   UNL     1      -0.011   0.968   0.002  0.00  0.00    -0.326 N 
ATOM     24  H   UNL     1       0.933   1.531  -0.006  0.00  0.00    +0.145 HD
ATOM     25  H   UNL     1       0.004  -0.132   0.010  0.00  0.00    +0.145 HD
ENDBRANCH   5  21
BRANCH   3  26
ATOM     26  C   UNL     1      -3.835  -2.473  -0.971  0.00  0.00    +0.097 C 
ATOM     27  N   UNL     1      -3.924  -3.534  -1.367  0.00  0.00    -0.191 NA
ENDBRANCH   3  26
TORSDOF 5
