REMARK  Name = ZINC39226390
REMARK  10 active torsions:
REMARK  status: ('A' for Active; 'I' for Inactive)
REMARK    1  A    between atoms: C_1  and  N_2
REMARK    2  A    between atoms: C_9  and  O_39
REMARK    3  A    between atoms: C_13  and  C_18
REMARK    4  A    between atoms: C_22  and  C_24
REMARK    5  A    between atoms: N_26  and  C_27
REMARK    6  A    between atoms: C_27  and  C_29
REMARK    7  A    between atoms: C_27  and  C_36
REMARK    8  A    between atoms: C_29  and  C_30
REMARK    9  A    between atoms: C_36  and  O_37
REMARK   10  A    between atoms: O_37  and  C_38
REMARK                            x       y       z     vdW  Elec       q    Type
REMARK                         _______ _______ _______ _____ _____    ______ ____
ROOT
ATOM      1  C   UNL     1       0.198  -4.834   7.100  0.00  0.00    -0.017 A 
ATOM      2  C   UNL     1       0.977  -5.990   7.073  0.00  0.00    +0.008 A 
ATOM      3  C   UNL     1       1.335  -6.614   8.252  0.00  0.00    +0.001 A 
ATOM      4  C   UNL     1       0.924  -6.098   9.465  0.00  0.00    +0.013 A 
ATOM      5  C   UNL     1       0.144  -4.941   9.506  0.00  0.00    +0.037 A 
ATOM      6  C   UNL     1      -0.215  -4.305   8.318  0.00  0.00    +0.021 A 
ENDROOT
BRANCH   1  18
ATOM      7  C   UNL     1      -0.018   1.465   0.010  0.00  0.00    -0.096 C 
ATOM      8  N   UNL     1       0.002  -0.004   0.002  0.00  0.00    +0.378 N 
ATOM      9  C   UNL     1      -1.376  -0.511   0.004  0.00  0.00    -0.075 C 
ATOM     10  C   UNL     1      -1.361  -2.038  -0.089  0.00  0.00    +0.029 C 
ATOM     11  C   UNL     1      -0.600  -2.611   1.109  0.00  0.00    +0.110 C 
ATOM     12  C   UNL     1       0.809  -2.016   1.146  0.00  0.00    +0.029 C 
ATOM     13  C   UNL     1       0.712  -0.489   1.192  0.00  0.00    -0.075 C 
ATOM     14  C   UNL     1      -0.510  -4.135   0.975  0.00  0.00    +0.084 C 
ATOM     15  C   UNL     1       0.342  -4.671   2.128  0.00  0.00    +0.152 C 
ATOM     16  C   UNL     1      -0.129  -4.072   3.429  0.00  0.00    +0.023 A 
ATOM     17  C   UNL     1       0.228  -4.694   4.612  0.00  0.00    +0.018 A 
ATOM     18  C   UNL     1      -0.185  -4.165   5.832  0.00  0.00    -0.017 A 
ATOM     19  C   UNL     1      -0.959  -3.007   5.858  0.00  0.00    +0.012 A 
ATOM     20  C   UNL     1      -1.314  -2.393   4.677  0.00  0.00    +0.046 A 
ATOM     21  C   UNL     1      -0.904  -2.925   3.457  0.00  0.00    +0.127 A 
ATOM     22  O   UNL     1      -1.291  -2.296   2.316  0.00  0.00    -0.485 OA
ATOM     23  H   UNL     1       0.477  -0.329  -0.827  0.00  0.00    -0.082 HD
BRANCH  15  24
ATOM     24  O   UNL     1       0.218  -6.094   2.188  0.00  0.00    -0.387 OA
ATOM     25  H   UNL     1       0.732  -6.504   2.897  0.00  0.00    +0.210 HD
ENDBRANCH  15  24
ENDBRANCH   1  18
BRANCH   5  26
ATOM     26  C   UNL     1      -0.296  -4.389  10.805  0.00  0.00    +0.244 C 
ATOM     27  O   UNL     1      -0.975  -3.381  10.838  0.00  0.00    -0.270 OA
ATOM     28  N   UNL     1       0.056  -5.003  11.952  0.00  0.00    -0.306 N 
ATOM     29  H   UNL     1       0.598  -5.807  11.925  0.00  0.00    +0.149 HD
BRANCH  28  30
ATOM     30  C   UNL     1      -0.379  -4.456  13.239  0.00  0.00    +0.103 C 
BRANCH  30  31
ATOM     31  C   UNL     1      -0.417  -5.574  14.282  0.00  0.00    +0.059 C 
BRANCH  31  32
ATOM     32  C   UNL     1      -1.471  -6.582  13.900  0.00  0.00    -0.046 A 
ATOM     33  C   UNL     1      -2.769  -6.428  14.348  0.00  0.00    +0.004 A 
ATOM     34  C   UNL     1      -3.736  -7.352  13.998  0.00  0.00    +0.000 A 
ATOM     35  C   UNL     1      -3.404  -8.430  13.199  0.00  0.00    +0.000 A 
ATOM     36  C   UNL     1      -2.105  -8.584  12.750  0.00  0.00    +0.000 A 
ATOM     37  C   UNL     1      -1.140  -7.657  13.097  0.00  0.00    +0.004 A 
ENDBRANCH  31  32
ENDBRANCH  30  31
BRANCH  30  38
ATOM     38  C   UNL     1       0.601  -3.371  13.690  0.00  0.00    +0.182 C 
BRANCH  38  39
ATOM     39  O   UNL     1       1.879  -3.958  13.942  0.00  0.00    -0.381 OA
ATOM     40  C   UNL     1       2.873  -3.026  14.372  0.00  0.00    +0.194 C 
ENDBRANCH  38  39
ENDBRANCH  30  38
ENDBRANCH  28  30
ENDBRANCH   5  26
TORSDOF 8
