REMARK  Name = ZINC39531318
REMARK  8 active torsions:
REMARK  status: ('A' for Active; 'I' for Inactive)
REMARK    1  A    between atoms: C_4  and  C_7
REMARK    2  A    between atoms: C_7  and  C_8
REMARK    3  A    between atoms: C_11  and  C_14
REMARK    4  A    between atoms: C_14  and  C_16
REMARK    5  A    between atoms: C_14  and  N_27
REMARK    6  A    between atoms: C_16  and  N_17
REMARK    7  A    between atoms: N_17  and  S_18
REMARK    8  A    between atoms: S_18  and  C_21
REMARK                            x       y       z     vdW  Elec       q    Type
REMARK                         _______ _______ _______ _____ _____    ______ ____
ROOT
ATOM      1  C   UNL     1       5.450  -1.675   5.388  0.00  0.00    +0.102 C 
ENDROOT
BRANCH   1   2
ATOM      2  N   UNL     1       4.318  -2.168   6.184  0.00  0.00    -0.291 NA
ATOM      3  C   UNL     1       3.847  -3.466   5.683  0.00  0.00    +0.100 C 
ATOM      4  C   UNL     1       2.723  -3.981   6.585  0.00  0.00    +0.097 C 
ATOM      5  N   UNL     1       1.629  -3.001   6.609  0.00  0.00    -0.302 NA
ATOM      6  C   UNL     1       2.101  -1.702   7.112  0.00  0.00    +0.136 C 
ATOM      7  C   UNL     1       3.224  -1.187   6.209  0.00  0.00    +0.115 C 
ATOM      8 BR   UNL     1       0.613  -0.417   7.106  0.00  0.00    -0.070 Br
ATOM      9  H   UNL     1       1.209  -2.905   5.697  0.00  0.00    +0.123 HD
ENDBRANCH   1   2
BRANCH   1  13
ATOM     10  C   UNL     1       4.271  -1.333   1.296  0.00  0.00    -0.043 A 
ATOM     11  C   UNL     1       4.487  -0.195   2.051  0.00  0.00    +0.004 A 
ATOM     12  C   UNL     1       4.869  -0.305   3.375  0.00  0.00    +0.005 A 
ATOM     13  C   UNL     1       5.033  -1.554   3.945  0.00  0.00    -0.029 A 
ATOM     14  C   UNL     1       4.816  -2.692   3.190  0.00  0.00    +0.005 A 
ATOM     15  C   UNL     1       4.430  -2.581   1.867  0.00  0.00    +0.004 A 
BRANCH  10  16
ATOM     16  C   UNL     1       3.855  -1.212  -0.147  0.00  0.00    +0.070 C 
BRANCH  16  20
ATOM     17  C   UNL     1      -0.407  -1.081  -0.397  0.00  0.00    +0.000 A 
ATOM     18  C   UNL     1       0.313   0.091  -0.265  0.00  0.00    +0.000 A 
ATOM     19  C   UNL     1       1.693   0.048  -0.184  0.00  0.00    +0.004 A 
ATOM     20  C   UNL     1       2.351  -1.166  -0.235  0.00  0.00    -0.043 A 
ATOM     21  C   UNL     1       1.630  -2.338  -0.366  0.00  0.00    +0.004 A 
ATOM     22  C   UNL     1       0.251  -2.296  -0.449  0.00  0.00    +0.000 A 
ENDBRANCH  16  20
ENDBRANCH  10  16
ENDBRANCH   1  13
BRANCH   1  23
ATOM     23  C   UNL     1       6.619  -2.655   5.501  0.00  0.00    +0.129 C 
BRANCH  23  24
ATOM     24  N   UNL     1       6.946  -2.864   6.913  0.00  0.00    -0.188 NA
ATOM     25  H   UNL     1       6.601  -2.257   7.586  0.00  0.00    +0.148 HD
BRANCH  24  26
ATOM     26  S   UNL     1       7.905  -4.138   7.361  0.00  0.00    +0.058 S 
ATOM     27  O   UNL     1       8.059  -4.054   8.772  0.00  0.00    -0.153 OA
ATOM     28  O   UNL     1       7.377  -5.290   6.720  0.00  0.00    -0.153 OA
BRANCH  26  29
ATOM     29  C   UNL     1       9.499  -3.860   6.664  0.00  0.00    +0.105 A 
ATOM     30  C   UNL     1       9.795  -4.340   5.402  0.00  0.00    +0.028 A 
ATOM     31  C   UNL     1      11.046  -4.122   4.855  0.00  0.00    +0.002 A 
ATOM     32  C   UNL     1      12.001  -3.423   5.570  0.00  0.00    +0.000 A 
ATOM     33  C   UNL     1      11.705  -2.942   6.832  0.00  0.00    +0.002 A 
ATOM     34  C   UNL     1      10.453  -3.157   7.377  0.00  0.00    +0.028 A 
ENDBRANCH  26  29
ENDBRANCH  24  26
ENDBRANCH  23  24
ENDBRANCH   1  23
TORSDOF 8
