REMARK  Name = ZINC13645383
REMARK  7 active torsions:
REMARK  status: ('A' for Active; 'I' for Inactive)
REMARK    1  A    between atoms: C_1  and  C_2
REMARK    2  A    between atoms: C_2  and  N_3
REMARK    3  A    between atoms: N_3  and  C_4
REMARK    4  A    between atoms: N_3  and  S_10
REMARK    5  A    between atoms: S_10  and  C_13
REMARK    6  A    between atoms: C_26  and  C_29
REMARK    7  A    between atoms: C_30  and  C_34
REMARK                            x       y       z     vdW  Elec       q    Type
REMARK                         _______ _______ _______ _____ _____    ______ ____
ROOT
ATOM      1  C   UNL     1      -5.654  -0.994   0.578  0.00  0.00    +0.109 A 
ATOM      2  C   UNL     1      -6.708  -0.918   1.470  0.00  0.00    +0.030 A 
ATOM      3  C   UNL     1      -7.066   0.304   2.004  0.00  0.00    +0.025 A 
ATOM      4  C   UNL     1      -6.369   1.450   1.644  0.00  0.00    +0.031 A 
ATOM      5  C   UNL     1      -5.313   1.379   0.749  0.00  0.00    -0.018 A 
ATOM      6  C   UNL     1      -4.961   0.144   0.220  0.00  0.00    +0.034 A 
ATOM      7  C   UNL     1      -4.537   2.593   0.303  0.00  0.00    +0.049 C 
ATOM      8  C   UNL     1      -3.178   2.630   0.962  0.00  0.00    -0.023 C 
ATOM      9  C   UNL     1      -2.850   3.864   1.256  0.00  0.00    -0.030 C 
ATOM     10  C   UNL     1      -3.948   4.821   0.833  0.00  0.00    +0.033 C 
ATOM     11  C   UNL     1      -5.208   3.909   0.750  0.00  0.00    +0.029 C 
ATOM     12  C   UNL     1      -5.771   3.779   2.168  0.00  0.00    +0.112 C 
ATOM     13  N   UNL     1      -6.742   2.681   2.195  0.00  0.00    -0.336 N 
ATOM     14  H   UNL     1      -7.622   2.804   2.584  0.00  0.00    +0.147 HD
ENDROOT
BRANCH  12  15
ATOM     15  C   UNL     1      -4.650   3.488   3.132  0.00  0.00    +0.013 A 
ATOM     16  C   UNL     1      -4.059   4.315   4.028  0.00  0.00    -0.038 A 
ATOM     17  C   UNL     1      -3.036   3.826   4.819  0.00  0.00    +0.011 A 
ATOM     18  C   UNL     1      -2.655   2.533   4.675  0.00  0.00    +0.046 A 
ATOM     19  S   UNL     1      -3.761   1.963   3.395  0.00  0.00    -0.099 S 
ATOM     20  C   UNL     1      -4.510   5.747   4.161  0.00  0.00    +0.044 C 
ENDBRANCH  12  15
BRANCH   1  21
ATOM     21  S   UNL     1      -5.192  -2.552  -0.104  0.00  0.00    +0.075 S 
ATOM     22  O   UNL     1      -6.300  -3.422   0.085  0.00  0.00    -0.150 OA
ATOM     23  O   UNL     1      -4.642  -2.287  -1.387  0.00  0.00    -0.150 OA
BRANCH  21  24
ATOM     24  N   UNL     1      -3.958  -3.148   0.826  0.00  0.00    -0.203 N 
BRANCH  24  25
ATOM     25  C   UNL     1      -4.245  -3.895   1.971  0.00  0.00    +0.051 A 
ATOM     26  C   UNL     1      -4.969  -3.326   3.011  0.00  0.00    +0.025 A 
ATOM     27  C   UNL     1      -5.254  -4.070   4.139  0.00  0.00    +0.002 A 
ATOM     28  C   UNL     1      -4.811  -5.376   4.238  0.00  0.00    +0.000 A 
ATOM     29  C   UNL     1      -4.086  -5.944   3.207  0.00  0.00    +0.002 A 
ATOM     30  C   UNL     1      -3.801  -5.208   2.074  0.00  0.00    +0.025 A 
ENDBRANCH  24  25
BRANCH  24  32
ATOM     31  C   UNL     1      -2.052  -1.662   1.202  0.00  0.00    +0.026 C 
ATOM     32  C   UNL     1      -2.566  -2.891   0.449  0.00  0.00    +0.128 C 
ENDBRANCH  24  32
ENDBRANCH  21  24
ENDBRANCH   1  21
TORSDOF 5
