REMARK  Name = ZINC19760502
REMARK  7 active torsions:
REMARK  status: ('A' for Active; 'I' for Inactive)
REMARK    1  A    between atoms: C_1  and  C_2
REMARK    2  A    between atoms: C_3  and  C_28
REMARK    3  A    between atoms: C_4  and  C_21
REMARK    4  A    between atoms: C_10  and  C_15
REMARK    5  A    between atoms: C_25  and  O_27
REMARK    6  A    between atoms: C_28  and  O_30
REMARK    7  A    between atoms: O_30  and  C_31
REMARK                            x       y       z     vdW  Elec       q    Type
REMARK                         _______ _______ _______ _____ _____    ______ ____
ROOT
ATOM      1  C   UNL     1      -0.018   1.503   0.010  0.00  0.00    +0.061 C 
ATOM      2  C   UNL     1       0.002  -0.004   0.002  0.00  0.00    +0.016 C 
ATOM      3  C   UNL     1      -1.155  -0.688   0.004  0.00  0.00    +0.065 C 
ATOM      4  C   UNL     1      -1.174  -2.188   0.005  0.00  0.00    +0.092 C 
ATOM      5  C   UNL     1       0.160  -2.746  -0.422  0.00  0.00    +0.024 C 
ATOM      6  C   UNL     1       1.267  -1.974  -0.410  0.00  0.00    +0.016 C 
ATOM      7  N   UNL     1       1.198  -0.667  -0.013  0.00  0.00    -0.321 N 
ATOM      8  C   UNL     1       2.604  -2.524  -0.842  0.00  0.00    +0.059 C 
ATOM      9  C   UNL     1       2.670  -4.019  -0.526  0.00  0.00    +0.032 C 
ATOM     10  C   UNL     1       1.517  -4.721  -1.252  0.00  0.00    +0.088 C 
ATOM     11  C   UNL     1       0.218  -4.091  -0.830  0.00  0.00    +0.162 C 
ATOM     12  O   UNL     1      -0.799  -4.755  -0.843  0.00  0.00    -0.292 OA
ATOM     13  H   UNL     1       2.005  -0.207   0.265  0.00  0.00    +0.152 HD
ENDROOT
BRANCH   9  14
ATOM     14  C   UNL     1       3.987  -4.579  -1.000  0.00  0.00    -0.044 A 
ATOM     15  C   UNL     1       4.330  -4.502  -2.337  0.00  0.00    +0.004 A 
ATOM     16  C   UNL     1       5.538  -5.015  -2.772  0.00  0.00    +0.000 A 
ATOM     17  C   UNL     1       6.403  -5.604  -1.869  0.00  0.00    +0.000 A 
ATOM     18  C   UNL     1       6.061  -5.681  -0.532  0.00  0.00    +0.000 A 
ATOM     19  C   UNL     1       4.855  -5.164  -0.097  0.00  0.00    +0.004 A 
ENDBRANCH   9  14
BRANCH   4  20
ATOM     20  C   UNL     1      -1.492  -2.678   1.395  0.00  0.00    -0.032 A 
ATOM     21  C   UNL     1      -0.664  -2.343   2.451  0.00  0.00    +0.005 A 
ATOM     22  C   UNL     1      -0.953  -2.791   3.727  0.00  0.00    +0.004 A 
ATOM     23  C   UNL     1      -2.069  -3.574   3.949  0.00  0.00    +0.045 A 
ATOM     24  C   UNL     1      -2.901  -3.911   2.891  0.00  0.00    +0.117 A 
ATOM     25  C   UNL     1      -2.612  -3.455   1.613  0.00  0.00    +0.050 A 
BRANCH  24  26
ATOM     26  O   UNL     1      -3.999  -4.681   3.107  0.00  0.00    -0.507 OA
ATOM     27  H   UNL     1      -4.798  -4.177   3.316  0.00  0.00    +0.292 HD
ENDBRANCH  24  26
ENDBRANCH   4  20
BRANCH   3  28
ATOM     28  C   UNL     1      -2.380   0.021   0.005  0.00  0.00    +0.338 C 
ATOM     29  O   UNL     1      -2.378   1.238   0.004  0.00  0.00    -0.245 OA
BRANCH  28  30
ATOM     30  O   UNL     1      -3.549  -0.652   0.007  0.00  0.00    -0.458 OA
BRANCH  30  31
ATOM     31  C   UNL     1      -4.747   0.128   0.008  0.00  0.00    +0.177 C 
ATOM     32  C   UNL     1      -5.172   0.407   1.451  0.00  0.00    +0.044 C 
ATOM     33  C   UNL     1      -6.454   1.242   1.452  0.00  0.00    +0.004 C 
ATOM     34  C   UNL     1      -7.564   0.473   0.733  0.00  0.00    +0.000 C 
ATOM     35  C   UNL     1      -7.139   0.194  -0.710  0.00  0.00    +0.004 C 
ATOM     36  C   UNL     1      -5.856  -0.641  -0.711  0.00  0.00    +0.044 C 
ENDBRANCH  30  31
ENDBRANCH  28  30
ENDBRANCH   3  28
TORSDOF 6
