REMARK  Name = ZINC63237079
REMARK  13 active torsions:
REMARK  status: ('A' for Active; 'I' for Inactive)
REMARK    1  A    between atoms: C_1  and  C_2
REMARK    2  A    between atoms: C_2  and  O_3
REMARK    3  A    between atoms: O_3  and  C_4
REMARK    4  A    between atoms: C_4  and  C_6
REMARK    5  A    between atoms: C_9  and  S_12
REMARK    6  A    between atoms: S_12  and  N_15
REMARK    7  A    between atoms: N_15  and  C_16
REMARK    8  A    between atoms: C_16  and  C_17
REMARK    9  A    between atoms: C_17  and  C_19
REMARK   10  A    between atoms: C_17  and  C_28
REMARK   11  A    between atoms: C_22  and  N_25
REMARK   12  A    between atoms: N_25  and  C_26
REMARK   13  A    between atoms: N_25  and  C_27
REMARK                            x       y       z     vdW  Elec       q    Type
REMARK                         _______ _______ _______ _____ _____    ______ ____
ROOT
ATOM      1  C   UNL     1       0.769  -5.562   8.423  0.00  0.00    +0.063 C 
ENDROOT
BRANCH   1   2
ATOM      2  C   UNL     1       1.754  -6.240   9.341  0.00  0.00    -0.033 C 
ATOM      3  C   UNL     1       2.186  -5.793  10.542  0.00  0.00    -0.000 A 
ATOM      4  C   UNL     1       1.883  -4.587  11.323  0.00  0.00    +0.010 A 
ATOM      5  C   UNL     1       2.487  -4.411  12.519  0.00  0.00    +0.001 A 
ATOM      6  C   UNL     1       3.395  -5.348  13.032  0.00  0.00    +0.002 A 
ATOM      7  C   UNL     1       3.725  -6.479  12.373  0.00  0.00    +0.026 A 
ATOM      8  C   UNL     1       3.148  -6.767  11.105  0.00  0.00    +0.043 A 
ATOM      9  N   UNL     1       3.304  -7.777  10.285  0.00  0.00    -0.380 N 
ATOM     10  C   UNL     1       2.453  -7.561   9.109  0.00  0.00    +0.145 C 
ATOM     11  H   UNL     1       3.882  -8.542  10.432  0.00  0.00    +0.160 HD
ENDBRANCH   1   2
BRANCH   1  12
ATOM     12  C   UNL     1      -0.422  -6.461   8.213  0.00  0.00    -0.039 A 
ATOM     13  C   UNL     1      -0.250  -7.717   7.660  0.00  0.00    +0.006 A 
ATOM     14  C   UNL     1      -1.340  -8.543   7.466  0.00  0.00    +0.023 A 
ATOM     15  C   UNL     1      -2.610  -8.111   7.828  0.00  0.00    +0.029 A 
ATOM     16  C   UNL     1      -2.779  -6.849   8.383  0.00  0.00    +0.023 A 
ATOM     17  C   UNL     1      -1.684  -6.030   8.580  0.00  0.00    +0.006 A 
BRANCH  15  18
ATOM     18  N   UNL     1      -3.714  -8.944   7.633  0.00  0.00    -0.336 N 
ATOM     19  C   UNL     1      -3.534 -10.274   7.046  0.00  0.00    +0.129 C 
ATOM     20  C   UNL     1      -5.053  -8.486   8.015  0.00  0.00    +0.129 C 
ENDBRANCH  15  18
ENDBRANCH   1  12
BRANCH   1  21
ATOM     21  C   UNL     1       1.438  -5.280   7.077  0.00  0.00    +0.118 C 
BRANCH  21  22
ATOM     22  N   UNL     1       2.523  -4.313   7.264  0.00  0.00    -0.189 NA
ATOM     23  H   UNL     1       2.578  -3.799   8.085  0.00  0.00    +0.148 HD
BRANCH  22  24
ATOM     24  S   UNL     1       3.654  -4.097   6.074  0.00  0.00    +0.058 S 
ATOM     25  O   UNL     1       4.101  -5.392   5.698  0.00  0.00    -0.153 OA
ATOM     26  O   UNL     1       4.543  -3.089   6.536  0.00  0.00    -0.153 OA
BRANCH  24  30
ATOM     27  C   UNL     1       1.502  -2.374   2.477  0.00  0.00    +0.059 A 
ATOM     28  C   UNL     1       2.050  -1.524   3.440  0.00  0.00    +0.017 A 
ATOM     29  C   UNL     1       2.704  -2.055   4.532  0.00  0.00    +0.029 A 
ATOM     30  C   UNL     1       2.817  -3.427   4.675  0.00  0.00    +0.105 A 
ATOM     31  C   UNL     1       2.278  -4.275   3.724  0.00  0.00    +0.029 A 
ATOM     32  C   UNL     1       1.616  -3.757   2.630  0.00  0.00    +0.017 A 
BRANCH  27  33
ATOM     33  C   UNL     1       0.801  -1.812   1.304  0.00  0.00    +0.339 C 
ATOM     34  O   UNL     1       0.322  -2.554   0.471  0.00  0.00    -0.245 OA
BRANCH  33  35
ATOM     35  O   UNL     1       0.693  -0.477   1.160  0.00  0.00    -0.461 OA
BRANCH  35  37
ATOM     36  C   UNL     1      -0.019   1.526   0.010  0.00  0.00    +0.048 C 
ATOM     37  C   UNL     1       0.002  -0.004   0.002  0.00  0.00    +0.229 C 
ENDBRANCH  35  37
ENDBRANCH  33  35
ENDBRANCH  27  33
ENDBRANCH  24  30
ENDBRANCH  22  24
ENDBRANCH  21  22
ENDBRANCH   1  21
TORSDOF 10
