REMARK  Name = ZINC13499610
REMARK  12 active torsions:
REMARK  status: ('A' for Active; 'I' for Inactive)
REMARK    1  A    between atoms: C_1  and  C_2
REMARK    2  A    between atoms: C_2  and  C_3
REMARK    3  A    between atoms: C_3  and  C_4
REMARK    4  A    between atoms: C_4  and  C_6
REMARK    5  A    between atoms: C_4  and  N_69
REMARK    6  A    between atoms: N_10  and  C_11
REMARK    7  A    between atoms: C_11  and  C_12
REMARK    8  A    between atoms: C_17  and  C_18
REMARK    9  A    between atoms: C_17  and  N_69
REMARK   10  A    between atoms: C_21  and  C_31
REMARK   11  A    between atoms: C_23  and  C_30
REMARK   12  A    between atoms: C_32  and  N_69
REMARK                            x       y       z     vdW  Elec       q    Type
REMARK                         _______ _______ _______ _____ _____    ______ ____
ROOT
ATOM      1  N   UNL     1      -1.044   1.399   1.609  0.00  0.00    +0.391 N 
ATOM      2  H   UNL     1      -1.162   2.377   1.899  0.00  0.00    -0.080 HD
ENDROOT
BRANCH   1   3
ATOM      3  C   UNL     1       0.156   1.294   0.753  0.00  0.00    -0.067 C 
ATOM      4  C   UNL     1       0.102   2.363  -0.366  0.00  0.00    -0.015 C 
ATOM      5  C   UNL     1       1.595   2.550  -0.733  0.00  0.00    -0.002 C 
ATOM      6  C   UNL     1       2.332   2.457   0.619  0.00  0.00    -0.002 C 
ATOM      7  C   UNL     1       1.417   1.658   1.564  0.00  0.00    -0.015 C 
ENDBRANCH   1   3
BRANCH   1   8
ATOM      8  C   UNL     1      -2.242   0.974   0.855  0.00  0.00    +0.003 C 
BRANCH   8   9
ATOM      9  C   UNL     1      -1.911  -0.188  -0.046  0.00  0.00    +0.139 A 
ATOM     10  N   UNL     1      -1.038  -0.197  -1.023  0.00  0.00    -0.115 NA
ATOM     11  N   UNL     1      -1.045  -1.372  -1.553  0.00  0.00    -0.023 NA
ATOM     12  N   UNL     1      -1.901  -2.112  -0.939  0.00  0.00    -0.044 NA
ATOM     13  N   UNL     1      -2.451  -1.420   0.001  0.00  0.00    -0.223 N 
BRANCH  13  14
ATOM     14  C   UNL     1      -3.475  -1.887   0.939  0.00  0.00    +0.221 C 
BRANCH  14  15
ATOM     15  C   UNL     1      -4.842  -1.635   0.357  0.00  0.00    +0.126 A 
ATOM     16  C   UNL     1      -5.535  -2.487  -0.420  0.00  0.00    +0.046 A 
ATOM     17  C   UNL     1      -6.758  -1.851  -0.736  0.00  0.00    +0.041 A 
ATOM     18  C   UNL     1      -6.736  -0.646  -0.139  0.00  0.00    +0.195 A 
ATOM     19  O   UNL     1      -5.573  -0.520   0.521  0.00  0.00    -0.466 OA
ENDBRANCH  14  15
ENDBRANCH  13  14
ENDBRANCH   8   9
BRANCH   8  20
ATOM     20  C   UNL     1      -2.730   2.152   0.009  0.00  0.00    -0.008 C 
BRANCH  20  22
ATOM     21  C   UNL     1      -3.691   4.456   0.093  0.00  0.00    +0.004 C 
ATOM     22  C   UNL     1      -3.087   3.324   0.925  0.00  0.00    -0.005 C 
ENDBRANCH  20  22
ENDBRANCH   8  20
ENDBRANCH   1   8
BRANCH   1  23
ATOM     23  C   UNL     1      -0.881   0.557   2.814  0.00  0.00    -0.036 C 
BRANCH  23  24
ATOM     24  C   UNL     1      -1.894   0.985   3.844  0.00  0.00    +0.001 A 
ATOM     25  C   UNL     1      -3.056   0.298   3.975  0.00  0.00    +0.017 A 
ATOM     26  C   UNL     1      -4.017   0.737   4.988  0.00  0.00    +0.002 A 
ATOM     27  C   UNL     1      -5.230   0.065   5.174  0.00  0.00    -0.041 A 
ATOM     28  C   UNL     1      -6.108   0.502   6.125  0.00  0.00    +0.007 A 
ATOM     29  C   UNL     1      -5.808   1.609   6.908  0.00  0.00    -0.048 A 
ATOM     30  C   UNL     1      -4.619   2.286   6.742  0.00  0.00    +0.029 A 
ATOM     31  C   UNL     1      -3.709   1.859   5.780  0.00  0.00    +0.050 A 
ATOM     32  N   UNL     1      -2.513   2.518   5.593  0.00  0.00    -0.322 N 
ATOM     33  H   UNL     1      -2.302   3.290   6.140  0.00  0.00    +0.169 HD
ATOM     34  C   UNL     1      -1.634   2.104   4.664  0.00  0.00    +0.251 A 
ATOM     35  O   UNL     1      -0.586   2.711   4.526  0.00  0.00    -0.268 OA
ATOM     36  C   UNL     1      -6.792   2.073   7.951  0.00  0.00    +0.044 C 
ATOM     37  C   UNL     1      -5.567  -1.137   4.329  0.00  0.00    +0.044 C 
ENDBRANCH  23  24
ENDBRANCH   1  23
TORSDOF 9
