REMARK  Name = ZINC00861535
REMARK  3 active torsions:
REMARK  status: ('A' for Active; 'I' for Inactive)
REMARK    1  A    between atoms: C_1  and  S_2
REMARK    2  A    between atoms: S_2  and  C_3
REMARK    3  A    between atoms: C_6  and  C_9
REMARK                            x       y       z     vdW  Elec       q    Type
REMARK                         _______ _______ _______ _____ _____    ______ ____
ROOT
ATOM      1  C   UNL     1      -1.220   3.225  -0.792  0.00  0.00    +0.060 C 
ATOM      2  C   UNL     1      -1.332   1.938   0.019  0.00  0.00    +0.109 C 
ATOM      3  C   UNL     1      -0.014   1.209   0.009  0.00  0.00    +0.218 C 
ATOM      4  O   UNL     1       0.002  -0.004   0.002  0.00  0.00    -0.275 OA
ATOM      5  N   UNL     1       1.145   1.892   0.001  0.00  0.00    -0.285 N 
ATOM      6  C   UNL     1       1.145   3.287   0.001  0.00  0.00    +0.045 A 
ATOM      7  C   UNL     1       0.016   3.981  -0.378  0.00  0.00    -0.017 A 
ATOM      8  C   UNL     1       0.009   5.374  -0.380  0.00  0.00    +0.022 A 
ATOM      9  C   UNL     1       1.111   6.085  -0.012  0.00  0.00    +0.026 A 
ATOM     10  C   UNL     1       2.282   5.413   0.381  0.00  0.00    -0.002 A 
ATOM     11  C   UNL     1       2.301   3.997   0.388  0.00  0.00    +0.005 A 
ATOM     12  C   UNL     1       3.470   3.325   0.780  0.00  0.00    +0.010 A 
ATOM     13  C   UNL     1       4.568   4.043   1.147  0.00  0.00    +0.001 A 
ATOM     14  C   UNL     1       4.550   5.436   1.139  0.00  0.00    +0.001 A 
ATOM     15  C   UNL     1       3.434   6.120   0.765  0.00  0.00    +0.009 A 
ATOM     16 BR   UNL     1       1.065   7.975  -0.028  0.00  0.00    -0.050 Br
ATOM     17  H   UNL     1       1.987   1.411  -0.004  0.00  0.00    +0.155 HD
ENDROOT
BRANCH   1  21
ATOM     18  C   UNL     1      -0.971   2.257  -4.948  0.00  0.00    +0.008 A 
ATOM     19  C   UNL     1      -2.017   3.042  -4.477  0.00  0.00    +0.015 A 
ATOM     20  C   UNL     1      -2.094   3.353  -3.134  0.00  0.00    +0.005 A 
ATOM     21  C   UNL     1      -1.133   2.884  -2.257  0.00  0.00    -0.039 A 
ATOM     22  C   UNL     1      -0.087   2.107  -2.723  0.00  0.00    +0.005 A 
ATOM     23  C   UNL     1      -0.006   1.788  -4.064  0.00  0.00    +0.015 A 
BRANCH  18  25
ATOM     24  C   UNL     1       0.629   0.842  -6.786  0.00  0.00    +0.090 C 
ATOM     25  S   UNL     1      -0.868   1.858  -6.661  0.00  0.00    -0.129 S 
ENDBRANCH  18  25
ENDBRANCH   1  21
TORSDOF 2
