REMARK  Name = ZINC02804918
REMARK  10 active torsions:
REMARK  status: ('A' for Active; 'I' for Inactive)
REMARK    1  A    between atoms: C_1  and  C_2
REMARK    2  A    between atoms: C_2  and  N_3
REMARK    3  A    between atoms: C_4  and  C_28
REMARK    4  A    between atoms: C_5  and  S_8
REMARK    5  A    between atoms: S_8  and  N_11
REMARK    6  A    between atoms: N_11  and  C_12
REMARK    7  A    between atoms: C_13  and  C_27
REMARK    8  A    between atoms: N_15  and  C_18
REMARK    9  A    between atoms: C_16  and  C_17
REMARK   10  A    between atoms: C_18  and  C_19
REMARK                            x       y       z     vdW  Elec       q    Type
REMARK                         _______ _______ _______ _____ _____    ______ ____
ROOT
ATOM      1  C   UNL     1       0.286   1.454  -0.357  0.00  0.00    +0.091 A 
ATOM      2  C   UNL     1      -0.063   0.130  -0.663  0.00  0.00    +0.082 A 
ATOM      3  N   UNL     1       1.017  -0.606  -0.598  0.00  0.00    -0.174 NA
ATOM      4  N   UNL     1       2.094   0.220  -0.249  0.00  0.00    -0.262 N 
ATOM      5  C   UNL     1       1.619   1.486  -0.106  0.00  0.00    +0.059 A 
ATOM      6  C   UNL     1       2.427   2.703   0.264  0.00  0.00    +0.067 C 
ATOM      7  C   UNL     1      -1.446  -0.360  -1.006  0.00  0.00    +0.069 C 
ENDROOT
BRANCH   1   8
ATOM      8  N   UNL     1      -0.591   2.555  -0.324  0.00  0.00    -0.213 N 
ATOM      9  H   UNL     1      -0.672   3.085   0.485  0.00  0.00    +0.174 HD
BRANCH   8  10
ATOM     10  S   UNL     1      -1.482   2.945  -1.663  0.00  0.00    +0.076 S 
ATOM     11  O   UNL     1      -2.150   1.757  -2.067  0.00  0.00    -0.150 OA
ATOM     12  O   UNL     1      -2.181   4.143  -1.352  0.00  0.00    -0.150 OA
BRANCH  10  15
ATOM     13  N   UNL     1       1.196   4.356  -4.118  0.00  0.00    -0.267 N 
ATOM     14  C   UNL     1       0.492   4.408  -2.968  0.00  0.00    +0.063 A 
ATOM     15  C   UNL     1      -0.345   3.345  -2.948  0.00  0.00    +0.149 A 
ATOM     16  C   UNL     1      -0.152   2.623  -4.130  0.00  0.00    +0.163 A 
ATOM     17  N   UNL     1       0.771   3.228  -4.832  0.00  0.00    -0.177 NA
ATOM     18  C   UNL     1       0.618   5.460  -1.896  0.00  0.00    +0.067 C 
BRANCH  13  20
ATOM     19  C   UNL     1       1.562   6.440  -5.344  0.00  0.00    +0.029 C 
ATOM     20  C   UNL     1       2.220   5.313  -4.546  0.00  0.00    +0.140 C 
ENDBRANCH  13  20
ENDBRANCH  10  15
ENDBRANCH   8  10
ENDBRANCH   1   8
BRANCH   4  21
ATOM     21  C   UNL     1       3.484  -0.206  -0.070  0.00  0.00    +0.180 C 
BRANCH  21  22
ATOM     22  C   UNL     1       3.680  -0.702   1.339  0.00  0.00    -0.008 A 
ATOM     23  C   UNL     1       4.154   0.157   2.314  0.00  0.00    +0.009 A 
ATOM     24  C   UNL     1       4.329  -0.294   3.608  0.00  0.00    +0.039 A 
ATOM     25  C   UNL     1       4.040  -1.611   3.927  0.00  0.00    +0.125 A 
ATOM     26  C   UNL     1       3.571  -2.472   2.950  0.00  0.00    +0.058 A 
ATOM     27  C   UNL     1       3.391  -2.017   1.656  0.00  0.00    +0.049 A 
ATOM     28 CL   UNL     1       2.804  -3.096   0.430  0.00  0.00    -0.083 Cl
ATOM     29  F   UNL     1       4.217  -2.054   5.191  0.00  0.00    -0.205 F 
ENDBRANCH  21  22
ENDBRANCH   4  21
TORSDOF 6
