REMARK  Name = ZINC37673292
REMARK  8 active torsions:
REMARK  status: ('A' for Active; 'I' for Inactive)
REMARK    1  A    between atoms: C_1  and  C_2
REMARK    2  A    between atoms: C_2  and  C_4
REMARK    3  A    between atoms: C_2  and  N_11
REMARK    4  A    between atoms: C_7  and  N_10
REMARK    5  A    between atoms: N_11  and  C_12
REMARK    6  A    between atoms: C_17  and  S_18
REMARK    7  A    between atoms: S_18  and  N_21
REMARK    8  A    between atoms: N_21  and  C_22
REMARK                            x       y       z     vdW  Elec       q    Type
REMARK                         _______ _______ _______ _____ _____    ______ ____
ROOT
ATOM      1  N   UNL     1      -1.587  -0.178  -0.176  0.00  0.00    -0.336 N 
ATOM      2  H   UNL     1      -1.947  -0.412   0.694  0.00  0.00    +0.147 HD
ENDROOT
BRANCH   1   3
ATOM      3  C   UNL     1      -2.309  -0.480  -1.333  0.00  0.00    +0.054 A 
ATOM      4  C   UNL     1      -1.853  -0.044  -2.571  0.00  0.00    +0.025 A 
ATOM      5  C   UNL     1      -2.569  -0.345  -3.713  0.00  0.00    +0.002 A 
ATOM      6  C   UNL     1      -3.737  -1.080  -3.626  0.00  0.00    +0.002 A 
ATOM      7  C   UNL     1      -4.193  -1.515  -2.396  0.00  0.00    +0.030 A 
ATOM      8  C   UNL     1      -3.479  -1.223  -1.250  0.00  0.00    +0.126 A 
BRANCH   8   9
ATOM      9  S   UNL     1      -4.057  -1.785   0.317  0.00  0.00    +0.060 S 
ATOM     10  O   UNL     1      -5.285  -2.460   0.079  0.00  0.00    -0.153 OA
ATOM     11  O   UNL     1      -2.954  -2.414   0.955  0.00  0.00    -0.153 OA
BRANCH   9  12
ATOM     12  N   UNL     1      -4.421  -0.443   1.215  0.00  0.00    -0.193 NA
ATOM     13  C   UNL     1      -5.508   0.446   0.797  0.00  0.00    +0.127 C 
ATOM     14  H   UNL     1      -3.915  -0.245   2.019  0.00  0.00    +0.148 HD
ENDBRANCH   9  12
ENDBRANCH   8   9
ENDBRANCH   1   3
BRANCH   1  16
ATOM     15  C   UNL     1      -0.501   2.005  -0.363  0.00  0.00    +0.033 C 
ATOM     16  C   UNL     1      -0.289   0.492  -0.276  0.00  0.00    +0.098 C 
BRANCH  16  17
ATOM     17  C   UNL     1       0.538   0.170   0.942  0.00  0.00    -0.027 A 
ATOM     18  C   UNL     1      -0.059   0.118   2.188  0.00  0.00    +0.007 A 
ATOM     19  C   UNL     1       0.696  -0.177   3.306  0.00  0.00    +0.023 A 
ATOM     20  C   UNL     1       2.057  -0.422   3.178  0.00  0.00    +0.025 A 
ATOM     21  C   UNL     1       2.654  -0.369   1.925  0.00  0.00    +0.023 A 
ATOM     22  C   UNL     1       1.892  -0.079   0.810  0.00  0.00    +0.007 A 
BRANCH  20  23
ATOM     23  N   UNL     1       2.824  -0.721   4.307  0.00  0.00    -0.358 N 
ATOM     24  H   UNL     1       2.405  -0.757   5.181  0.00  0.00    +0.142 HD
ATOM     25  H   UNL     1       3.774  -0.892   4.216  0.00  0.00    +0.142 HD
ENDBRANCH  20  23
ENDBRANCH  16  17
ENDBRANCH   1  16
TORSDOF 6
