REMARK  Name = ZINC13495805
REMARK  11 active torsions:
REMARK  status: ('A' for Active; 'I' for Inactive)
REMARK    1  A    between atoms: C_1  and  C_2
REMARK    2  A    between atoms: C_2  and  C_3
REMARK    3  A    between atoms: C_3  and  C_5
REMARK    4  A    between atoms: C_3  and  N_72
REMARK    5  A    between atoms: N_9  and  C_10
REMARK    6  A    between atoms: C_16  and  C_17
REMARK    7  A    between atoms: C_16  and  N_72
REMARK    8  A    between atoms: C_17  and  C_18
REMARK    9  A    between atoms: C_24  and  C_25
REMARK   10  A    between atoms: C_24  and  N_72
REMARK   11  A    between atoms: C_31  and  C_37
REMARK                            x       y       z     vdW  Elec       q    Type
REMARK                         _______ _______ _______ _____ _____    ______ ____
ROOT
ATOM      1  N   UNL     1       1.799  -3.099   5.404  0.00  0.00    +0.389 N 
ATOM      2  H   UNL     1       2.519  -3.501   4.793  0.00  0.00    -0.080 HD
ENDROOT
BRANCH   1   3
ATOM      3  C   UNL     1       1.782  -3.843   6.681  0.00  0.00    +0.003 C 
BRANCH   3   4
ATOM      4  C   UNL     1       2.103  -5.288   6.400  0.00  0.00    +0.138 A 
ATOM      5  N   UNL     1       1.645  -6.013   5.409  0.00  0.00    -0.115 NA
ATOM      6  N   UNL     1       2.153  -7.193   5.511  0.00  0.00    -0.023 NA
ATOM      7  N   UNL     1       2.917  -7.242   6.545  0.00  0.00    -0.044 NA
ATOM      8  N   UNL     1       2.913  -6.087   7.120  0.00  0.00    -0.228 N 
BRANCH   8   9
ATOM      9  C   UNL     1       3.651  -5.714   8.329  0.00  0.00    +0.111 C 
ATOM     10  C   UNL     1       5.151  -5.899   8.088  0.00  0.00    +0.027 C 
ATOM     11  C   UNL     1       5.922  -5.509   9.351  0.00  0.00    +0.002 C 
ATOM     12  C   UNL     1       5.479  -6.399  10.514  0.00  0.00    +0.000 C 
ATOM     13  C   UNL     1       3.979  -6.214  10.755  0.00  0.00    +0.002 C 
ATOM     14  C   UNL     1       3.208  -6.603   9.492  0.00  0.00    +0.027 C 
ENDBRANCH   8   9
ENDBRANCH   3   4
BRANCH   3  16
ATOM     15  C   UNL     1       0.136  -2.298   7.752  0.00  0.00    +0.002 C 
ATOM     16  C   UNL     1       0.403  -3.746   7.338  0.00  0.00    -0.011 C 
ENDBRANCH   3  16
ENDBRANCH   1   3
BRANCH   1  17
ATOM     17  C   UNL     1       2.119  -1.677   5.652  0.00  0.00    -0.073 C 
BRANCH  17  18
ATOM     18  C   UNL     1       3.566  -1.575   6.137  0.00  0.00    +0.016 C 
BRANCH  18  19
ATOM     19  C   UNL     1       3.954  -0.123   6.257  0.00  0.00    -0.049 A 
ATOM     20  C   UNL     1       4.517   0.533   5.179  0.00  0.00    +0.003 A 
ATOM     21  C   UNL     1       4.868   1.866   5.287  0.00  0.00    +0.000 A 
ATOM     22  C   UNL     1       4.665   2.539   6.478  0.00  0.00    +0.000 A 
ATOM     23  C   UNL     1       4.107   1.881   7.558  0.00  0.00    +0.000 A 
ATOM     24  C   UNL     1       3.751   0.550   7.447  0.00  0.00    +0.003 A 
ENDBRANCH  18  19
ENDBRANCH  17  18
ENDBRANCH   1  17
BRANCH   1  25
ATOM     25  C   UNL     1       0.485  -3.212   4.736  0.00  0.00    -0.037 C 
BRANCH  25  26
ATOM     26  C   UNL     1       0.624  -2.742   3.311  0.00  0.00    +0.001 A 
ATOM     27  C   UNL     1       0.868  -3.639   2.325  0.00  0.00    +0.017 A 
ATOM     28  C   UNL     1       0.997  -3.151   0.951  0.00  0.00    -0.001 A 
ATOM     29  C   UNL     1       1.249  -4.028  -0.109  0.00  0.00    +0.010 A 
ATOM     30  C   UNL     1       1.365  -3.540  -1.380  0.00  0.00    +0.001 A 
ATOM     31  C   UNL     1       1.228  -2.181  -1.630  0.00  0.00    +0.005 A 
ATOM     32  C   UNL     1       0.987  -1.298  -0.600  0.00  0.00    -0.026 A 
ATOM     33  C   UNL     1       0.865  -1.772   0.702  0.00  0.00    +0.052 A 
ATOM     34  N   UNL     1       0.618  -0.911   1.750  0.00  0.00    -0.322 N 
ATOM     35  H   UNL     1       0.527   0.040   1.577  0.00  0.00    +0.169 HD
ATOM     36  C   UNL     1       0.500  -1.369   3.009  0.00  0.00    +0.251 A 
ATOM     37  O   UNL     1       0.281  -0.579   3.910  0.00  0.00    -0.268 OA
ATOM     38  C   UNL     1       0.848   0.176  -0.885  0.00  0.00    +0.046 C 
ENDBRANCH  25  26
ENDBRANCH   1  25
TORSDOF 9
