REMARK  Name = ZINC09459779
REMARK  9 active torsions:
REMARK  status: ('A' for Active; 'I' for Inactive)
REMARK    1  A    between atoms: C_1  and  C_2
REMARK    2  A    between atoms: C_2  and  N_3
REMARK    3  A    between atoms: C_12  and  S_13
REMARK    4  A    between atoms: S_13  and  C_14
REMARK    5  A    between atoms: C_14  and  C_15
REMARK    6  A    between atoms: N_17  and  C_18
REMARK    7  A    between atoms: C_20  and  C_26
REMARK    8  A    between atoms: C_23  and  O_24
REMARK    9  A    between atoms: O_24  and  C_25
REMARK                            x       y       z     vdW  Elec       q    Type
REMARK                         _______ _______ _______ _____ _____    ______ ____
ROOT
ATOM      1  N   UNL     1      -0.135   1.135   4.053  0.00  0.00    -0.288 N 
ATOM      2  C   UNL     1       0.622   0.596   5.026  0.00  0.00    +0.263 A 
ATOM      3  O   UNL     1       0.346   0.782   6.199  0.00  0.00    -0.267 OA
ATOM      4  C   UNL     1       1.760  -0.193   4.665  0.00  0.00    +0.076 A 
ATOM      5  C   UNL     1       2.716  -0.863   5.549  0.00  0.00    -0.023 A 
ATOM      6  C   UNL     1       3.714  -1.553   4.961  0.00  0.00    -0.004 A 
ATOM      7  S   UNL     1       3.445  -1.356   3.220  0.00  0.00    -0.073 S 
ATOM      8  C   UNL     1       1.988  -0.344   3.288  0.00  0.00    +0.117 A 
ATOM      9  N   UNL     1       1.198   0.210   2.376  0.00  0.00    -0.216 NA
ATOM     10  C   UNL     1       0.157   0.933   2.735  0.00  0.00    +0.173 A 
ATOM     11  C   UNL     1       4.811  -2.318   5.637  0.00  0.00    +0.043 C 
ATOM     12  C   UNL     1       4.852  -1.902   7.114  0.00  0.00    +0.005 C 
ATOM     13  C   UNL     1       3.427  -1.935   7.675  0.00  0.00    +0.005 C 
ATOM     14  C   UNL     1       2.605  -0.796   7.070  0.00  0.00    +0.037 C 
ENDROOT
BRANCH   1  16
ATOM     15  C   UNL     1      -2.531   1.050   4.539  0.00  0.00    +0.027 C 
ATOM     16  C   UNL     1      -1.298   1.948   4.415  0.00  0.00    +0.124 C 
ENDBRANCH   1  16
BRANCH  10  17
ATOM     17  S   UNL     1      -0.870   1.653   1.497  0.00  0.00    -0.078 S 
BRANCH  17  18
ATOM     18  C   UNL     1      -0.021   1.072   0.008  0.00  0.00    +0.173 C 
BRANCH  18  19
ATOM     19  C   UNL     1      -0.744   1.582  -1.213  0.00  0.00    +0.228 C 
ATOM     20  O   UNL     1      -1.734   2.270  -1.088  0.00  0.00    -0.275 OA
ATOM     21  N   UNL     1      -0.288   1.272  -2.443  0.00  0.00    -0.282 N 
ATOM     22  H   UNL     1       0.547   0.790  -2.544  0.00  0.00    +0.155 HD
BRANCH  21  23
ATOM     23  C   UNL     1      -1.023   1.647  -3.576  0.00  0.00    +0.076 A 
ATOM     24  C   UNL     1      -2.391   1.853  -3.482  0.00  0.00    +0.030 A 
ATOM     25  C   UNL     1      -3.112   2.227  -4.599  0.00  0.00    -0.048 A 
ATOM     26  C   UNL     1      -2.475   2.387  -5.816  0.00  0.00    +0.007 A 
ATOM     27  C   UNL     1      -1.112   2.179  -5.919  0.00  0.00    +0.048 A 
ATOM     28  C   UNL     1      -0.381   1.808  -4.802  0.00  0.00    +0.141 A 
ATOM     29  C   UNL     1      -4.598   2.455  -4.494  0.00  0.00    +0.044 C 
BRANCH  28  30
ATOM     30  O   UNL     1       0.959   1.603  -4.902  0.00  0.00    -0.493 OA
ATOM     31  C   UNL     1       1.550   1.786  -6.191  0.00  0.00    +0.277 C 
ENDBRANCH  28  30
ENDBRANCH  21  23
ENDBRANCH  18  19
ENDBRANCH  17  18
ENDBRANCH  10  17
TORSDOF 6
