REMARK  Name = ZINC15597422
REMARK  9 active torsions:
REMARK  status: ('A' for Active; 'I' for Inactive)
REMARK    1  A    between atoms: C_1  and  C_2
REMARK    2  A    between atoms: C_2  and  C_4
REMARK    3  A    between atoms: C_2  and  S_27
REMARK    4  A    between atoms: N_6  and  N_7
REMARK    5  A    between atoms: C_8  and  C_10
REMARK    6  A    between atoms: N_12  and  C_21
REMARK    7  A    between atoms: C_14  and  C_15
REMARK    8  A    between atoms: S_27  and  C_28
REMARK    9  A    between atoms: C_31  and  N_34
REMARK                            x       y       z     vdW  Elec       q    Type
REMARK                         _______ _______ _______ _____ _____    ______ ____
ROOT
ATOM      1  N   UNL     1       4.787   4.135   1.382  0.00  0.00    -0.230 N 
ATOM      2  C   UNL     1       4.341   3.037   0.740  0.00  0.00    +0.264 C 
ATOM      3  O   UNL     1       4.838   1.952   0.973  0.00  0.00    -0.269 OA
ATOM      4  H   UNL     1       4.390   5.000   1.196  0.00  0.00    +0.173 HD
ENDROOT
BRANCH   2   5
ATOM      5  C   UNL     1       3.251   3.152  -0.244  0.00  0.00    +0.084 A 
ATOM      6  C   UNL     1       2.589   4.305  -0.614  0.00  0.00    +0.128 A 
ATOM      7  N   UNL     1       1.668   3.974  -1.536  0.00  0.00    -0.239 N 
ATOM      8  N   UNL     1       1.722   2.599  -1.781  0.00  0.00    -0.166 NA
ATOM      9  C   UNL     1       2.654   2.063  -1.024  0.00  0.00    +0.105 A 
BRANCH   9  10
ATOM     10  C   UNL     1       3.034   0.631  -0.974  0.00  0.00    +0.003 A 
ATOM     11  C   UNL     1       2.062  -0.356  -1.127  0.00  0.00    +0.010 A 
ATOM     12  C   UNL     1       2.421  -1.688  -1.080  0.00  0.00    +0.001 A 
ATOM     13  C   UNL     1       3.743  -2.043  -0.882  0.00  0.00    +0.000 A 
ATOM     14  C   UNL     1       4.712  -1.068  -0.730  0.00  0.00    +0.001 A 
ATOM     15  C   UNL     1       4.364   0.267  -0.775  0.00  0.00    +0.010 A 
ENDBRANCH   9  10
BRANCH   7  16
ATOM     16  C   UNL     1       0.791   4.871  -2.159  0.00  0.00    +0.065 A 
ATOM     17  C   UNL     1       0.829   6.221  -1.833  0.00  0.00    +0.028 A 
ATOM     18  C   UNL     1      -0.034   7.104  -2.453  0.00  0.00    +0.002 A 
ATOM     19  C   UNL     1      -0.942   6.643  -3.389  0.00  0.00    +0.000 A 
ATOM     20  C   UNL     1      -0.986   5.299  -3.711  0.00  0.00    +0.002 A 
ATOM     21  C   UNL     1      -0.122   4.412  -3.099  0.00  0.00    +0.028 A 
ENDBRANCH   7  16
ENDBRANCH   2   5
BRANCH   1  24
ATOM     22  C   UNL     1       6.270   5.123   2.961  0.00  0.00    +0.242 C 
ATOM     23  O   UNL     1       5.774   6.205   2.728  0.00  0.00    -0.273 OA
ATOM     24  N   UNL     1       5.824   4.026   2.318  0.00  0.00    -0.233 N 
ATOM     25  H   UNL     1       6.220   3.160   2.504  0.00  0.00    +0.173 HD
BRANCH  22  27
ATOM     26  C   UNL     1       6.820   4.503   5.298  0.00  0.00    +0.029 C 
ATOM     27  C   UNL     1       7.385   5.006   3.967  0.00  0.00    +0.135 C 
BRANCH  27  28
ATOM     28  S   UNL     1       8.153   6.631   4.212  0.00  0.00    -0.113 S 
BRANCH  28  29
ATOM     29  C   UNL     1       9.552   6.293   5.228  0.00  0.00    +0.009 A 
ATOM     30  C   UNL     1       9.457   6.420   6.609  0.00  0.00    +0.017 A 
ATOM     31  C   UNL     1      10.553   6.148   7.403  0.00  0.00    +0.034 A 
ATOM     32  C   UNL     1      11.749   5.762   6.824  0.00  0.00    +0.126 A 
ATOM     33  C   UNL     1      11.849   5.640   5.450  0.00  0.00    +0.034 A 
ATOM     34  C   UNL     1      10.755   5.904   4.651  0.00  0.00    +0.017 A 
BRANCH  32  35
ATOM     35  N   UNL     1      12.924   5.477   7.678  0.00  0.00    +0.056 N 
ATOM     36  O   UNL     1      13.977   5.137   7.171  0.00  0.00    -0.126 OA
ATOM     37  O   UNL     1      12.837   5.583   8.889  0.00  0.00    -0.126 OA
ENDBRANCH  32  35
ENDBRANCH  28  29
ENDBRANCH  27  28
ENDBRANCH  22  27
ENDBRANCH   1  24
TORSDOF 8
