REMARK  Name = ZINC31157753
REMARK  13 active torsions:
REMARK  status: ('A' for Active; 'I' for Inactive)
REMARK    1  A    between atoms: C_1  and  C_2
REMARK    2  A    between atoms: C_9  and  C_36
REMARK    3  A    between atoms: C_13  and  C_32
REMARK    4  A    between atoms: C_14  and  C_15
REMARK    5  A    between atoms: C_14  and  O_31
REMARK    6  A    between atoms: C_15  and  C_16
REMARK    7  A    between atoms: C_16  and  C_17
REMARK    8  A    between atoms: C_17  and  O_30
REMARK    9  A    between atoms: C_18  and  O_29
REMARK   10  A    between atoms: C_20  and  O_27
REMARK   11  A    between atoms: C_23  and  O_25
REMARK   12  A    between atoms: O_25  and  C_26
REMARK   13  A    between atoms: O_27  and  C_28
REMARK                            x       y       z     vdW  Elec       q    Type
REMARK                         _______ _______ _______ _____ _____    ______ ____
ROOT
ATOM      1  C   UNL     1      -2.105   4.690  -0.277  0.00  0.00    +0.010 C 
ATOM      2  C   UNL     1      -1.116   5.801   0.093  0.00  0.00    +0.022 C 
ATOM      3  C   UNL     1      -1.882   7.102   0.348  0.00  0.00    +0.051 C 
ATOM      4  C   UNL     1      -2.258   7.221   1.784  0.00  0.00    +0.182 C 
ATOM      5  C   UNL     1      -0.965   7.128   2.604  0.00  0.00    +0.055 C 
ATOM      6  C   UNL     1      -1.381   7.679   3.948  0.00  0.00    +0.072 C 
ATOM      7  C   UNL     1      -1.121   6.816   5.128  0.00  0.00    +0.018 C 
ATOM      8  C   UNL     1      -0.063   5.741   5.024  0.00  0.00    +0.002 C 
ATOM      9  C   UNL     1       0.576   5.554   3.645  0.00  0.00    +0.010 C 
ATOM     10  C   UNL     1      -0.506   5.691   2.587  0.00  0.00    +0.004 C 
ATOM     11  C   UNL     1      -0.154   5.308   1.167  0.00  0.00    +0.075 C 
ATOM     12  C   UNL     1      -1.592   4.733   3.048  0.00  0.00    +0.014 C 
ATOM     13  C   UNL     1      -2.741   8.279   3.740  0.00  0.00    +0.314 C 
ATOM     14  O   UNL     1      -3.421   8.796   4.605  0.00  0.00    -0.250 OA
ATOM     15  O   UNL     1      -3.098   8.152   2.424  0.00  0.00    -0.461 OA
ATOM     16  C   UNL     1      -0.467   8.897   4.149  0.00  0.00    +0.023 C 
ENDROOT
BRANCH  11  17
ATOM     17  O   UNL     1       1.160   5.817   0.879  0.00  0.00    -0.388 OA
ATOM     18  H   UNL     1       2.002   5.571   1.542  0.00  0.00    +0.210 HD
ENDBRANCH  11  17
BRANCH  11  19
ATOM     19  C   UNL     1      -0.084   3.772   1.088  0.00  0.00    +0.038 C 
BRANCH  19  20
ATOM     20  C   UNL     1       0.520   3.357  -0.256  0.00  0.00    +0.045 C 
BRANCH  20  21
ATOM     21  C   UNL     1       0.486   1.833  -0.382  0.00  0.00    +0.147 C 
ATOM     22  C   UNL     1      -0.966   1.311  -0.295  0.00  0.00    +0.207 C 
ATOM     23  C   UNL     1      -1.198   0.620  -1.657  0.00  0.00    +0.284 C 
ATOM     24  O   UNL     1      -0.254   1.246  -2.554  0.00  0.00    -0.317 OA
ATOM     25  C   UNL     1       0.960   1.395  -1.785  0.00  0.00    +0.287 C 
BRANCH  25  26
ATOM     26  O   UNL     1       1.797   2.399  -2.363  0.00  0.00    -0.352 OA
ATOM     27  C   UNL     1       2.371   2.025  -3.617  0.00  0.00    +0.197 C 
ENDBRANCH  25  26
BRANCH  23  28
ATOM     28  O   UNL     1      -2.535   0.842  -2.109  0.00  0.00    -0.352 OA
ATOM     29  C   UNL     1      -2.881   0.109  -3.286  0.00  0.00    +0.197 C 
ENDBRANCH  23  28
BRANCH  22  30
ATOM     30  O   UNL     1      -1.097   0.371   0.772  0.00  0.00    -0.384 OA
ATOM     31  H   UNL     1      -2.071  -0.100   0.974  0.00  0.00    +0.210 HD
ENDBRANCH  22  30
BRANCH  21  32
ATOM     32  O   UNL     1       1.296   1.230   0.630  0.00  0.00    -0.381 OA
ATOM     33  H   UNL     1       1.384   0.135   0.684  0.00  0.00    +0.210 HD
ENDBRANCH  21  32
ENDBRANCH  20  21
ENDBRANCH  19  20
ENDBRANCH  11  19
TORSDOF 8
