REMARK  Name = ZINC49548148
REMARK  6 active torsions:
REMARK  status: ('A' for Active; 'I' for Inactive)
REMARK    1  A    between atoms: C_1  and  O_2
REMARK    2  A    between atoms: O_2  and  C_3
REMARK    3  A    between atoms: C_3  and  C_5
REMARK    4  A    between atoms: C_5  and  N_6
REMARK    5  A    between atoms: C_12  and  C_24
REMARK    6  A    between atoms: N_17  and  C_18
REMARK                            x       y       z     vdW  Elec       q    Type
REMARK                         _______ _______ _______ _____ _____    ______ ____
ROOT
ATOM      1  N   UNL     1      -2.160  -3.883   0.514  0.00  0.00    -0.279 N 
ATOM      2  C   UNL     1      -3.146  -3.333   1.289  0.00  0.00    +0.126 A 
ATOM      3  C   UNL     1      -4.404  -3.684   0.947  0.00  0.00    +0.042 A 
ATOM      4  S   UNL     1      -4.170  -4.768  -0.429  0.00  0.00    -0.029 S 
ATOM      5  C   UNL     1      -2.489  -4.709  -0.501  0.00  0.00    +0.293 A 
ATOM      6  O   UNL     1      -1.746  -5.278  -1.282  0.00  0.00    -0.259 OA
ATOM      7  C   UNL     1      -5.654  -3.219   1.615  0.00  0.00    +0.068 C 
ATOM      8  C   UNL     1      -5.321  -2.885   3.076  0.00  0.00    +0.110 C 
ATOM      9  C   UNL     1      -4.010  -2.155   3.162  0.00  0.00    +0.226 C 
ATOM     10  O   UNL     1      -3.894  -1.265   3.978  0.00  0.00    -0.275 OA
ATOM     11  N   UNL     1      -2.959  -2.446   2.375  0.00  0.00    -0.225 N 
ENDROOT
BRANCH   7  12
ATOM     12  C   UNL     1      -6.692  -4.310   1.566  0.00  0.00    -0.039 A 
ATOM     13  C   UNL     1      -6.439  -5.532   2.162  0.00  0.00    +0.007 A 
ATOM     14  C   UNL     1      -7.391  -6.533   2.118  0.00  0.00    +0.038 A 
ATOM     15  C   UNL     1      -8.598  -6.312   1.477  0.00  0.00    +0.123 A 
ATOM     16  C   UNL     1      -8.851  -5.088   0.881  0.00  0.00    +0.038 A 
ATOM     17  C   UNL     1      -7.899  -4.087   0.930  0.00  0.00    +0.007 A 
ATOM     18  F   UNL     1      -9.529  -7.291   1.433  0.00  0.00    -0.205 F 
ENDBRANCH   7  12
BRANCH  11  19
ATOM     19  C   UNL     1      -1.703  -1.880   2.625  0.00  0.00    +0.043 A 
ATOM     20  C   UNL     1      -1.446  -0.565   2.260  0.00  0.00    +0.024 A 
ATOM     21  C   UNL     1      -0.206  -0.011   2.508  0.00  0.00    +0.002 A 
ATOM     22  C   UNL     1       0.780  -0.764   3.120  0.00  0.00    +0.000 A 
ATOM     23  C   UNL     1       0.528  -2.073   3.484  0.00  0.00    +0.002 A 
ATOM     24  C   UNL     1      -0.713  -2.632   3.245  0.00  0.00    +0.024 A 
ENDBRANCH  11  19
BRANCH   1  25
ATOM     25  C   UNL     1      -0.754  -3.571   0.782  0.00  0.00    +0.247 C 
BRANCH  25  26
ATOM     26  C   UNL     1      -0.150  -4.659   1.631  0.00  0.00    +0.327 C 
ATOM     27  O   UNL     1      -0.854  -5.531   2.085  0.00  0.00    -0.249 OA
BRANCH  26  29
ATOM     28  C   UNL     1       1.672  -5.723   2.696  0.00  0.00    +0.280 C 
ATOM     29  O   UNL     1       1.168  -4.661   1.884  0.00  0.00    -0.467 OA
ENDBRANCH  26  29
ENDBRANCH  25  26
ENDBRANCH   1  25
TORSDOF 5
