REMARK  Name = ZINC35023469
REMARK  7 active torsions:
REMARK  status: ('A' for Active; 'I' for Inactive)
REMARK    1  A    between atoms: C_1  and  C_2
REMARK    2  A    between atoms: C_5  and  O_38
REMARK    3  A    between atoms: C_7  and  C_11
REMARK    4  A    between atoms: C_11  and  C_13
REMARK    5  A    between atoms: C_11  and  C_14
REMARK    6  A    between atoms: C_15  and  C_37
REMARK    7  A    between atoms: C_30  and  O_36
REMARK                            x       y       z     vdW  Elec       q    Type
REMARK                         _______ _______ _______ _____ _____    ______ ____
ROOT
ATOM      1  C   UNL     1      -0.726  -0.658   5.060  0.00  0.00    -0.068 C 
ATOM      2  C   UNL     1      -0.267   0.226   5.934  0.00  0.00    -0.062 C 
ATOM      3  C   UNL     1       0.567  -0.383   7.026  0.00  0.00    +0.093 C 
ATOM      4  C   UNL     1      -0.312  -1.569   7.527  0.00  0.00    +0.030 C 
ATOM      5  C   UNL     1      -0.169  -2.683   6.524  0.00  0.00    +0.013 C 
ATOM      6  C   UNL     1      -0.419  -2.120   5.117  0.00  0.00    +0.031 C 
ATOM      7  C   UNL     1       0.148  -1.772   8.924  0.00  0.00    -0.055 C 
ATOM      8  C   UNL     1       0.718  -0.626   9.360  0.00  0.00    +0.003 C 
ATOM      9  C   UNL     1       0.698   0.411   8.298  0.00  0.00    +0.167 C 
ATOM     10  O   UNL     1       0.764   1.616   8.421  0.00  0.00    -0.292 OA
ATOM     11  C   UNL     1       1.273  -0.458  10.738  0.00  0.00    +0.048 C 
ATOM     12  C   UNL     1       2.795  -0.352  10.764  0.00  0.00    +0.015 C 
ATOM     13  C   UNL     1       3.241  -0.148  12.217  0.00  0.00    +0.032 C 
ATOM     14  C   UNL     1       2.820  -1.330  13.088  0.00  0.00    +0.119 C 
ATOM     15  C   UNL     1       1.290  -1.474  13.090  0.00  0.00    +0.062 C 
ATOM     16  C   UNL     1       0.880  -1.608  11.629  0.00  0.00    -0.063 C 
ATOM     17  C   UNL     1       0.304  -2.687  11.211  0.00  0.00    -0.023 C 
ATOM     18  C   UNL     1       0.052  -3.016   9.769  0.00  0.00    +0.058 C 
ATOM     19  C   UNL     1      -0.553   1.702   5.841  0.00  0.00    +0.040 C 
ENDROOT
BRANCH   1  20
ATOM     20  C   UNL     1      -1.614  -0.162   3.948  0.00  0.00    +0.000 C 
ATOM     21  C   UNL     1      -3.027  -0.718   4.137  0.00  0.00    +0.010 C 
BRANCH  20  26
ATOM     22  C   UNL     1       0.056   1.430  -0.030  0.00  0.00    +0.005 C 
ATOM     23  C   UNL     1       0.043  -0.100  -0.013  0.00  0.00    -0.029 C 
ATOM     24  C   UNL     1      -1.398  -0.598   0.129  0.00  0.00    +0.031 C 
ATOM     25  C   UNL     1      -1.960  -0.126   1.474  0.00  0.00    +0.101 C 
ATOM     26  C   UNL     1      -1.057  -0.631   2.602  0.00  0.00    -0.036 C 
ATOM     27  N   UNL     1       0.299  -0.099   2.424  0.00  0.00    +0.383 N 
ATOM     28  C   UNL     1       0.872  -0.605   1.169  0.00  0.00    -0.079 C 
ATOM     29  H   UNL     1       0.263   0.909   2.393  0.00  0.00    -0.085 HD
ATOM     30  H   UNL     1       0.878  -0.389   3.198  0.00  0.00    -0.085 HD
BRANCH  25  31
ATOM     31  O   UNL     1      -2.003   1.302   1.498  0.00  0.00    -0.393 OA
ATOM     32  H   UNL     1      -2.556   1.690   0.807  0.00  0.00    +0.210 HD
ENDBRANCH  25  31
ENDBRANCH  20  26
ENDBRANCH   1  20
BRANCH  14  33
ATOM     33  O   UNL     1       3.404  -2.528  12.574  0.00  0.00    -0.391 OA
ATOM     34  H   UNL     1       3.180  -3.323  13.078  0.00  0.00    +0.210 HD
ENDBRANCH  14  33
TORSDOF 4
