REMARK  Name = ZINC39638199
REMARK  11 active torsions:
REMARK  status: ('A' for Active; 'I' for Inactive)
REMARK    1  A    between atoms: C_1  and  C_2
REMARK    2  A    between atoms: C_2  and  C_3
REMARK    3  A    between atoms: C_3  and  C_5
REMARK    4  A    between atoms: C_3  and  N_8
REMARK    5  A    between atoms: C_5  and  O_6
REMARK    6  A    between atoms: O_6  and  C_7
REMARK    7  A    between atoms: C_9  and  C_11
REMARK    8  A    between atoms: C_22  and  C_24
REMARK    9  A    between atoms: C_24  and  O_25
REMARK   10  A    between atoms: O_25  and  C_26
REMARK   11  A    between atoms: C_36  and  C_37
REMARK                            x       y       z     vdW  Elec       q    Type
REMARK                         _______ _______ _______ _____ _____    ______ ____
ROOT
ATOM      1  C   UNL     1      -0.633   1.488  -4.304  0.00  0.00    +0.100 C 
ATOM      2  C   UNL     1      -0.439   0.398  -5.382  0.00  0.00    +0.121 C 
ATOM      3  N   UNL     1      -0.355   1.145  -6.659  0.00  0.00    -0.297 N 
ATOM      4  C   UNL     1       0.441   2.352  -6.328  0.00  0.00    +0.115 C 
ATOM      5  C   UNL     1      -0.054   2.768  -4.928  0.00  0.00    -0.004 C 
ATOM      6  C   UNL     1      -1.138   3.835  -5.048  0.00  0.00    -0.010 C 
ATOM      7  C   UNL     1      -0.525   5.117  -5.619  0.00  0.00    -0.082 C 
ATOM      8  N   UNL     1       0.551   5.582  -4.736  0.00  0.00    +0.379 N 
ATOM      9  C   UNL     1       1.633   4.590  -4.700  0.00  0.00    -0.082 C 
ATOM     10  C   UNL     1       1.111   3.285  -4.090  0.00  0.00    -0.010 C 
ATOM     11  C   UNL     1      -0.882   0.804  -7.851  0.00  0.00    +0.253 C 
ATOM     12  O   UNL     1      -0.724   1.527  -8.813  0.00  0.00    -0.272 OA
ATOM     13  H   UNL     1       0.913   6.458  -5.081  0.00  0.00    -0.086 HD
ATOM     14  H   UNL     1       0.187   5.715  -3.805  0.00  0.00    -0.086 HD
ENDROOT
BRANCH   1  16
ATOM     15  N   UNL     1      -0.283   1.605  -1.858  0.00  0.00    -0.310 N 
ATOM     16  C   UNL     1       0.122   1.127  -3.051  0.00  0.00    +0.218 C 
ATOM     17  O   UNL     1       1.096   0.406  -3.116  0.00  0.00    -0.275 OA
ATOM     18  H   UNL     1      -1.010   2.246  -1.814  0.00  0.00    +0.149 HD
BRANCH  15  19
ATOM     19  C   UNL     1       0.374   1.157  -0.627  0.00  0.00    +0.098 C 
BRANCH  19  21
ATOM     20  C   UNL     1       2.464   2.431  -1.130  0.00  0.00    +0.006 C 
ATOM     21  C   UNL     1       1.321   2.250  -0.129  0.00  0.00    +0.021 C 
ENDBRANCH  19  21
BRANCH  19  22
ATOM     22  C   UNL     1      -0.684   0.873   0.441  0.00  0.00    +0.181 C 
BRANCH  22  23
ATOM     23  O   UNL     1      -1.349   2.089   0.788  0.00  0.00    -0.381 OA
ATOM     24  C   UNL     1      -2.362   1.933   1.784  0.00  0.00    +0.194 C 
ENDBRANCH  22  23
ENDBRANCH  19  22
ENDBRANCH  15  19
ENDBRANCH   1  16
BRANCH  11  25
ATOM     25  C   UNL     1      -1.667  -0.474  -7.991  0.00  0.00    +0.324 C 
BRANCH  25  26
ATOM     26  O   UNL     1      -2.118  -0.612  -9.340  0.00  0.00    -0.479 OA
BRANCH  26  27
ATOM     27  C   UNL     1      -2.847  -1.720  -9.637  0.00  0.00    +0.164 A 
ATOM     28  C   UNL     1      -3.127  -2.651  -8.652  0.00  0.00    +0.049 A 
ATOM     29  C   UNL     1      -3.870  -3.785  -8.943  0.00  0.00    +0.004 A 
ATOM     30  C   UNL     1      -4.340  -4.002 -10.218  0.00  0.00    +0.012 A 
ATOM     31  C   UNL     1      -4.067  -3.071 -11.226  0.00  0.00    +0.024 A 
ATOM     32  C   UNL     1      -3.320  -1.919 -10.933  0.00  0.00    +0.181 A 
ATOM     33  O   UNL     1      -3.061  -1.019 -11.907  0.00  0.00    -0.418 OA
ATOM     34  C   UNL     1      -3.508  -1.195 -13.159  0.00  0.00    +0.338 A 
ATOM     35  O   UNL     1      -3.250  -0.357 -14.005  0.00  0.00    -0.245 OA
ATOM     36  C   UNL     1      -4.270  -2.327 -13.523  0.00  0.00    +0.096 A 
ATOM     37  C   UNL     1      -4.554  -3.274 -12.594  0.00  0.00    -0.033 A 
ATOM     38  C   UNL     1      -5.365  -4.493 -12.954  0.00  0.00    +0.045 C 
ENDBRANCH  26  27
ENDBRANCH  25  26
ENDBRANCH  11  25
TORSDOF 8
