REMARK  Name = ZINC43548897
REMARK  7 active torsions:
REMARK  status: ('A' for Active; 'I' for Inactive)
REMARK    1  A    between atoms: C_1  and  C_2
REMARK    2  A    between atoms: C_7  and  C_9
REMARK    3  A    between atoms: C_16  and  C_36
REMARK    4  A    between atoms: C_19  and  O_35
REMARK    5  A    between atoms: C_21  and  C_25
REMARK    6  A    between atoms: C_25  and  C_27
REMARK    7  A    between atoms: C_25  and  C_28
REMARK                            x       y       z     vdW  Elec       q    Type
REMARK                         _______ _______ _______ _____ _____    ______ ____
ROOT
ATOM      1  C   UNL     1       1.355   2.855   0.899  0.00  0.00    +0.014 C 
ATOM      2  C   UNL     1       0.766   1.443   0.878  0.00  0.00    +0.042 C 
ATOM      3  C   UNL     1      -0.688   1.492   1.335  0.00  0.00    +0.055 A 
ATOM      4  C   UNL     1      -1.176   0.520   2.155  0.00  0.00    +0.014 A 
ATOM      5  S   UNL     1      -2.865   1.012   2.386  0.00  0.00    -0.072 S 
ATOM      6  C   UNL     1      -2.788   2.483   1.369  0.00  0.00    +0.109 A 
ATOM      7  N   UNL     1      -1.528   2.452   0.969  0.00  0.00    -0.243 NA
ATOM      8  C   UNL     1      -0.450  -0.656   2.711  0.00  0.00    +0.051 C 
ATOM      9  C   UNL     1       0.876  -0.819   1.964  0.00  0.00    -0.022 C 
ATOM     10  C   UNL     1       1.567   0.542   1.823  0.00  0.00    +0.033 C 
ATOM     11  C   UNL     1       2.947   0.300   1.188  0.00  0.00    +0.123 C 
ATOM     12  C   UNL     1       2.747  -0.296  -0.207  0.00  0.00    +0.029 C 
ATOM     13  C   UNL     1       2.000  -1.626  -0.106  0.00  0.00    +0.007 C 
ATOM     14  C   UNL     1       0.645  -1.410   0.575  0.00  0.00    +0.008 C 
ATOM     15  C   UNL     1       1.793  -1.749   2.761  0.00  0.00    +0.012 C 
ENDROOT
BRANCH   6  16
ATOM     16  C   UNL     1      -3.848   3.467   1.060  0.00  0.00    +0.007 A 
ATOM     17  C   UNL     1      -3.574   4.554   0.228  0.00  0.00    +0.010 A 
ATOM     18  C   UNL     1      -4.566   5.469  -0.056  0.00  0.00    +0.001 A 
ATOM     19  C   UNL     1      -5.831   5.311   0.482  0.00  0.00    +0.000 A 
ATOM     20  C   UNL     1      -6.109   4.237   1.308  0.00  0.00    +0.001 A 
ATOM     21  C   UNL     1      -5.127   3.311   1.595  0.00  0.00    +0.010 A 
ENDBRANCH   6  16
BRANCH  12  22
ATOM     22  C   UNL     1       4.111  -0.531  -0.859  0.00  0.00    +0.078 C 
ATOM     23  C   UNL     1       3.923  -1.275  -2.183  0.00  0.00    +0.017 C 
BRANCH  22  24
ATOM     24  C   UNL     1       4.973  -1.356   0.062  0.00  0.00    +0.219 C 
ATOM     25  O   UNL     1       4.458  -2.090   0.879  0.00  0.00    -0.275 OA
ATOM     26  N   UNL     1       6.316  -1.278  -0.021  0.00  0.00    -0.301 N 
ATOM     27  C   UNL     1       7.068  -0.356  -0.884  0.00  0.00    +0.108 C 
ATOM     28  C   UNL     1       8.569  -0.644  -0.664  0.00  0.00    +0.020 C 
ATOM     29  C   UNL     1       8.567  -2.094  -0.113  0.00  0.00    +0.020 C 
ATOM     30  C   UNL     1       7.273  -2.098   0.743  0.00  0.00    +0.108 C 
ENDBRANCH  22  24
ENDBRANCH  12  22
BRANCH  11  31
ATOM     31  O   UNL     1       3.652   1.539   1.087  0.00  0.00    -0.391 OA
ATOM     32  H   UNL     1       4.509   1.469   0.645  0.00  0.00    +0.210 HD
ENDBRANCH  11  31
TORSDOF 4
