REMARK  Name = ZINC66317630
REMARK  9 active torsions:
REMARK  status: ('A' for Active; 'I' for Inactive)
REMARK    1  A    between atoms: C_4  and  C_7
REMARK    2  A    between atoms: C_10  and  C_12
REMARK    3  A    between atoms: N_14  and  C_15
REMARK    4  A    between atoms: C_15  and  C_16
REMARK    5  A    between atoms: C_16  and  C_17
REMARK    6  A    between atoms: C_17  and  C_18
REMARK    7  A    between atoms: C_19  and  C_30
REMARK    8  A    between atoms: C_20  and  N_29
REMARK    9  A    between atoms: N_21  and  C_23
REMARK                            x       y       z     vdW  Elec       q    Type
REMARK                         _______ _______ _______ _____ _____    ______ ____
ROOT
ATOM      1  C   UNL     1       8.583  -3.717  -4.917  0.00  0.00    +0.060 C 
ENDROOT
BRANCH   1   2
ATOM      2  C   UNL     1       8.644  -4.678  -6.076  0.00  0.00    +0.083 A 
ATOM      3  C   UNL     1       8.866  -6.072  -5.986  0.00  0.00    +0.114 A 
ATOM      4  C   UNL     1       8.845  -6.573  -7.285  0.00  0.00    +0.138 A 
ATOM      5  N   UNL     1       8.621  -5.525  -8.111  0.00  0.00    -0.217 N 
ATOM      6  N   UNL     1       8.496  -4.368  -7.334  0.00  0.00    -0.168 NA
BRANCH   5   7
ATOM      7  C   UNL     1       8.526  -5.588  -9.507  0.00  0.00    +0.067 A 
ATOM      8  C   UNL     1       9.306  -6.491 -10.218  0.00  0.00    +0.028 A 
ATOM      9  C   UNL     1       9.209  -6.551 -11.594  0.00  0.00    +0.002 A 
ATOM     10  C   UNL     1       8.336  -5.714 -12.265  0.00  0.00    +0.000 A 
ATOM     11  C   UNL     1       7.558  -4.814 -11.560  0.00  0.00    +0.002 A 
ATOM     12  C   UNL     1       7.646  -4.753 -10.183  0.00  0.00    +0.028 A 
ENDBRANCH   5   7
BRANCH   4  13
ATOM     13  N   UNL     1       9.021  -7.891  -7.660  0.00  0.00    -0.342 N 
ATOM     14  H   UNL     1       9.177  -8.570  -6.986  0.00  0.00    +0.144 HD
ATOM     15  H   UNL     1       8.988  -8.137  -8.598  0.00  0.00    +0.144 HD
ENDBRANCH   4  13
BRANCH   3  16
ATOM     16  C   UNL     1       9.073  -6.826  -4.786  0.00  0.00    +0.104 C 
ATOM     17  N   UNL     1       9.237  -7.424  -3.834  0.00  0.00    -0.191 NA
ENDBRANCH   3  16
ENDBRANCH   1   2
BRANCH   1  18
ATOM     18  C   UNL     1       7.142  -3.617  -4.413  0.00  0.00    +0.025 C 
BRANCH  18  19
ATOM     19  C   UNL     1       7.079  -2.641  -3.236  0.00  0.00    +0.104 C 
BRANCH  19  22
ATOM     20  C   UNL     1       5.403  -1.739  -1.716  0.00  0.00    +0.217 C 
ATOM     21  O   UNL     1       6.279  -1.092  -1.180  0.00  0.00    -0.275 OA
ATOM     22  N   UNL     1       5.699  -2.545  -2.754  0.00  0.00    -0.315 N 
ATOM     23  H   UNL     1       4.999  -3.062  -3.182  0.00  0.00    +0.149 HD
BRANCH  20  26
ATOM     24  C   UNL     1       3.711  -0.707  -0.038  0.00  0.00    +0.032 C 
ATOM     25  C   UNL     1       3.675  -2.224   0.162  0.00  0.00    +0.022 C 
ATOM     26  C   UNL     1       3.983  -1.640  -1.219  0.00  0.00    +0.083 C 
BRANCH  24  30
ATOM     27  C   UNL     1      -0.017   1.378   0.010  0.00  0.00    +0.000 A 
ATOM     28  C   UNL     1       1.171   2.086   0.002  0.00  0.00    +0.000 A 
ATOM     29  C   UNL     1       2.377   1.411  -0.013  0.00  0.00    +0.004 A 
ATOM     30  C   UNL     1       2.396   0.029  -0.020  0.00  0.00    -0.044 A 
ATOM     31  C   UNL     1       1.208  -0.679  -0.012  0.00  0.00    +0.004 A 
ATOM     32  C   UNL     1       0.002  -0.004   0.002  0.00  0.00    +0.000 A 
ENDBRANCH  24  30
ENDBRANCH  20  26
ENDBRANCH  19  22
ENDBRANCH  18  19
ENDBRANCH   1  18
TORSDOF 9
