REMARK  Name = ZINC18200600
REMARK  3 active torsions:
REMARK  status: ('A' for Active; 'I' for Inactive)
REMARK    1  A    between atoms: C_3  and  C_6
REMARK    2  A    between atoms: C_11  and  C_20
REMARK    3  A    between atoms: C_23  and  C_26
REMARK                            x       y       z     vdW  Elec       q    Type
REMARK                         _______ _______ _______ _____ _____    ______ ____
ROOT
ATOM      1  C   UNL     1      -4.624   6.261  -3.596  0.00  0.00    +0.039 C 
ATOM      2  C   UNL     1      -5.121   7.064  -2.393  0.00  0.00    +0.060 C 
ATOM      3  C   UNL     1      -5.009   6.226  -1.141  0.00  0.00    +0.020 C 
ATOM      4  C   UNL     1      -5.137   4.883  -1.191  0.00  0.00    +0.041 C 
ATOM      5  C   UNL     1      -5.036   4.019   0.047  0.00  0.00    +0.175 C 
ATOM      6  N   UNL     1      -5.117   4.849   1.243  0.00  0.00    -0.219 N 
ATOM      7  C   UNL     1      -4.988   6.198   1.225  0.00  0.00    +0.220 A 
ATOM      8  N   UNL     1      -5.101   6.633   2.450  0.00  0.00    -0.180 NA
ATOM      9  C   UNL     1      -5.308   5.597   3.276  0.00  0.00    +0.233 A 
ATOM     10  N   UNL     1      -5.326   4.486   2.572  0.00  0.00    -0.132 NA
ATOM     11  N   UNL     1      -5.477   5.684   4.658  0.00  0.00    -0.326 N 
ATOM     12  N   UNL     1      -4.780   6.888   0.042  0.00  0.00    -0.287 N 
ATOM     13  C   UNL     1      -5.371   4.226  -2.412  0.00  0.00    +0.164 C 
ATOM     14  O   UNL     1      -5.499   3.017  -2.421  0.00  0.00    -0.292 OA
ATOM     15  C   UNL     1      -5.466   4.985  -3.706  0.00  0.00    +0.088 C 
ATOM     16  H   UNL     1      -5.622   4.880   5.181  0.00  0.00    +0.145 HD
ATOM     17  H   UNL     1      -5.449   6.549   5.097  0.00  0.00    +0.145 HD
ATOM     18  H   UNL     1      -4.482   7.812   0.048  0.00  0.00    +0.155 HD
ENDROOT
BRANCH   5  19
ATOM     19  C   UNL     1      -3.720   3.284   0.037  0.00  0.00    -0.018 A 
ATOM     20  C   UNL     1      -3.705   1.900   0.030  0.00  0.00    +0.007 A 
ATOM     21  C   UNL     1      -2.505   1.220   0.021  0.00  0.00    +0.015 A 
ATOM     22  C   UNL     1      -1.304   1.932   0.019  0.00  0.00    +0.063 A 
ATOM     23  C   UNL     1      -1.326   3.328   0.032  0.00  0.00    +0.015 A 
ATOM     24  C   UNL     1      -2.534   3.995   0.036  0.00  0.00    +0.007 A 
BRANCH  22  25
ATOM     25  C   UNL     1      -0.014   1.210   0.009  0.00  0.00    +0.387 C 
ATOM     26  O   UNL     1       0.002  -0.004   0.002  0.00  0.00    -0.241 OA
ATOM     27  O   UNL     1       1.143   1.900   0.001  0.00  0.00    -0.241 OA
ENDBRANCH  22  25
ENDBRANCH   5  19
BRANCH   1  30
ATOM     28  C   UNL     1      -4.199   8.241  -6.822  0.00  0.00    +0.008 A 
ATOM     29  C   UNL     1      -3.824   7.492  -5.723  0.00  0.00    +0.011 A 
ATOM     30  C   UNL     1      -4.777   7.080  -4.852  0.00  0.00    -0.006 A 
ATOM     31  S   UNL     1      -6.258   7.766  -5.573  0.00  0.00    -0.101 S 
ATOM     32  C   UNL     1      -5.508   8.550  -6.991  0.00  0.00    +0.045 A 
ENDBRANCH   1  30
TORSDOF 3
