REMARK  Name = ZINC64364936
REMARK  4 active torsions:
REMARK  status: ('A' for Active; 'I' for Inactive)
REMARK    1  A    between atoms: C_1  and  C_2
REMARK    2  A    between atoms: C_7  and  N_8
REMARK    3  A    between atoms: C_9  and  C_11
REMARK    4  A    between atoms: C_11  and  C_12
REMARK                            x       y       z     vdW  Elec       q    Type
REMARK                         _______ _______ _______ _____ _____    ______ ____
ROOT
ATOM      1  N   UNL     1       0.026  -0.013   2.417  0.00  0.00    -0.284 N 
ATOM      2  C   UNL     1      -0.354  -0.639   3.549  0.00  0.00    +0.221 C 
ATOM      3  O   UNL     1      -0.612  -1.825   3.529  0.00  0.00    -0.275 OA
ATOM      4  H   UNL     1       0.301   0.916   2.446  0.00  0.00    +0.155 HD
ENDROOT
BRANCH   1  11
ATOM      5  C   UNL     1       2.415  -1.334   1.617  0.00  0.00    +0.046 C 
ATOM      6  C   UNL     1       1.168  -1.363   0.772  0.00  0.00    -0.027 A 
ATOM      7  C   UNL     1       1.161  -2.050  -0.427  0.00  0.00    +0.020 A 
ATOM      8  C   UNL     1       0.017  -2.078  -1.204  0.00  0.00    +0.020 A 
ATOM      9  C   UNL     1      -1.125  -1.417  -0.783  0.00  0.00    +0.037 A 
ATOM     10  C   UNL     1      -1.124  -0.729   0.415  0.00  0.00    +0.063 A 
ATOM     11  C   UNL     1       0.023  -0.705   1.200  0.00  0.00    +0.055 A 
ATOM     12 CL   UNL     1      -2.555   0.100   0.942  0.00  0.00    -0.082 Cl
ATOM     13 BR   UNL     1       0.012  -3.018  -2.844  0.00  0.00    -0.050 Br
ENDBRANCH   1  11
BRANCH   2  14
ATOM     14  C   UNL     1      -0.460   0.133   4.838  0.00  0.00    +0.129 C 
BRANCH  14  15
ATOM     15  C   UNL     1      -0.900  -0.792   5.944  0.00  0.00    -0.033 C 
ATOM     16  C   UNL     1      -0.106  -1.442   6.825  0.00  0.00    -0.001 A 
ATOM     17  C   UNL     1       1.349  -1.482   7.010  0.00  0.00    +0.010 A 
ATOM     18  C   UNL     1       1.864  -2.243   8.002  0.00  0.00    +0.001 A 
ATOM     19  C   UNL     1       1.044  -2.994   8.855  0.00  0.00    +0.002 A 
ATOM     20  C   UNL     1      -0.302  -3.009   8.748  0.00  0.00    +0.026 A 
ATOM     21  C   UNL     1      -0.950  -2.243   7.739  0.00  0.00    +0.043 A 
ATOM     22  N   UNL     1      -2.217  -2.095   7.436  0.00  0.00    -0.380 N 
ATOM     23  C   UNL     1      -2.320  -1.176   6.296  0.00  0.00    +0.145 C 
ATOM     24  H   UNL     1      -2.962  -2.518   7.891  0.00  0.00    +0.160 HD
ENDBRANCH  14  15
ENDBRANCH   2  14
TORSDOF 3
