REMARK  Name = ZINC14459518
REMARK  7 active torsions:
REMARK  status: ('A' for Active; 'I' for Inactive)
REMARK    1  A    between atoms: C_1  and  O_2
REMARK    2  A    between atoms: O_2  and  C_3
REMARK    3  A    between atoms: C_7  and  C_10
REMARK    4  A    between atoms: C_8  and  O_9
REMARK    5  A    between atoms: C_21  and  S_26
REMARK    6  A    between atoms: S_26  and  N_29
REMARK    7  A    between atoms: N_29  and  C_30
REMARK                            x       y       z     vdW  Elec       q    Type
REMARK                         _______ _______ _______ _____ _____    ______ ____
ROOT
ATOM      1  C   UNL     1       5.095  -5.840   0.443  0.00  0.00    +0.109 C 
ATOM      2  C   UNL     1       3.719  -5.349   0.778  0.00  0.00    +0.029 C 
ATOM      3  C   UNL     1       3.745  -4.009   1.543  0.00  0.00    +0.033 C 
ATOM      4  C   UNL     1       2.473  -4.038   2.365  0.00  0.00    -0.030 C 
ATOM      5  C   UNL     1       2.004  -5.255   2.457  0.00  0.00    -0.023 C 
ATOM      6  C   UNL     1       2.911  -6.221   1.736  0.00  0.00    +0.049 C 
ATOM      7  C   UNL     1       3.760  -6.915   2.762  0.00  0.00    -0.018 A 
ATOM      8  C   UNL     1       3.132  -7.483   3.862  0.00  0.00    +0.034 A 
ATOM      9  C   UNL     1       3.870  -8.121   4.837  0.00  0.00    +0.109 A 
ATOM     10  C   UNL     1       5.247  -8.199   4.727  0.00  0.00    +0.030 A 
ATOM     11  C   UNL     1       5.880  -7.642   3.635  0.00  0.00    +0.025 A 
ATOM     12  C   UNL     1       5.136  -7.002   2.647  0.00  0.00    +0.031 A 
ATOM     13  N   UNL     1       5.783  -6.492   1.538  0.00  0.00    -0.336 N 
ATOM     14  H   UNL     1       6.751  -6.552   1.509  0.00  0.00    +0.147 HD
ENDROOT
BRANCH   1  19
ATOM     15  C   UNL     1       6.533  -3.072  -1.702  0.00  0.00    +0.162 A 
ATOM     16  C   UNL     1       7.452  -2.506  -0.834  0.00  0.00    +0.049 A 
ATOM     17  C   UNL     1       7.604  -3.017   0.441  0.00  0.00    +0.004 A 
ATOM     18  C   UNL     1       6.842  -4.095   0.853  0.00  0.00    +0.009 A 
ATOM     19  C   UNL     1       5.924  -4.665  -0.009  0.00  0.00    +0.018 A 
ATOM     20  C   UNL     1       5.762  -4.153  -1.286  0.00  0.00    +0.163 A 
BRANCH  15  22
ATOM     21  C   UNL     1       7.207  -1.460  -3.315  0.00  0.00    +0.277 C 
ATOM     22  O   UNL     1       6.381  -2.570  -2.957  0.00  0.00    -0.491 OA
ENDBRANCH  15  22
BRANCH  20  23
ATOM     23  O   UNL     1       4.855  -4.710  -2.133  0.00  0.00    -0.503 OA
ATOM     24  H   UNL     1       5.211  -5.427  -2.675  0.00  0.00    +0.292 HD
ENDBRANCH  20  23
ENDBRANCH   1  19
BRANCH   9  25
ATOM     25  S   UNL     1       3.058  -8.838   6.227  0.00  0.00    +0.072 S 
ATOM     26  O   UNL     1       3.979  -8.785   7.308  0.00  0.00    -0.150 OA
ATOM     27  O   UNL     1       1.769  -8.244   6.295  0.00  0.00    -0.150 OA
BRANCH  25  28
ATOM     28  N   UNL     1       2.823 -10.441   5.884  0.00  0.00    -0.216 N 
ATOM     29  H   UNL     1       3.247 -11.121   6.430  0.00  0.00    +0.174 HD
BRANCH  28  30
ATOM     30  C   UNL     1       2.014 -10.813   4.808  0.00  0.00    +0.048 A 
ATOM     31  C   UNL     1       0.632 -10.713   4.909  0.00  0.00    +0.024 A 
ATOM     32  C   UNL     1      -0.165 -11.082   3.843  0.00  0.00    +0.002 A 
ATOM     33  C   UNL     1       0.411 -11.551   2.676  0.00  0.00    +0.000 A 
ATOM     34  C   UNL     1       1.787 -11.652   2.573  0.00  0.00    +0.002 A 
ATOM     35  C   UNL     1       2.590 -11.279   3.633  0.00  0.00    +0.024 A 
ENDBRANCH  28  30
ENDBRANCH  25  28
ENDBRANCH   9  25
TORSDOF 6
