REMARK  Name = ZINC03597242
REMARK  9 active torsions:
REMARK  status: ('A' for Active; 'I' for Inactive)
REMARK    1  A    between atoms: C_1  and  C_2
REMARK    2  A    between atoms: C_2  and  N_3
REMARK    3  A    between atoms: N_3  and  C_4
REMARK    4  A    between atoms: C_14  and  C_16
REMARK    5  A    between atoms: C_16  and  N_17
REMARK    6  A    between atoms: C_20  and  C_25
REMARK    7  A    between atoms: C_25  and  C_26
REMARK    8  A    between atoms: C_26  and  C_27
REMARK    9  A    between atoms: C_26  and  C_28
REMARK                            x       y       z     vdW  Elec       q    Type
REMARK                         _______ _______ _______ _____ _____    ______ ____
ROOT
ATOM      1  N   UNL     1       1.835  -3.780  -1.443  0.00  0.00    -0.270 N 
ATOM      2  C   UNL     1       1.574  -2.473  -1.237  0.00  0.00    +0.238 C 
ATOM      3  O   UNL     1       1.322  -1.750  -2.178  0.00  0.00    -0.274 OA
ENDROOT
BRANCH   1   4
ATOM      4  C   UNL     1       1.814  -4.300  -2.738  0.00  0.00    +0.044 A 
ATOM      5  C   UNL     1       2.960  -4.305  -3.504  0.00  0.00    +0.024 A 
ATOM      6  C   UNL     1       2.951  -4.825  -4.795  0.00  0.00    +0.002 A 
ATOM      7  C   UNL     1       1.812  -5.334  -5.340  0.00  0.00    +0.008 A 
ATOM      8  C   UNL     1       0.621  -5.344  -4.594  0.00  0.00    -0.016 A 
ATOM      9  C   UNL     1       0.619  -4.821  -3.277  0.00  0.00    +0.004 A 
ATOM     10  C   UNL     1      -0.572  -4.830  -2.534  0.00  0.00    +0.010 A 
ATOM     11  C   UNL     1      -1.707  -5.341  -3.086  0.00  0.00    +0.001 A 
ATOM     12  C   UNL     1      -1.706  -5.855  -4.381  0.00  0.00    +0.001 A 
ATOM     13  C   UNL     1      -0.570  -5.862  -5.131  0.00  0.00    +0.008 A 
ENDBRANCH   1   4
BRANCH   1  15
ATOM     14  C   UNL     1       0.842  -5.260   0.232  0.00  0.00    +0.025 C 
ATOM     15  C   UNL     1       2.139  -4.653  -0.307  0.00  0.00    +0.110 C 
ENDBRANCH   1  15
BRANCH   2  16
ATOM     16  C   UNL     1       1.596  -1.911   0.161  0.00  0.00    +0.214 C 
BRANCH  16  17
ATOM     17  N   UNL     1       1.284  -0.481   0.117  0.00  0.00    -0.216 N 
ATOM     18  C   UNL     1       2.206   0.492  -0.017  0.00  0.00    +0.244 C 
ATOM     19  O   UNL     1       3.406   0.354  -0.120  0.00  0.00    -0.273 OA
ATOM     20  C   UNL     1       1.432   1.795  -0.013  0.00  0.00    +0.161 C 
ATOM     21  N   UNL     1       0.031   1.365   0.137  0.00  0.00    -0.288 N 
ATOM     22  C   UNL     1       0.046   0.021   0.204  0.00  0.00    +0.310 C 
ATOM     23  O   UNL     1      -0.952  -0.660   0.331  0.00  0.00    -0.252 OA
ATOM     24  H   UNL     1      -0.774   2.114   0.172  0.00  0.00    +0.151 HD
BRANCH  20  25
ATOM     25  C   UNL     1       1.856   2.670   1.169  0.00  0.00    +0.034 C 
BRANCH  25  26
ATOM     26  C   UNL     1       1.021   3.952   1.180  0.00  0.00    -0.015 C 
ATOM     27  C   UNL     1       1.342   4.759   2.440  0.00  0.00    +0.007 C 
ATOM     28  C   UNL     1       1.352   4.787  -0.059  0.00  0.00    +0.007 C 
ENDBRANCH  25  26
ENDBRANCH  20  25
ENDBRANCH  16  17
ENDBRANCH   2  16
TORSDOF 6
