REMARK  Name = ZINC67144610
REMARK  6 active torsions:
REMARK  status: ('A' for Active; 'I' for Inactive)
REMARK    1  A    between atoms: C_6  and  N_7
REMARK    2  A    between atoms: C_8  and  C_10
REMARK    3  A    between atoms: C_10  and  C_11
REMARK    4  A    between atoms: C_11  and  C_12
REMARK    5  A    between atoms: C_12  and  C_13
REMARK    6  A    between atoms: C_13  and  C_14
REMARK                            x       y       z     vdW  Elec       q    Type
REMARK                         _______ _______ _______ _____ _____    ______ ____
ROOT
ATOM      1  C   UNL     1      -3.663  -0.833   0.248  0.00  0.00    +0.096 C 
ENDROOT
BRANCH   1   3
ATOM      2  N   UNL     1      -1.204  -0.718   0.010  0.00  0.00    -0.285 N 
ATOM      3  C   UNL     1      -2.375  -0.061   0.126  0.00  0.00    +0.217 C 
ATOM      4  O   UNL     1      -2.392   1.152   0.133  0.00  0.00    -0.275 OA
ATOM      5  H   UNL     1      -1.196  -1.685  -0.063  0.00  0.00    +0.155 HD
BRANCH   2  11
ATOM      6  C   UNL     1       0.057   1.250  -0.617  0.00  0.00    +0.025 A 
ATOM      7  C   UNL     1       1.222   1.962  -0.643  0.00  0.00    +0.029 A 
ATOM      8  C   UNL     1       2.373   1.440  -0.059  0.00  0.00    +0.066 A 
ATOM      9  C   UNL     1       2.328   0.176   0.559  0.00  0.00    +0.021 A 
ATOM     10  C   UNL     1       1.128  -0.544   0.580  0.00  0.00    +0.035 A 
ATOM     11  C   UNL     1       0.002  -0.003  -0.007  0.00  0.00    +0.034 A 
ATOM     12  C   UNL     1       3.672  -0.082   1.066  0.00  0.00    +0.142 A 
ATOM     13  N   UNL     1       4.415   0.945   0.763  0.00  0.00    -0.181 NA
ATOM     14  N   UNL     1       3.659   1.899   0.074  0.00  0.00    -0.277 N 
ATOM     15  H   UNL     1       3.991   2.748  -0.256  0.00  0.00    +0.189 HD
ENDBRANCH   2  11
ENDBRANCH   1   3
BRANCH   1  16
ATOM     16  C   UNL     1      -4.835   0.144   0.365  0.00  0.00    +0.009 C 
BRANCH  16  17
ATOM     17  C   UNL     1      -6.143  -0.639   0.489  0.00  0.00    +0.002 C 
BRANCH  17  18
ATOM     18  C   UNL     1      -7.314   0.338   0.607  0.00  0.00    +0.016 C 
BRANCH  18  19
ATOM     19  C   UNL     1      -8.622  -0.446   0.730  0.00  0.00    +0.069 C 
ATOM     20  C   UNL     1      -9.807   0.481   0.816  0.00  0.00    +0.108 C 
ATOM     21  C   UNL     1     -10.953  -0.246   1.585  0.00  0.00    +0.105 C 
ATOM     22  C   UNL     1     -10.368  -0.590   2.953  0.00  0.00    +0.093 C 
ATOM     23  S   UNL     1      -8.737  -1.302   2.370  0.00  0.00    -0.154 S 
ATOM     24  N   UNL     1     -11.997   0.742   1.437  0.00  0.00    -0.294 N 
ATOM     25  C   UNL     1     -11.775   1.328   0.222  0.00  0.00    +0.300 C 
ATOM     26  O   UNL     1     -12.590   2.027  -0.348  0.00  0.00    -0.253 OA
ATOM     27  N   UNL     1     -10.547   1.028  -0.282  0.00  0.00    -0.294 N 
ATOM     28  H   UNL     1     -12.706   0.947   2.067  0.00  0.00    +0.151 HD
ATOM     29  H   UNL     1     -10.240   1.162  -1.193  0.00  0.00    +0.151 HD
ENDBRANCH  18  19
ENDBRANCH  17  18
ENDBRANCH  16  17
ENDBRANCH   1  16
TORSDOF 6
