REMARK  Name = ZINC35201019
REMARK  11 active torsions:
REMARK  status: ('A' for Active; 'I' for Inactive)
REMARK    1  A    between atoms: C_1  and  C_2
REMARK    2  A    between atoms: C_6  and  C_38
REMARK    3  A    between atoms: C_7  and  N_8
REMARK    4  A    between atoms: N_11  and  C_12
REMARK    5  A    between atoms: C_12  and  C_14
REMARK    6  A    between atoms: C_12  and  C_15
REMARK    7  A    between atoms: C_18  and  S_29
REMARK    8  A    between atoms: N_19  and  C_20
REMARK    9  A    between atoms: C_23  and  N_26
REMARK   10  A    between atoms: S_29  and  C_30
REMARK   11  A    between atoms: C_30  and  C_31
REMARK                            x       y       z     vdW  Elec       q    Type
REMARK                         _______ _______ _______ _____ _____    ______ ____
ROOT
ATOM      1  C   UNL     1       0.022  -0.081   7.137  0.00  0.00    +0.159 A 
ATOM      2  N   UNL     1      -0.085   1.196   7.373  0.00  0.00    -0.131 NA
ATOM      3  N   UNL     1       0.569   1.507   8.435  0.00  0.00    -0.122 NA
ATOM      4  C   UNL     1       1.135   0.435   8.940  0.00  0.00    +0.196 A 
ATOM      5  N   UNL     1       0.799  -0.615   8.130  0.00  0.00    -0.273 N 
ENDROOT
BRANCH   5   6
ATOM      6  C   UNL     1       1.174  -1.957   8.284  0.00  0.00    +0.050 A 
ATOM      7  C   UNL     1       0.210  -2.925   8.533  0.00  0.00    +0.028 A 
ATOM      8  C   UNL     1       0.583  -4.246   8.683  0.00  0.00    +0.035 A 
ATOM      9  C   UNL     1       1.915  -4.606   8.586  0.00  0.00    +0.126 A 
ATOM     10  C   UNL     1       2.877  -3.644   8.337  0.00  0.00    +0.035 A 
ATOM     11  C   UNL     1       2.510  -2.322   8.180  0.00  0.00    +0.028 A 
BRANCH   9  12
ATOM     12  N   UNL     1       2.311  -6.022   8.748  0.00  0.00    +0.056 N 
ATOM     13  O   UNL     1       1.471  -6.864   8.965  0.00  0.00    -0.126 OA
ATOM     14  O   UNL     1       3.475  -6.338   8.663  0.00  0.00    -0.126 OA
ENDBRANCH   9  12
ENDBRANCH   5   6
BRANCH   1  15
ATOM     15  C   UNL     1      -0.599  -0.832   5.987  0.00  0.00    +0.140 C 
ATOM     16  C   UNL     1      -2.099  -0.999   6.238  0.00  0.00    +0.036 C 
BRANCH  15  20
ATOM     17  N   UNL     1      -0.198  -0.036   2.420  0.00  0.00    -0.269 N 
ATOM     18  C   UNL     1      -0.388  -0.726   3.562  0.00  0.00    +0.304 C 
ATOM     19  O   UNL     1      -0.554  -1.930   3.525  0.00  0.00    -0.252 OA
ATOM     20  N   UNL     1      -0.393  -0.082   4.746  0.00  0.00    -0.290 N 
ATOM     21  H   UNL     1      -0.118   0.930   2.445  0.00  0.00    +0.156 HD
ATOM     22  H   UNL     1      -0.260   0.879   4.776  0.00  0.00    +0.151 HD
BRANCH  17  29
ATOM     23  C   UNL     1       1.703  -2.139   2.174  0.00  0.00    +0.045 C 
ATOM     24  C   UNL     1       0.797  -1.747   1.035  0.00  0.00    -0.029 A 
ATOM     25  C   UNL     1       0.871  -2.418  -0.170  0.00  0.00    +0.005 A 
ATOM     26  C   UNL     1       0.040  -2.058  -1.215  0.00  0.00    +0.001 A 
ATOM     27  C   UNL     1      -0.867  -1.026  -1.058  0.00  0.00    +0.005 A 
ATOM     28  C   UNL     1      -0.945  -0.351   0.144  0.00  0.00    -0.029 A 
ATOM     29  C   UNL     1      -0.117  -0.714   1.198  0.00  0.00    +0.041 A 
ATOM     30  C   UNL     1      -1.933   0.774   0.315  0.00  0.00    +0.045 C 
ENDBRANCH  17  29
ENDBRANCH  15  20
ENDBRANCH   1  15
BRANCH   4  31
ATOM     31  S   UNL     1       2.132   0.363  10.391  0.00  0.00    -0.081 S 
BRANCH  31  32
ATOM     32  C   UNL     1       2.172   2.077  10.982  0.00  0.00    +0.112 C 
BRANCH  32  33
ATOM     33  C   UNL     1       3.005   2.156  12.236  0.00  0.00    -0.037 A 
ATOM     34  C   UNL     1       2.410   1.982  13.472  0.00  0.00    +0.007 A 
ATOM     35  C   UNL     1       3.172   2.055  14.623  0.00  0.00    +0.038 A 
ATOM     36  C   UNL     1       4.532   2.301  14.537  0.00  0.00    +0.123 A 
ATOM     37  C   UNL     1       5.126   2.476  13.299  0.00  0.00    +0.038 A 
ATOM     38  C   UNL     1       4.363   2.398  12.150  0.00  0.00    +0.007 A 
ATOM     39  F   UNL     1       5.277   2.373  15.662  0.00  0.00    -0.205 F 
ENDBRANCH  32  33
ENDBRANCH  31  32
ENDBRANCH   4  31
TORSDOF 8
