REMARK  Name = ZINC60350586
REMARK  14 active torsions:
REMARK  status: ('A' for Active; 'I' for Inactive)
REMARK    1  A    between atoms: C_1  and  C_2
REMARK    2  A    between atoms: C_2  and  N_3
REMARK    3  A    between atoms: N_3  and  C_4
REMARK    4  A    between atoms: N_3  and  S_6
REMARK    5  A    between atoms: C_4  and  C_5
REMARK    6  A    between atoms: S_6  and  C_9
REMARK    7  A    between atoms: C_19  and  C_21
REMARK    8  A    between atoms: C_24  and  C_27
REMARK    9  A    between atoms: C_27  and  N_28
REMARK   10  A    between atoms: N_28  and  C_29
REMARK   11  A    between atoms: N_28  and  C_31
REMARK   12  A    between atoms: C_29  and  C_30
REMARK   13  A    between atoms: C_31  and  C_32
REMARK   14  A    between atoms: C_31  and  C_33
REMARK                            x       y       z     vdW  Elec       q    Type
REMARK                         _______ _______ _______ _____ _____    ______ ____
ROOT
ATOM      1  C   UNL     1       3.058   0.842   1.484  0.00  0.00    +0.106 A 
ATOM      2  C   UNL     1       2.912   1.992   0.730  0.00  0.00    +0.030 A 
ATOM      3  C   UNL     1       3.724   3.081   0.972  0.00  0.00    +0.026 A 
ATOM      4  C   UNL     1       4.686   3.023   1.974  0.00  0.00    +0.040 A 
ATOM      5  C   UNL     1       4.830   1.872   2.732  0.00  0.00    -0.024 A 
ATOM      6  C   UNL     1       4.009   0.784   2.484  0.00  0.00    +0.034 A 
ATOM      7  C   UNL     1       5.854   1.776   3.832  0.00  0.00    +0.038 C 
ATOM      8  C   UNL     1       6.953   2.820   3.632  0.00  0.00    +0.024 C 
ATOM      9  C   UNL     1       6.302   4.194   3.433  0.00  0.00    +0.114 C 
ATOM     10  N   UNL     1       5.503   4.138   2.201  0.00  0.00    -0.267 N 
ATOM     11  C   UNL     1       5.556   5.143   1.304  0.00  0.00    +0.251 C 
ATOM     12  O   UNL     1       4.978   5.038   0.240  0.00  0.00    -0.270 OA
ENDROOT
BRANCH  11  13
ATOM     13  C   UNL     1       6.316   6.372   1.615  0.00  0.00    +0.037 A 
ATOM     14  C   UNL     1       6.487   6.775   2.940  0.00  0.00    +0.013 A 
ATOM     15  C   UNL     1       7.198   7.922   3.223  0.00  0.00    +0.002 A 
ATOM     16  C   UNL     1       7.741   8.674   2.196  0.00  0.00    -0.064 A 
ATOM     17  C   UNL     1       7.576   8.280   0.880  0.00  0.00    +0.002 A 
ATOM     18  C   UNL     1       6.872   7.132   0.584  0.00  0.00    +0.013 A 
BRANCH  16  19
ATOM     19  C   UNL     1       8.516   9.927   2.513  0.00  0.00    -0.043 C 
BRANCH  19  20
ATOM     20  N   UNL     1       9.943   9.601   2.641  0.00  0.00    +0.384 N 
ATOM     21  H   UNL     1      10.467  10.447   2.812  0.00  0.00    -0.081 HD
BRANCH  20  22
ATOM     22  C   UNL     1      10.134   8.671   3.762  0.00  0.00    -0.074 C 
ATOM     23  C   UNL     1      11.620   8.332   3.896  0.00  0.00    -0.014 C 
ATOM     24  C   UNL     1       9.641   9.324   5.056  0.00  0.00    -0.014 C 
ENDBRANCH  20  22
BRANCH  20  25
ATOM     25  C   UNL     1      10.416   8.975   1.400  0.00  0.00    -0.081 C 
ATOM     26  C   UNL     1      10.317   9.981   0.251  0.00  0.00    -0.017 C 
ENDBRANCH  20  25
ENDBRANCH  19  20
ENDBRANCH  16  19
ENDBRANCH  11  13
BRANCH   1  27
ATOM     27  S   UNL     1       2.023  -0.550   1.174  0.00  0.00    +0.061 S 
ATOM     28  O   UNL     1       2.721  -1.691   1.655  0.00  0.00    -0.153 OA
ATOM     29  O   UNL     1       1.585  -0.438  -0.173  0.00  0.00    -0.153 OA
BRANCH  27  30
ATOM     30  N   UNL     1       0.678  -0.383   2.125  0.00  0.00    -0.177 NA
BRANCH  30  32
ATOM     31  C   UNL     1      -0.442   1.790   2.066  0.00  0.00    +0.022 C 
ATOM     32  C   UNL     1      -0.496   0.330   1.615  0.00  0.00    +0.106 C 
ENDBRANCH  30  32
BRANCH  30  33
ATOM     33  C   UNL     1       0.662  -0.947   3.477  0.00  0.00    +0.106 C 
ATOM     34  C   UNL     1       0.018  -2.334   3.443  0.00  0.00    +0.022 C 
ENDBRANCH  30  33
ENDBRANCH  27  30
ENDBRANCH   1  27
TORSDOF 9
