REMARK  Name = ZINC51067452
REMARK  7 active torsions:
REMARK  status: ('A' for Active; 'I' for Inactive)
REMARK    1  A    between atoms: C_1  and  N_2
REMARK    2  A    between atoms: C_3  and  N_27
REMARK    3  A    between atoms: C_4  and  C_11
REMARK    4  A    between atoms: N_7  and  C_10
REMARK    5  A    between atoms: C_13  and  C_14
REMARK    6  A    between atoms: C_13  and  C_16
REMARK    7  A    between atoms: C_16  and  C_18
REMARK                            x       y       z     vdW  Elec       q    Type
REMARK                         _______ _______ _______ _____ _____    ______ ____
ROOT
ATOM      1  C   UNL     1      -2.346  -2.873   0.075  0.00  0.00    +0.216 C 
ATOM      2  O   UNL     1      -3.537  -2.260  -0.093  0.00  0.00    -0.285 OA
ATOM      3  C   UNL     1      -2.284  -4.267   0.175  0.00  0.00    +0.146 C 
ENDROOT
BRANCH   1   7
ATOM      4  C   UNL     1       2.039  -1.601  -1.702  0.00  0.00    +0.155 C 
ATOM      5  N   UNL     1       0.979  -1.472  -0.700  0.00  0.00    -0.284 N 
ATOM      6  C   UNL     1      -0.149  -2.236  -0.815  0.00  0.00    +0.116 A 
ATOM      7  C   UNL     1      -1.160  -2.105   0.151  0.00  0.00    +0.125 A 
ATOM      8  C   UNL     1      -0.947  -1.146   1.243  0.00  0.00    +0.269 A 
ATOM      9  O   UNL     1      -1.789  -0.992   2.108  0.00  0.00    -0.267 OA
ATOM     10  N   UNL     1       0.202  -0.439   1.267  0.00  0.00    -0.263 N 
ATOM     11  C   UNL     1       1.136  -0.610   0.317  0.00  0.00    +0.333 A 
ATOM     12  O   UNL     1       2.159   0.043   0.378  0.00  0.00    -0.246 OA
ATOM     13  C   UNL     1       0.436   0.523   2.346  0.00  0.00    +0.157 C 
BRANCH   6  14
ATOM     14  N   UNL     1      -0.290  -3.108  -1.851  0.00  0.00    -0.344 N 
ATOM     15  H   UNL     1       0.380  -3.142  -2.551  0.00  0.00    +0.144 HD
ATOM     16  H   UNL     1      -1.060  -3.697  -1.887  0.00  0.00    +0.144 HD
ENDBRANCH   6  14
ENDBRANCH   1   7
BRANCH   3  17
ATOM     17  C   UNL     1      -1.042  -4.909   0.484  0.00  0.00    +0.107 C 
ATOM     18  N   UNL     1      -0.056  -5.418   0.729  0.00  0.00    -0.191 NA
ENDBRANCH   3  17
BRANCH   3  19
ATOM     19  C   UNL     1      -3.489  -5.069  -0.036  0.00  0.00    +0.208 C 
ATOM     20  O   UNL     1      -4.563  -4.521  -0.210  0.00  0.00    -0.286 OA
BRANCH  19  21
ATOM     21  C   UNL     1      -3.403  -6.541  -0.038  0.00  0.00    +0.034 A 
ATOM     22  C   UNL     1      -3.459  -7.257  -1.211  0.00  0.00    +0.057 A 
ATOM     23  S   UNL     1      -3.325  -8.858  -0.723  0.00  0.00    -0.101 S 
ATOM     24  C   UNL     1      -3.193  -8.627   1.026  0.00  0.00    -0.006 A 
ATOM     25  C   UNL     1      -3.251  -7.287   1.196  0.00  0.00    -0.026 A 
ATOM     26  C   UNL     1      -3.167  -6.662   2.581  0.00  0.00    +0.036 C 
ATOM     27  C   UNL     1      -3.466  -7.740   3.624  0.00  0.00    +0.005 C 
ATOM     28  C   UNL     1      -2.575  -8.962   3.382  0.00  0.00    +0.005 C 
ATOM     29  C   UNL     1      -3.042  -9.664   2.095  0.00  0.00    +0.043 C 
ENDBRANCH  19  21
ENDBRANCH   3  19
TORSDOF 5
