REMARK  Name = ZINC56611910
REMARK  10 active torsions:
REMARK  status: ('A' for Active; 'I' for Inactive)
REMARK    1  A    between atoms: C_1  and  C_2
REMARK    2  A    between atoms: C_5  and  C_29
REMARK    3  A    between atoms: N_8  and  C_10
REMARK    4  A    between atoms: C_10  and  C_11
REMARK    5  A    between atoms: C_11  and  C_13
REMARK    6  A    between atoms: C_11  and  N_14
REMARK    7  A    between atoms: N_17  and  C_18
REMARK    8  A    between atoms: C_23  and  C_24
REMARK    9  A    between atoms: C_24  and  C_25
REMARK   10  A    between atoms: N_27  and  C_28
REMARK                            x       y       z     vdW  Elec       q    Type
REMARK                         _______ _______ _______ _____ _____    ______ ____
ROOT
ATOM      1  N   UNL     1       3.499  -2.485   0.942  0.00  0.00    -0.298 N 
ATOM      2  C   UNL     1       4.537  -1.849   0.363  0.00  0.00    +0.304 C 
ATOM      3  O   UNL     1       5.042  -0.887   0.908  0.00  0.00    -0.253 OA
ATOM      4  N   UNL     1       5.016  -2.281  -0.821  0.00  0.00    -0.269 N 
ATOM      5  H   UNL     1       3.097  -3.253   0.507  0.00  0.00    +0.150 HD
ATOM      6  H   UNL     1       4.669  -3.096  -1.216  0.00  0.00    +0.156 HD
ENDROOT
BRANCH   4   7
ATOM      7  C   UNL     1       6.014  -1.554  -1.479  0.00  0.00    +0.038 A 
ATOM      8  C   UNL     1       6.158  -0.194  -1.237  0.00  0.00    +0.023 A 
ATOM      9  C   UNL     1       7.144   0.521  -1.888  0.00  0.00    +0.002 A 
ATOM     10  C   UNL     1       7.987  -0.115  -2.781  0.00  0.00    +0.000 A 
ATOM     11  C   UNL     1       7.845  -1.469  -3.024  0.00  0.00    +0.006 A 
ATOM     12  C   UNL     1       6.865  -2.191  -2.372  0.00  0.00    -0.017 A 
BRANCH  12  13
ATOM     13  C   UNL     1       6.716  -3.667  -2.633  0.00  0.00    +0.132 C 
BRANCH  13  14
ATOM     14  C   UNL     1       5.671  -3.886  -3.698  0.00  0.00    +0.217 C 
ATOM     15  O   UNL     1       5.104  -2.936  -4.195  0.00  0.00    -0.275 OA
ATOM     16  N   UNL     1       5.368  -5.137  -4.097  0.00  0.00    -0.318 N 
ATOM     17  C   UNL     1       4.353  -5.349  -5.132  0.00  0.00    +0.128 C 
ATOM     18  H   UNL     1       5.821  -5.896  -3.700  0.00  0.00    +0.148 HD
ENDBRANCH  13  14
ENDBRANCH  12  13
ENDBRANCH   4   7
BRANCH   1  19
ATOM     19  C   UNL     1       2.979  -2.016   2.229  0.00  0.00    +0.055 C 
ATOM     20  C   UNL     1       3.800  -2.630   3.365  0.00  0.00    +0.026 C 
BRANCH  19  21
ATOM     21  C   UNL     1       1.515  -2.438   2.372  0.00  0.00    -0.057 C 
BRANCH  21  27
ATOM     22  C   UNL     1       0.008   1.565  -0.010  0.00  0.00    +0.005 C 
ATOM     23  C   UNL     1       0.016   0.035  -0.021  0.00  0.00    -0.031 C 
ATOM     24  C   UNL     1      -1.424  -0.485  -0.016  0.00  0.00    +0.003 C 
ATOM     25  C   UNL     1      -1.405  -2.014   0.052  0.00  0.00    -0.031 C 
ATOM     26  C   UNL     1      -0.626  -2.454   1.294  0.00  0.00    -0.076 C 
ATOM     27  N   UNL     1       0.750  -1.948   1.217  0.00  0.00    +0.381 N 
ATOM     28  C   UNL     1       0.744  -0.481   1.223  0.00  0.00    -0.076 C 
ATOM     29  C   UNL     1      -2.839  -2.541   0.135  0.00  0.00    +0.005 C 
ATOM     30  H   UNL     1       1.181  -2.278   0.366  0.00  0.00    -0.082 HD
ENDBRANCH  21  27
ENDBRANCH  19  21
ENDBRANCH   1  19
TORSDOF 6
