REMARK  Name = ZINC56523687
REMARK  12 active torsions:
REMARK  status: ('A' for Active; 'I' for Inactive)
REMARK    1  A    between atoms: C_1  and  C_2
REMARK    2  A    between atoms: C_5  and  S_8
REMARK    3  A    between atoms: S_8  and  C_9
REMARK    4  A    between atoms: C_9  and  C_10
REMARK    5  A    between atoms: C_10  and  N_11
REMARK    6  A    between atoms: C_12  and  C_14
REMARK    7  A    between atoms: C_14  and  N_15
REMARK    8  A    between atoms: C_18  and  C_21
REMARK    9  A    between atoms: C_21  and  C_22
REMARK   10  A    between atoms: C_22  and  N_23
REMARK   11  A    between atoms: N_23  and  C_24
REMARK   12  A    between atoms: N_23  and  C_25
REMARK                            x       y       z     vdW  Elec       q    Type
REMARK                         _______ _______ _______ _____ _____    ______ ____
ROOT
ATOM      1  N   UNL     1       0.109  -6.867   3.292  0.00  0.00    -0.316 N 
ATOM      2  C   UNL     1       0.128  -8.164   3.656  0.00  0.00    +0.196 C 
ATOM      3  O   UNL     1       0.135  -9.032   2.809  0.00  0.00    -0.278 OA
ATOM      4  H   UNL     1       0.103  -6.173   3.969  0.00  0.00    +0.149 HD
ENDROOT
BRANCH   1   5
ATOM      5  C   UNL     1       0.097  -6.505   1.872  0.00  0.00    +0.115 C 
BRANCH   5   6
ATOM      6  C   UNL     1       0.077  -4.981   1.735  0.00  0.00    +0.093 C 
BRANCH   6   7
ATOM      7  S   UNL     1       0.062  -4.533  -0.023  0.00  0.00    -0.124 S 
BRANCH   7  12
ATOM      8  C   UNL     1      -0.018   1.503   0.010  0.00  0.00    +0.044 C 
ATOM      9  C   UNL     1       0.002  -0.004   0.002  0.00  0.00    -0.050 A 
ATOM     10  C   UNL     1       0.006  -0.687  -1.200  0.00  0.00    +0.004 A 
ATOM     11  C   UNL     1       0.024  -2.068  -1.212  0.00  0.00    +0.015 A 
ATOM     12  C   UNL     1       0.039  -2.771  -0.013  0.00  0.00    +0.008 A 
ATOM     13  C   UNL     1       0.036  -2.081   1.193  0.00  0.00    +0.015 A 
ATOM     14  C   UNL     1       0.023  -0.700   1.197  0.00  0.00    +0.004 A 
ENDBRANCH   7  12
ENDBRANCH   6   7
ENDBRANCH   5   6
ENDBRANCH   1   5
BRANCH   2  15
ATOM     15  C   UNL     1       0.140  -8.537   5.116  0.00  0.00    +0.019 C 
BRANCH  15  16
ATOM     16  N   UNL     1       0.159 -10.000   5.248  0.00  0.00    +0.385 N 
ATOM     17  C   UNL     1       1.414 -10.523   4.695  0.00  0.00    -0.078 C 
ATOM     18  C   UNL     1       1.405 -12.052   4.756  0.00  0.00    -0.015 C 
ATOM     19  C   UNL     1       1.263 -12.498   6.214  0.00  0.00    -0.016 C 
ATOM     20  C   UNL     1      -0.011 -11.886   6.803  0.00  0.00    -0.015 C 
ATOM     21  C   UNL     1       0.051 -10.363   6.666  0.00  0.00    -0.078 C 
ATOM     22  H   UNL     1      -0.619 -10.393   4.741  0.00  0.00    -0.081 HD
BRANCH  19  23
ATOM     23  C   UNL     1       1.173 -14.024   6.276  0.00  0.00    -0.015 C 
BRANCH  23  24
ATOM     24  C   UNL     1       1.157 -14.476   7.737  0.00  0.00    -0.079 C 
BRANCH  24  25
ATOM     25  N   UNL     1       1.071 -15.941   7.796  0.00  0.00    +0.376 N 
ATOM     26  C   UNL     1       2.290 -16.526   7.222  0.00  0.00    -0.097 C 
ATOM     27  C   UNL     1       0.935 -16.367   9.196  0.00  0.00    -0.097 C 
ATOM     28  H   UNL     1       0.268 -16.252   7.270  0.00  0.00    -0.083 HD
ENDBRANCH  24  25
ENDBRANCH  23  24
ENDBRANCH  19  23
ENDBRANCH  15  16
ENDBRANCH   2  15
TORSDOF 9
