REMARK  Name = ZINC35457474
REMARK  5 active torsions:
REMARK  status: ('A' for Active; 'I' for Inactive)
REMARK    1  A    between atoms: C_1  and  C_2
REMARK    2  A    between atoms: C_5  and  O_29
REMARK    3  A    between atoms: C_9  and  O_28
REMARK    4  A    between atoms: C_18  and  O_24
REMARK    5  A    between atoms: C_20  and  O_23
REMARK                            x       y       z     vdW  Elec       q    Type
REMARK                         _______ _______ _______ _____ _____    ______ ____
ROOT
ATOM      1  C   UNL     1      -0.018   1.516   0.010  0.00  0.00    +0.052 C 
ATOM      2  C   UNL     1       0.002  -0.004   0.002  0.00  0.00    +0.176 C 
ATOM      3  C   UNL     1       0.660  -0.623  -1.212  0.00  0.00    +0.080 C 
ATOM      4  C   UNL     1       1.472   0.298  -2.102  0.00  0.00    +0.141 C 
ATOM      5  C   UNL     1       2.948   0.071  -1.856  0.00  0.00    +0.002 C 
ATOM      6  C   UNL     1       3.764   1.093  -1.824  0.00  0.00    +0.002 C 
ATOM      7  C   UNL     1       5.241   0.896  -1.600  0.00  0.00    +0.138 C 
ATOM      8  C   UNL     1       5.591   1.198  -0.144  0.00  0.00    +0.043 C 
ATOM      9  C   UNL     1       5.367  -0.042   0.717  0.00  0.00    +0.077 C 
ATOM     10  C   UNL     1       5.197   0.362   2.160  0.00  0.00    +0.138 C 
ATOM     11  O   UNL     1       5.903  -0.142   3.004  0.00  0.00    -0.297 OA
ATOM     12  C   UNL     1       4.170   1.382   2.564  0.00  0.00    +0.112 C 
ATOM     13  C   UNL     1       3.190   0.767   3.529  0.00  0.00    -0.001 A 
ATOM     14  C   UNL     1       2.038   0.119   3.072  0.00  0.00    +0.105 A 
ATOM     15  C   UNL     1       1.140  -0.430   4.004  0.00  0.00    +0.135 A 
ATOM     16  C   UNL     1       1.407  -0.343   5.360  0.00  0.00    +0.093 A 
ATOM     17  C   UNL     1       2.558   0.290   5.801  0.00  0.00    +0.139 A 
ATOM     18  C   UNL     1       3.446   0.844   4.882  0.00  0.00    +0.087 A 
ATOM     19 CL   UNL     1       4.886   1.635   5.443  0.00  0.00    -0.079 Cl
ATOM     20  C   UNL     1       1.763  -0.013   1.630  0.00  0.00    +0.343 C 
ATOM     21  O   UNL     1       2.603   0.316   0.817  0.00  0.00    -0.245 OA
ATOM     22  O   UNL     1       0.588  -0.504   1.203  0.00  0.00    -0.458 OA
ENDROOT
BRANCH  17  23
ATOM     23  O   UNL     1       2.820   0.371   7.130  0.00  0.00    -0.505 OA
ATOM     24  H   UNL     1       3.333  -0.372   7.476  0.00  0.00    +0.292 HD
ENDBRANCH  17  23
BRANCH  15  25
ATOM     25  O   UNL     1       0.009  -1.051   3.585  0.00  0.00    -0.506 OA
ATOM     26  H   UNL     1       0.116  -2.000   3.430  0.00  0.00    +0.292 HD
ENDBRANCH  15  25
BRANCH   7  27
ATOM     27  O   UNL     1       5.608  -0.447  -1.921  0.00  0.00    -0.388 OA
ATOM     28  H   UNL     1       5.427  -0.695  -2.838  0.00  0.00    +0.210 HD
ENDBRANCH   7  27
BRANCH   4  29
ATOM     29  O   UNL     1       1.206  -0.046  -3.477  0.00  0.00    -0.388 OA
ATOM     30  H   UNL     1       1.686   0.496  -4.118  0.00  0.00    +0.210 HD
ENDBRANCH   4  29
TORSDOF 4
