REMARK  Name = ZINC12413337
REMARK  8 active torsions:
REMARK  status: ('A' for Active; 'I' for Inactive)
REMARK    1  A    between atoms: C_1  and  C_2
REMARK    2  A    between atoms: C_2  and  C_3
REMARK    3  A    between atoms: C_6  and  N_9
REMARK    4  A    between atoms: C_15  and  C_17
REMARK    5  A    between atoms: C_15  and  C_18
REMARK    6  A    between atoms: N_26  and  C_29
REMARK    7  A    between atoms: C_30  and  C_33
REMARK    8  A    between atoms: C_31  and  N_32
REMARK                            x       y       z     vdW  Elec       q    Type
REMARK                         _______ _______ _______ _____ _____    ______ ____
ROOT
ATOM      1  N   UNL     1      -2.616   2.589   0.072  0.00  0.00    -0.260 N 
ATOM      2  C   UNL     1      -1.883   2.940   1.174  0.00  0.00    +0.026 C 
ATOM      3  C   UNL     1      -0.620   2.487   1.333  0.00  0.00    +0.037 C 
ATOM      4  C   UNL     1       0.148   2.858   2.450  0.00  0.00    +0.163 C 
ATOM      5  O   UNL     1       1.278   2.426   2.567  0.00  0.00    -0.292 OA
ATOM      6  C   UNL     1      -0.402   3.780   3.504  0.00  0.00    +0.086 C 
ATOM      7  C   UNL     1      -1.440   4.707   2.862  0.00  0.00    -0.023 C 
ATOM      8  C   UNL     1      -2.517   3.846   2.200  0.00  0.00    +0.058 C 
ATOM      9  C   UNL     1      -0.763   5.585   1.808  0.00  0.00    +0.011 C 
ATOM     10  C   UNL     1      -2.076   5.593   3.936  0.00  0.00    +0.011 C 
ATOM     11  C   UNL     1       0.002   1.569   0.313  0.00  0.00    +0.141 C 
ATOM     12  C   UNL     1       0.066   0.168   0.841  0.00  0.00    -0.001 A 
ATOM     13  C   UNL     1      -0.928  -0.710   1.217  0.00  0.00    +0.007 A 
ATOM     14  C   UNL     1      -0.525  -1.960   1.673  0.00  0.00    +0.000 A 
ATOM     15  C   UNL     1       0.810  -2.302   1.746  0.00  0.00    +0.002 A 
ATOM     16  C   UNL     1       1.814  -1.424   1.369  0.00  0.00    +0.024 A 
ATOM     17  C   UNL     1       1.423  -0.166   0.909  0.00  0.00    +0.041 A 
ATOM     18  N   UNL     1       2.201   0.892   0.473  0.00  0.00    -0.273 N 
ATOM     19  C   UNL     1       1.453   1.952   0.104  0.00  0.00    +0.240 C 
ATOM     20  O   UNL     1       1.865   3.012  -0.317  0.00  0.00    -0.274 OA
ATOM     21  C   UNL     1       3.665   0.864   0.419  0.00  0.00    +0.138 C 
ATOM     22  C   UNL     1      -0.734   1.616  -0.992  0.00  0.00    +0.089 C 
ATOM     23  C   UNL     1      -1.997   2.113  -1.062  0.00  0.00    +0.108 C 
ENDROOT
BRANCH   1  27
ATOM     24  C   UNL     1      -6.765   2.961   0.153  0.00  0.00    -0.048 A 
ATOM     25  C   UNL     1      -6.167   1.807   0.624  0.00  0.00    +0.005 A 
ATOM     26  C   UNL     1      -4.792   1.680   0.598  0.00  0.00    +0.024 A 
ATOM     27  C   UNL     1      -4.010   2.714   0.099  0.00  0.00    +0.040 A 
ATOM     28  C   UNL     1      -4.614   3.874  -0.367  0.00  0.00    +0.024 A 
ATOM     29  C   UNL     1      -5.990   3.992  -0.344  0.00  0.00    +0.005 A 
BRANCH  24  31
ATOM     30  C   UNL     1      -8.696   3.719   1.512  0.00  0.00    +0.009 C 
ATOM     31  C   UNL     1      -8.266   3.096   0.183  0.00  0.00    +0.032 C 
ENDBRANCH  24  31
ENDBRANCH   1  27
BRANCH  23  32
ATOM     32  N   UNL     1      -2.658   2.141  -2.267  0.00  0.00    -0.345 N 
ATOM     33  H   UNL     1      -3.522   2.575  -2.336  0.00  0.00    +0.144 HD
ATOM     34  H   UNL     1      -2.258   1.728  -3.049  0.00  0.00    +0.144 HD
ENDBRANCH  23  32
BRANCH  22  35
ATOM     35  C   UNL     1      -0.099   1.131  -2.179  0.00  0.00    +0.100 C 
ATOM     36  N   UNL     1       0.406   0.746  -3.122  0.00  0.00    -0.191 NA
ENDBRANCH  22  35
TORSDOF 4
