REMARK  Name = ZINC35149003
REMARK  7 active torsions:
REMARK  status: ('A' for Active; 'I' for Inactive)
REMARK    1  A    between atoms: C_1  and  C_2
REMARK    2  A    between atoms: C_3  and  S_9
REMARK    3  A    between atoms: C_4  and  C_8
REMARK    4  A    between atoms: S_9  and  N_12
REMARK    5  A    between atoms: N_12  and  C_13
REMARK    6  A    between atoms: C_13  and  C_15
REMARK    7  A    between atoms: C_13  and  C_16
REMARK                            x       y       z     vdW  Elec       q    Type
REMARK                         _______ _______ _______ _____ _____    ______ ____
ROOT
ATOM      1  S   UNL     1      -0.008  -0.247  -2.770  0.00  0.00    +0.062 S 
ATOM      2  O   UNL     1      -0.548  -1.312  -3.541  0.00  0.00    -0.153 OA
ATOM      3  O   UNL     1      -0.578   1.055  -2.765  0.00  0.00    -0.153 OA
ENDROOT
BRANCH   1   6
ATOM      4  C   UNL     1      -0.018   1.503   0.010  0.00  0.00    +0.067 C 
ATOM      5  C   UNL     1       0.002  -0.004   0.002  0.00  0.00    +0.060 A 
ATOM      6  C   UNL     1       0.008  -0.796  -1.095  0.00  0.00    +0.148 A 
ATOM      7  C   UNL     1       0.028  -2.127  -0.666  0.00  0.00    +0.086 A 
ATOM      8  N   UNL     1       0.035  -2.134   0.643  0.00  0.00    -0.177 NA
ATOM      9  N   UNL     1       0.024  -0.805   1.088  0.00  0.00    -0.280 N 
ATOM     10  H   UNL     1       0.029  -0.513   2.013  0.00  0.00    +0.189 HD
ATOM     11  C   UNL     1       0.040  -3.343  -1.556  0.00  0.00    +0.069 C 
ENDBRANCH   1   6
BRANCH   1  12
ATOM     12  N   UNL     1       1.569  -0.072  -3.243  0.00  0.00    -0.183 NA
ATOM     13  H   UNL     1       1.914   0.806  -3.466  0.00  0.00    +0.149 HD
BRANCH  12  14
ATOM     14  C   UNL     1       2.444  -1.245  -3.324  0.00  0.00    +0.103 C 
ATOM     15  C   UNL     1       3.232  -1.384  -2.020  0.00  0.00    +0.031 C 
BRANCH  14  16
ATOM     16  C   UNL     1       3.402  -1.078  -4.475  0.00  0.00    -0.029 A 
ATOM     17  C   UNL     1       3.975   0.156  -4.724  0.00  0.00    +0.006 A 
ATOM     18  C   UNL     1       4.854   0.309  -5.779  0.00  0.00    +0.015 A 
ATOM     19  C   UNL     1       5.161  -0.771  -6.587  0.00  0.00    +0.018 A 
ATOM     20  C   UNL     1       4.587  -2.005  -6.338  0.00  0.00    +0.015 A 
ATOM     21  C   UNL     1       3.712  -2.159  -5.279  0.00  0.00    +0.006 A 
ATOM     22 BR   UNL     1       6.363  -0.562  -8.031  0.00  0.00    -0.050 Br
ENDBRANCH  14  16
ENDBRANCH  12  14
ENDBRANCH   1  12
TORSDOF 4
