REMARK  Name = ZINC64111088
REMARK  10 active torsions:
REMARK  status: ('A' for Active; 'I' for Inactive)
REMARK    1  A    between atoms: C_1  and  C_2
REMARK    2  A    between atoms: C_2  and  C_3
REMARK    3  A    between atoms: C_4  and  C_29
REMARK    4  A    between atoms: C_5  and  C_28
REMARK    5  A    between atoms: C_7  and  C_9
REMARK    6  A    between atoms: N_14  and  S_17
REMARK    7  A    between atoms: S_17  and  N_20
REMARK    8  A    between atoms: N_20  and  C_21
REMARK    9  A    between atoms: N_20  and  C_22
REMARK   10  A    between atoms: C_29  and  C_31
REMARK                            x       y       z     vdW  Elec       q    Type
REMARK                         _______ _______ _______ _____ _____    ______ ____
ROOT
ATOM      1  C   UNL     1      -2.059  -0.958   2.209  0.00  0.00    +0.244 C 
ATOM      2  O   UNL     1      -2.661  -1.983   2.452  0.00  0.00    -0.273 OA
ATOM      3  N   UNL     1      -1.081  -0.539   3.035  0.00  0.00    -0.297 N 
ATOM      4  C   UNL     1      -0.347   0.703   2.756  0.00  0.00    +0.125 C 
ATOM      5  C   UNL     1      -0.449   1.619   3.982  0.00  0.00    +0.129 C 
ATOM      6  N   UNL     1      -0.097   0.842   5.179  0.00  0.00    -0.163 NA
ATOM      7  C   UNL     1      -0.830  -0.400   5.458  0.00  0.00    +0.129 C 
ATOM      8  C   UNL     1      -0.732  -1.313   4.235  0.00  0.00    +0.125 C 
ENDROOT
BRANCH   1  13
ATOM      9  C   UNL     1      -1.415  -0.438  -0.126  0.00  0.00    -0.025 C 
ATOM     10  C   UNL     1      -2.141  -0.960  -1.141  0.00  0.00    +0.039 C 
ATOM     11  C   UNL     1      -3.554  -1.018  -0.737  0.00  0.00    +0.045 C 
ATOM     12  N   UNL     1      -3.714  -0.562   0.458  0.00  0.00    -0.271 NA
ATOM     13  C   UNL     1      -2.406  -0.154   0.982  0.00  0.00    +0.218 C 
ATOM     14  C   UNL     1      -4.669  -1.541  -1.606  0.00  0.00    +0.066 C 
BRANCH  10  15
ATOM     15  C   UNL     1      -1.604  -1.397  -2.438  0.00  0.00    +0.162 C 
ATOM     16  O   UNL     1      -0.427  -1.244  -2.690  0.00  0.00    -0.292 OA
ATOM     17  C   UNL     1      -2.515  -2.037  -3.454  0.00  0.00    +0.091 C 
ENDBRANCH  10  15
BRANCH   9  19
ATOM     18  C   UNL     1       0.360   1.254  -0.498  0.00  0.00    +0.008 C 
ATOM     19  C   UNL     1       0.072  -0.196  -0.100  0.00  0.00    +0.031 C 
ENDBRANCH   9  19
ENDBRANCH   1  13
BRANCH   6  20
ATOM     20  S   UNL     1       1.106   1.357   6.194  0.00  0.00    +0.100 S 
ATOM     21  O   UNL     1       1.583   0.205   6.876  0.00  0.00    -0.141 OA
ATOM     22  O   UNL     1       1.958   2.193   5.423  0.00  0.00    -0.141 OA
BRANCH  20  23
ATOM     23  N   UNL     1       0.401   2.326   7.337  0.00  0.00    -0.166 NA
ATOM     24  C   UNL     1      -0.103   1.742   8.582  0.00  0.00    +0.133 C 
BRANCH  23  25
ATOM     25  C   UNL     1       0.280   3.767   7.102  0.00  0.00    +0.081 C 
ATOM     26  C   UNL     1       1.032   4.527   8.197  0.00  0.00    +0.020 C 
ATOM     27  C   UNL     1       0.906   6.032   7.951  0.00  0.00    +0.002 C 
ATOM     28  C   UNL     1      -0.571   6.431   7.976  0.00  0.00    +0.000 C 
ATOM     29  C   UNL     1      -1.323   5.671   6.881  0.00  0.00    +0.002 C 
ATOM     30  C   UNL     1      -1.197   4.166   7.127  0.00  0.00    +0.020 C 
ENDBRANCH  23  25
ENDBRANCH  20  23
ENDBRANCH   6  20
TORSDOF 6
