REMARK  Name = ZINC43252982
REMARK  9 active torsions:
REMARK  status: ('A' for Active; 'I' for Inactive)
REMARK    1  A    between atoms: C_1  and  O_2
REMARK    2  A    between atoms: O_2  and  C_3
REMARK    3  A    between atoms: C_7  and  C_9
REMARK    4  A    between atoms: N_17  and  C_20
REMARK    5  A    between atoms: N_27  and  C_28
REMARK    6  A    between atoms: C_28  and  C_29
REMARK    7  A    between atoms: N_31  and  C_32
REMARK    8  A    between atoms: C_32  and  C_33
REMARK    9  A    between atoms: C_33  and  C_34
REMARK                            x       y       z     vdW  Elec       q    Type
REMARK                         _______ _______ _______ _____ _____    ______ ____
ROOT
ATOM      1  C   UNL     1       1.325  -4.106  -2.289  0.00  0.00    +0.130 C 
ATOM      2  C   UNL     1       0.300  -4.638  -3.288  0.00  0.00    +0.139 C 
ATOM      3  C   UNL     1       0.981  -6.037  -3.528  0.00  0.00    +0.241 C 
ATOM      4  C   UNL     1      -0.116  -6.805  -4.090  0.00  0.00    +0.254 C 
ATOM      5  O   UNL     1      -0.048  -7.689  -4.917  0.00  0.00    -0.272 OA
ATOM      6  N   UNL     1      -1.244  -6.317  -3.486  0.00  0.00    -0.236 N 
ATOM      7  C   UNL     1      -1.031  -5.132  -2.814  0.00  0.00    +0.230 C 
ATOM      8  O   UNL     1      -1.759  -4.599  -2.005  0.00  0.00    -0.275 OA
ATOM      9  O   UNL     1       2.288  -5.739  -3.787  0.00  0.00    -0.282 OA
ATOM     10  N   UNL     1       2.613  -4.565  -2.909  0.00  0.00    -0.170 NA
ENDROOT
BRANCH   1  15
ATOM     11  C   UNL     1       0.606  -0.607  -1.056  0.00  0.00    +0.120 A 
ATOM     12  C   UNL     1       1.173   0.161  -2.063  0.00  0.00    +0.045 A 
ATOM     13  C   UNL     1       1.786  -0.455  -3.136  0.00  0.00    +0.004 A 
ATOM     14  C   UNL     1       1.836  -1.835  -3.208  0.00  0.00    +0.005 A 
ATOM     15  C   UNL     1       1.271  -2.602  -2.207  0.00  0.00    -0.024 A 
ATOM     16  C   UNL     1       0.661  -1.991  -1.128  0.00  0.00    +0.051 A 
BRANCH  11  18
ATOM     17  C   UNL     1      -0.017   1.425   0.010  0.00  0.00    +0.277 C 
ATOM     18  O   UNL     1       0.002  -0.004   0.002  0.00  0.00    -0.495 OA
ENDBRANCH  11  18
ENDBRANCH   1  15
BRANCH   6  19
ATOM     19  C   UNL     1      -2.551  -6.976  -3.557  0.00  0.00    +0.084 C 
ATOM     20  C   UNL     1      -2.448  -8.378  -2.953  0.00  0.00    +0.023 C 
ATOM     21  C   UNL     1      -3.812  -9.067  -3.027  0.00  0.00    +0.002 C 
ATOM     22  C   UNL     1      -4.252  -9.172  -4.488  0.00  0.00    +0.000 C 
ATOM     23  C   UNL     1      -4.355  -7.770  -5.092  0.00  0.00    +0.002 C 
ATOM     24  C   UNL     1      -2.991  -7.081  -5.018  0.00  0.00    +0.023 C 
ENDBRANCH   6  19
BRANCH  10  25
ATOM     25  C   UNL     1       3.597  -4.921  -1.878  0.00  0.00    +0.211 C 
BRANCH  25  26
ATOM     26  C   UNL     1       4.942  -5.138  -2.522  0.00  0.00    +0.229 C 
ATOM     27  O   UNL     1       5.069  -5.010  -3.721  0.00  0.00    -0.274 OA
ATOM     28  N   UNL     1       6.005  -5.476  -1.765  0.00  0.00    -0.314 N 
ATOM     29  H   UNL     1       5.904  -5.579  -0.805  0.00  0.00    +0.149 HD
BRANCH  28  30
ATOM     30  C   UNL     1       7.312  -5.688  -2.390  0.00  0.00    +0.109 C 
BRANCH  30  31
ATOM     31  C   UNL     1       8.337  -6.058  -1.316  0.00  0.00    +0.054 C 
BRANCH  31  32
ATOM     32  C   UNL     1       9.683  -6.276  -1.960  0.00  0.00    -0.046 A 
ATOM     33  C   UNL     1      10.037  -7.534  -2.412  0.00  0.00    +0.006 A 
ATOM     34  C   UNL     1      11.270  -7.734  -3.002  0.00  0.00    +0.038 A 
ATOM     35  C   UNL     1      12.151  -6.675  -3.142  0.00  0.00    +0.123 A 
ATOM     36  C   UNL     1      11.795  -5.416  -2.689  0.00  0.00    +0.038 A 
ATOM     37  C   UNL     1      10.559  -5.217  -2.103  0.00  0.00    +0.006 A 
ATOM     38  F   UNL     1      13.357  -6.871  -3.718  0.00  0.00    -0.205 F 
ENDBRANCH  31  32
ENDBRANCH  30  31
ENDBRANCH  28  30
ENDBRANCH  25  26
ENDBRANCH  10  25
TORSDOF 8
