REMARK  Name = ZINC02969655
REMARK  13 active torsions:
REMARK  status: ('A' for Active; 'I' for Inactive)
REMARK    1  A    between atoms: C_1  and  C_2
REMARK    2  A    between atoms: C_2  and  C_3
REMARK    3  A    between atoms: C_3  and  C_5
REMARK    4  A    between atoms: C_3  and  S_16
REMARK    5  A    between atoms: N_7  and  C_8
REMARK    6  A    between atoms: C_8  and  C_9
REMARK    7  A    between atoms: C_12  and  C_15
REMARK    8  A    between atoms: S_16  and  C_17
REMARK    9  A    between atoms: C_28  and  C_30
REMARK   10  A    between atoms: C_30  and  C_31
REMARK   11  A    between atoms: C_31  and  C_32
REMARK   12  A    between atoms: C_33  and  C_39
REMARK   13  A    between atoms: C_37  and  C_38
REMARK                            x       y       z     vdW  Elec       q    Type
REMARK                         _______ _______ _______ _____ _____    ______ ____
ROOT
ATOM      1  C   UNL     1       1.644   7.495   5.269  0.00  0.00    +0.193 A 
ATOM      2  N   UNL     1       1.033   6.438   5.741  0.00  0.00    -0.222 NA
ATOM      3  C   UNL     1       0.764   6.293   7.060  0.00  0.00    +0.077 A 
ATOM      4  C   UNL     1       0.112   5.159   7.552  0.00  0.00    +0.028 A 
ATOM      5  C   UNL     1      -0.142   5.046   8.889  0.00  0.00    +0.002 A 
ATOM      6  C   UNL     1       0.239   6.045   9.776  0.00  0.00    +0.001 A 
ATOM      7  C   UNL     1       0.884   7.175   9.322  0.00  0.00    +0.014 A 
ATOM      8  C   UNL     1       1.153   7.311   7.962  0.00  0.00    +0.045 A 
ATOM      9  C   UNL     1       1.836   8.489   7.416  0.00  0.00    +0.168 A 
ATOM     10  N   UNL     1       2.061   8.526   6.067  0.00  0.00    -0.188 N 
ATOM     11  N   UNL     1       2.712   9.742   5.818  0.00  0.00    -0.148 NA
ATOM     12  C   UNL     1       2.853  10.346   6.972  0.00  0.00    +0.152 A 
ATOM     13  N   UNL     1       2.326   9.595   7.935  0.00  0.00    -0.211 NA
ENDROOT
BRANCH   1  14
ATOM     14  S   UNL     1       1.949   7.591   3.537  0.00  0.00    -0.073 S 
BRANCH  14  15
ATOM     15  C   UNL     1       1.080   6.104   2.982  0.00  0.00    +0.140 C 
BRANCH  15  16
ATOM     16  C   UNL     1       1.381   5.860   1.525  0.00  0.00    +0.227 C 
ATOM     17  O   UNL     1       1.790   6.766   0.831  0.00  0.00    -0.275 OA
ATOM     18  N   UNL     1       1.195   4.635   0.994  0.00  0.00    -0.310 N 
ATOM     19  H   UNL     1       0.867   3.910   1.550  0.00  0.00    +0.149 HD
BRANCH  18  20
ATOM     20  C   UNL     1       1.487   4.399  -0.422  0.00  0.00    +0.139 C 
BRANCH  20  21
ATOM     21  C   UNL     1       1.197   2.959  -0.761  0.00  0.00    -0.030 A 
ATOM     22  C   UNL     1      -0.062   2.592  -1.198  0.00  0.00    +0.005 A 
ATOM     23  C   UNL     1      -0.327   1.272  -1.509  0.00  0.00    +0.003 A 
ATOM     24  C   UNL     1       0.666   0.319  -1.384  0.00  0.00    -0.050 A 
ATOM     25  C   UNL     1       1.925   0.686  -0.947  0.00  0.00    +0.003 A 
ATOM     26  C   UNL     1       2.191   2.006  -0.635  0.00  0.00    +0.005 A 
ATOM     27  C   UNL     1       0.376  -1.121  -1.723  0.00  0.00    +0.044 C 
ENDBRANCH  20  21
ENDBRANCH  18  20
ENDBRANCH  15  16
BRANCH  15  29
ATOM     28  C   UNL     1      -1.151   4.988   2.835  0.00  0.00    +0.005 C 
ATOM     29  C   UNL     1      -0.427   6.294   3.166  0.00  0.00    +0.020 C 
ENDBRANCH  15  29
ENDBRANCH  14  15
ENDBRANCH   1  14
BRANCH  12  30
ATOM     30  C   UNL     1       3.509  11.687   7.177  0.00  0.00    +0.083 C 
BRANCH  30  31
ATOM     31  C   UNL     1       5.005  11.489   7.433  0.00  0.00    +0.046 C 
BRANCH  31  32
ATOM     32  C   UNL     1       5.662  12.829   7.638  0.00  0.00    -0.004 A 
ATOM     33  C   UNL     1       5.815  13.468   8.821  0.00  0.00    +0.036 A 
ATOM     34  N   UNL     1       6.449  14.635   8.579  0.00  0.00    -0.281 N 
ATOM     35  H   UNL     1       6.700  15.321   9.262  0.00  0.00    +0.189 HD
ATOM     36  N   UNL     1       6.692  14.716   7.202  0.00  0.00    -0.179 NA
ATOM     37  C   UNL     1       6.225  13.631   6.639  0.00  0.00    +0.063 A 
ATOM     38  C   UNL     1       6.282  13.302   5.170  0.00  0.00    +0.068 C 
ATOM     39  C   UNL     1       5.360  12.967  10.167  0.00  0.00    +0.065 C 
ENDBRANCH  31  32
ENDBRANCH  30  31
ENDBRANCH  12  30
TORSDOF 9
