REMARK  Name = ZINC65182569
REMARK  10 active torsions:
REMARK  status: ('A' for Active; 'I' for Inactive)
REMARK    1  A    between atoms: C_1  and  C_2
REMARK    2  A    between atoms: C_2  and  C_3
REMARK    3  A    between atoms: C_6  and  C_32
REMARK    4  A    between atoms: C_11  and  C_13
REMARK    5  A    between atoms: C_16  and  C_19
REMARK    6  A    between atoms: C_19  and  C_20
REMARK    7  A    between atoms: C_20  and  N_21
REMARK    8  A    between atoms: N_21  and  C_22
REMARK    9  A    between atoms: C_23  and  C_25
REMARK   10  A    between atoms: C_28  and  C_31
REMARK                            x       y       z     vdW  Elec       q    Type
REMARK                         _______ _______ _______ _____ _____    ______ ____
ROOT
ATOM      1  C   UNL     1      -1.258  -2.657   1.073  0.00  0.00    +0.318 C 
ATOM      2  N   UNL     1      -1.656  -4.073   1.107  0.00  0.00    -0.291 N 
ATOM      3  C   UNL     1      -0.496  -4.812   1.112  0.00  0.00    +0.139 C 
ATOM      4  N   UNL     1       0.543  -4.059   1.087  0.00  0.00    -0.072 NA
ATOM      5  O   UNL     1       0.178  -2.689   1.062  0.00  0.00    -0.367 OA
ATOM      6  H   UNL     1      -2.562  -4.419   1.122  0.00  0.00    +0.151 HD
ENDROOT
BRANCH   1  15
ATOM      7  C   UNL     1      -1.338  -0.539  -0.243  0.00  0.00    -0.033 C 
ATOM      8  C   UNL     1      -2.467   0.205  -0.253  0.00  0.00    -0.000 A 
ATOM      9  C   UNL     1      -2.703   1.653  -0.298  0.00  0.00    +0.013 A 
ATOM     10  C   UNL     1      -3.976   2.111  -0.296  0.00  0.00    -0.050 A 
ATOM     11  C   UNL     1      -5.072   1.239  -0.251  0.00  0.00    +0.005 A 
ATOM     12  C   UNL     1      -4.935  -0.103  -0.207  0.00  0.00    +0.026 A 
ATOM     13  C   UNL     1      -3.642  -0.694  -0.206  0.00  0.00    +0.043 A 
ATOM     14  N   UNL     1      -3.254  -1.946  -0.169  0.00  0.00    -0.373 N 
ATOM     15  C   UNL     1      -1.787  -1.982  -0.194  0.00  0.00    +0.169 C 
ATOM     16  C   UNL     1      -4.221   3.597  -0.342  0.00  0.00    +0.044 C 
ATOM     17  H   UNL     1      -3.838  -2.719  -0.135  0.00  0.00    +0.160 HD
BRANCH   7  19
ATOM     18  C   UNL     1       0.076   1.497  -0.324  0.00  0.00    +0.008 C 
ATOM     19  C   UNL     1       0.081  -0.033  -0.280  0.00  0.00    +0.030 C 
ENDBRANCH   7  19
ENDBRANCH   1  15
BRANCH   3  20
ATOM     20  C   UNL     1      -0.451  -6.318   1.144  0.00  0.00    +0.094 C 
BRANCH  20  21
ATOM     21  C   UNL     1       1.006  -6.785   1.140  0.00  0.00    +0.115 C 
BRANCH  21  22
ATOM     22  N   UNL     1       1.050  -8.249   1.171  0.00  0.00    -0.300 N 
ATOM     23  C   UNL     1       1.061  -9.008  -0.082  0.00  0.00    +0.132 C 
ATOM     24  C   UNL     1       1.081  -8.897   2.352  0.00  0.00    +0.246 C 
ATOM     25  O   UNL     1       0.966  -8.275   3.390  0.00  0.00    -0.270 OA
BRANCH  24  26
ATOM     26  C   UNL     1       1.256 -10.365   2.385  0.00  0.00    +0.037 A 
ATOM     27  C   UNL     1       2.070 -10.995   1.443  0.00  0.00    +0.013 A 
ATOM     28  C   UNL     1       2.229 -12.365   1.480  0.00  0.00    +0.004 A 
ATOM     29  C   UNL     1       1.584 -13.114   2.448  0.00  0.00    -0.050 A 
ATOM     30  C   UNL     1       0.775 -12.495   3.385  0.00  0.00    +0.004 A 
ATOM     31  C   UNL     1       0.613 -11.126   3.363  0.00  0.00    +0.013 A 
ATOM     32  C   UNL     1       1.762 -14.610   2.482  0.00  0.00    +0.044 C 
ENDBRANCH  24  26
ENDBRANCH  21  22
ENDBRANCH  20  21
ENDBRANCH   3  20
TORSDOF 6
