REMARK  Name = ZINC12781904
REMARK  10 active torsions:
REMARK  status: ('A' for Active; 'I' for Inactive)
REMARK    1  A    between atoms: C_1  and  C_2
REMARK    2  A    between atoms: C_2  and  C_4
REMARK    3  A    between atoms: C_2  and  N_14
REMARK    4  A    between atoms: C_7  and  S_10
REMARK    5  A    between atoms: S_10  and  N_13
REMARK    6  A    between atoms: C_15  and  C_17
REMARK    7  A    between atoms: C_17  and  O_18
REMARK    8  A    between atoms: O_18  and  C_19
REMARK    9  A    between atoms: C_19  and  C_21
REMARK   10  A    between atoms: C_21  and  C_27
REMARK                            x       y       z     vdW  Elec       q    Type
REMARK                         _______ _______ _______ _____ _____    ______ ____
ROOT
ATOM      1  N   UNL     1      -2.251   3.802   5.821  0.00  0.00    -0.306 N 
ATOM      2  C   UNL     1      -2.528   3.835   7.139  0.00  0.00    +0.251 C 
ATOM      3  O   UNL     1      -3.507   3.261   7.568  0.00  0.00    -0.272 OA
ATOM      4  H   UNL     1      -1.468   4.261   5.478  0.00  0.00    +0.149 HD
ENDROOT
BRANCH   1   6
ATOM      5  C   UNL     1      -4.295   3.975   4.489  0.00  0.00    +0.033 C 
ATOM      6  C   UNL     1      -3.132   3.072   4.905  0.00  0.00    +0.100 C 
BRANCH   6   7
ATOM      7  C   UNL     1      -2.354   2.659   3.683  0.00  0.00    -0.027 A 
ATOM      8  C   UNL     1      -2.559   1.412   3.122  0.00  0.00    +0.007 A 
ATOM      9  C   UNL     1      -1.846   1.033   2.000  0.00  0.00    +0.029 A 
ATOM     10  C   UNL     1      -0.927   1.900   1.439  0.00  0.00    +0.105 A 
ATOM     11  C   UNL     1      -0.717   3.145   2.004  0.00  0.00    +0.029 A 
ATOM     12  C   UNL     1      -1.434   3.526   3.123  0.00  0.00    +0.007 A 
BRANCH  10  13
ATOM     13  S   UNL     1      -0.017   1.417   0.010  0.00  0.00    +0.056 S 
ATOM     14  O   UNL     1       0.002  -0.004   0.002  0.00  0.00    -0.153 OA
ATOM     15  O   UNL     1       1.172   2.195   0.003  0.00  0.00    -0.153 OA
BRANCH  13  16
ATOM     16  N   UNL     1      -0.897   1.885  -1.312  0.00  0.00    -0.204 NA
ATOM     17  H   UNL     1      -1.747   2.338  -1.194  0.00  0.00    +0.144 HD
ATOM     18  H   UNL     1      -0.563   1.708  -2.205  0.00  0.00    +0.144 HD
ENDBRANCH  13  16
ENDBRANCH  10  13
ENDBRANCH   6   7
ENDBRANCH   1   6
BRANCH   2  19
ATOM     19  C   UNL     1      -1.622   4.586   8.081  0.00  0.00    +0.327 C 
BRANCH  19  20
ATOM     20  O   UNL     1      -2.131   4.472   9.436  0.00  0.00    -0.455 OA
BRANCH  20  21
ATOM     21  C   UNL     1      -1.434   5.089  10.403  0.00  0.00    +0.318 C 
ATOM     22  O   UNL     1      -0.432   5.704  10.126  0.00  0.00    -0.250 OA
BRANCH  21  23
ATOM     23  C   UNL     1      -1.902   5.016  11.834  0.00  0.00    +0.093 C 
ATOM     24  C   UNL     1      -3.303   5.621  11.944  0.00  0.00    +0.023 C 
ATOM     25  C   UNL     1      -3.263   7.083  11.495  0.00  0.00    +0.001 C 
ATOM     26  C   UNL     1      -2.298   7.865  12.388  0.00  0.00    +0.000 C 
ATOM     27  C   UNL     1      -0.897   7.260  12.278  0.00  0.00    +0.001 C 
ATOM     28  C   UNL     1      -0.937   5.797  12.727  0.00  0.00    +0.023 C 
BRANCH  23  29
ATOM     29  C   UNL     1      -1.941   3.575  12.276  0.00  0.00    -0.029 A 
ATOM     30  C   UNL     1      -1.164   3.158  13.340  0.00  0.00    +0.005 A 
ATOM     31  C   UNL     1      -1.203   1.838  13.749  0.00  0.00    +0.002 A 
ATOM     32  C   UNL     1      -2.010   0.933  13.088  0.00  0.00    +0.020 A 
ATOM     33  C   UNL     1      -2.784   1.349  12.019  0.00  0.00    +0.041 A 
ATOM     34  C   UNL     1      -2.749   2.671  11.613  0.00  0.00    +0.024 A 
ATOM     35 CL   UNL     1      -3.798   0.212  11.187  0.00  0.00    -0.084 Cl
ENDBRANCH  23  29
ENDBRANCH  21  23
ENDBRANCH  20  21
ENDBRANCH  19  20
ENDBRANCH   2  19
TORSDOF 9
