REMARK  Name = ZINC35916266
REMARK  8 active torsions:
REMARK  status: ('A' for Active; 'I' for Inactive)
REMARK    1  A    between atoms: C_1  and  C_2
REMARK    2  A    between atoms: C_5  and  C_32
REMARK    3  A    between atoms: C_6  and  C_8
REMARK    4  A    between atoms: C_8  and  N_9
REMARK    5  A    between atoms: N_13  and  C_16
REMARK    6  A    between atoms: C_20  and  N_22
REMARK    7  A    between atoms: N_22  and  S_23
REMARK    8  A    between atoms: S_23  and  C_26
REMARK                            x       y       z     vdW  Elec       q    Type
REMARK                         _______ _______ _______ _____ _____    ______ ____
ROOT
ATOM      1  C   UNL     1       3.686  -2.574   5.496  0.00  0.00    +0.040 A 
ATOM      2  C   UNL     1       3.893  -3.053   6.784  0.00  0.00    +0.024 A 
ATOM      3  C   UNL     1       4.580  -2.287   7.706  0.00  0.00    +0.004 A 
ATOM      4  C   UNL     1       5.064  -1.042   7.351  0.00  0.00    +0.024 A 
ATOM      5  C   UNL     1       4.861  -0.557   6.065  0.00  0.00    +0.050 A 
ATOM      6  C   UNL     1       4.176  -1.327   5.135  0.00  0.00    +0.048 A 
ENDROOT
BRANCH   1  11
ATOM      7  N   UNL     1       1.069  -3.625   3.232  0.00  0.00    -0.281 N 
ATOM      8  C   UNL     1       1.557  -4.885   2.669  0.00  0.00    +0.111 C 
ATOM      9  C   UNL     1       3.089  -4.869   2.654  0.00  0.00    +0.038 C 
ATOM     10  C   UNL     1       3.588  -4.594   4.076  0.00  0.00    +0.117 C 
ATOM     11  N   UNL     1       2.990  -3.350   4.563  0.00  0.00    -0.255 N 
ATOM     12  C   UNL     1       1.790  -2.936   4.129  0.00  0.00    +0.309 C 
ATOM     13  O   UNL     1       1.336  -1.898   4.570  0.00  0.00    -0.252 OA
BRANCH   7  14
ATOM     14  C   UNL     1      -0.231  -3.103   2.804  0.00  0.00    +0.144 C 
BRANCH  14  20
ATOM     15  C   UNL     1       2.795  -0.807  -0.454  0.00  0.00    +0.044 C 
ATOM     16  C   UNL     1       1.411  -1.065   0.084  0.00  0.00    -0.050 A 
ATOM     17  C   UNL     1       0.319  -0.439  -0.490  0.00  0.00    +0.003 A 
ATOM     18  C   UNL     1      -0.950  -0.676   0.003  0.00  0.00    +0.004 A 
ATOM     19  C   UNL     1      -1.128  -1.538   1.069  0.00  0.00    -0.046 A 
ATOM     20  C   UNL     1      -0.037  -2.164   1.642  0.00  0.00    -0.027 A 
ATOM     21  C   UNL     1       1.232  -1.931   1.146  0.00  0.00    +0.008 A 
ATOM     22  C   UNL     1      -2.512  -1.795   1.607  0.00  0.00    +0.044 C 
ENDBRANCH  14  20
ENDBRANCH   7  14
ENDBRANCH   1  11
BRANCH   5  23
ATOM     23  N   UNL     1       5.349   0.701   5.708  0.00  0.00    -0.216 N 
ATOM     24  H   UNL     1       4.788   1.316   5.210  0.00  0.00    +0.174 HD
BRANCH  23  25
ATOM     25  S   UNL     1       6.888   1.143   6.132  0.00  0.00    +0.072 S 
ATOM     26  O   UNL     1       7.094   2.448   5.609  0.00  0.00    -0.150 OA
ATOM     27  O   UNL     1       7.029   0.846   7.514  0.00  0.00    -0.150 OA
BRANCH  25  28
ATOM     28  C   UNL     1       7.993   0.075   5.271  0.00  0.00    +0.108 A 
ATOM     29  C   UNL     1       8.391  -1.117   5.847  0.00  0.00    +0.029 A 
ATOM     30  C   UNL     1       9.258  -1.955   5.172  0.00  0.00    +0.002 A 
ATOM     31  C   UNL     1       9.727  -1.602   3.921  0.00  0.00    +0.000 A 
ATOM     32  C   UNL     1       9.329  -0.410   3.344  0.00  0.00    +0.002 A 
ATOM     33  C   UNL     1       8.458   0.426   4.018  0.00  0.00    +0.029 A 
ENDBRANCH  25  28
ENDBRANCH  23  25
ENDBRANCH   5  23
TORSDOF 6
