REMARK  Name = ZINC09042619
REMARK  8 active torsions:
REMARK  status: ('A' for Active; 'I' for Inactive)
REMARK    1  A    between atoms: C_1  and  C_2
REMARK    2  A    between atoms: C_2  and  C_31
REMARK    3  A    between atoms: C_3  and  N_28
REMARK    4  A    between atoms: C_5  and  C_21
REMARK    5  A    between atoms: C_7  and  C_14
REMARK    6  A    between atoms: C_9  and  N_11
REMARK    7  A    between atoms: C_19  and  O_20
REMARK    8  A    between atoms: C_26  and  O_27
REMARK                            x       y       z     vdW  Elec       q    Type
REMARK                         _______ _______ _______ _____ _____    ______ ____
ROOT
ATOM      1  C   UNL     1       3.525   2.094  -1.143  0.00  0.00    +0.015 C 
ATOM      2  C   UNL     1       2.053   1.679  -1.121  0.00  0.00    +0.017 C 
ATOM      3  C   UNL     1       1.377   2.257   0.125  0.00  0.00    +0.168 C 
ATOM      4  C   UNL     1      -0.079   1.789   0.174  0.00  0.00    -0.006 C 
ATOM      5  C   UNL     1       0.480  -0.257  -0.999  0.00  0.00    -0.006 C 
ATOM      6  C   UNL     1       1.953   0.151  -1.083  0.00  0.00    +0.168 C 
ATOM      7  C   UNL     1       1.354   2.206  -2.375  0.00  0.00    +0.015 C 
ATOM      8  N   UNL     1      -0.126   0.315   0.218  0.00  0.00    +0.391 N 
ATOM      9  H   UNL     1      -1.104   0.009   0.285  0.00  0.00    -0.084 HD
ATOM     10  H   UNL     1       0.392  -0.015   1.041  0.00  0.00    -0.084 HD
ENDROOT
BRANCH   5  11
ATOM     11  C   UNL     1       0.378  -1.759  -0.942  0.00  0.00    -0.018 A 
ATOM     12  C   UNL     1       0.178  -2.393   0.269  0.00  0.00    +0.005 A 
ATOM     13  C   UNL     1       0.084  -3.771   0.322  0.00  0.00    +0.000 A 
ATOM     14  C   UNL     1       0.189  -4.519  -0.836  0.00  0.00    +0.004 A 
ATOM     15  C   UNL     1       0.388  -3.890  -2.050  0.00  0.00    +0.045 A 
ATOM     16  C   UNL     1       0.478  -2.507  -2.106  0.00  0.00    +0.119 A 
BRANCH  16  17
ATOM     17  O   UNL     1       0.669  -1.885  -3.300  0.00  0.00    -0.507 OA
ATOM     18  H   UNL     1       1.599  -1.761  -3.534  0.00  0.00    +0.292 HD
ENDBRANCH  16  17
ENDBRANCH   5  11
BRANCH   4  19
ATOM     19  C   UNL     1      -0.743   2.340   1.409  0.00  0.00    -0.018 A 
ATOM     20  C   UNL     1      -0.806   1.577   2.559  0.00  0.00    +0.005 A 
ATOM     21  C   UNL     1      -1.415   2.083   3.693  0.00  0.00    +0.000 A 
ATOM     22  C   UNL     1      -1.963   3.352   3.679  0.00  0.00    +0.004 A 
ATOM     23  C   UNL     1      -1.903   4.119   2.531  0.00  0.00    +0.045 A 
ATOM     24  C   UNL     1      -1.287   3.616   1.394  0.00  0.00    +0.119 A 
BRANCH  24  25
ATOM     25  O   UNL     1      -1.222   4.370   0.265  0.00  0.00    -0.507 OA
ATOM     26  H   UNL     1      -1.976   4.256  -0.329  0.00  0.00    +0.292 HD
ENDBRANCH  24  25
ENDBRANCH   4  19
BRANCH   6  27
ATOM     27  N   UNL     1       2.668  -0.357   0.090  0.00  0.00    +0.025 N 
ATOM     28  O   UNL     1       2.061  -0.947   0.966  0.00  0.00    -0.131 OA
ATOM     29  O   UNL     1       3.871  -0.190   0.190  0.00  0.00    -0.131 OA
ENDBRANCH   6  27
BRANCH   3  30
ATOM     30  N   UNL     1       2.080   1.794   1.324  0.00  0.00    +0.025 N 
ATOM     31  O   UNL     1       1.522   1.046   2.107  0.00  0.00    -0.131 OA
ATOM     32  O   UNL     1       3.223   2.155   1.537  0.00  0.00    -0.131 OA
ENDBRANCH   3  30
TORSDOF 6
