REMARK  Name = ZINC16346277
REMARK  8 active torsions:
REMARK  status: ('A' for Active; 'I' for Inactive)
REMARK    1  A    between atoms: C_1  and  C_2
REMARK    2  A    between atoms: C_2  and  C_3
REMARK    3  A    between atoms: C_3  and  S_4
REMARK    4  A    between atoms: S_4  and  C_5
REMARK    5  A    between atoms: C_15  and  C_17
REMARK    6  A    between atoms: C_22  and  N_23
REMARK    7  A    between atoms: C_29  and  C_31
REMARK    8  A    between atoms: C_29  and  C_32
REMARK                            x       y       z     vdW  Elec       q    Type
REMARK                         _______ _______ _______ _____ _____    ______ ____
ROOT
ATOM      1  C   UNL     1      -3.644   0.097   2.377  0.00  0.00    +0.171 A 
ATOM      2  N   UNL     1      -4.869   0.502   2.112  0.00  0.00    -0.185 NA
ATOM      3  C   UNL     1      -5.769  -0.331   1.568  0.00  0.00    +0.280 A 
ATOM      4  O   UNL     1      -6.902   0.061   1.327  0.00  0.00    -0.265 OA
ATOM      5  C   UNL     1      -5.401  -1.662   1.276  0.00  0.00    +0.069 A 
ATOM      6  C   UNL     1      -4.132  -2.067   1.550  0.00  0.00    +0.111 A 
ATOM      7  N   UNL     1      -3.248  -1.177   2.101  0.00  0.00    -0.322 N 
ATOM      8  N   UNL     1      -3.740  -3.355   1.269  0.00  0.00    -0.304 N 
ATOM      9  C   UNL     1      -4.450  -4.124   0.386  0.00  0.00    +0.017 C 
ATOM     10  C   UNL     1      -5.722  -3.806   0.065  0.00  0.00    +0.024 C 
ATOM     11  C   UNL     1      -6.401  -2.607   0.678  0.00  0.00    +0.095 C 
ATOM     12  C   UNL     1      -6.452  -4.582  -0.852  0.00  0.00    +0.162 C 
ATOM     13  O   UNL     1      -7.598  -4.273  -1.114  0.00  0.00    -0.292 OA
ATOM     14  C   UNL     1      -5.843  -5.787  -1.514  0.00  0.00    +0.086 C 
ATOM     15  C   UNL     1      -4.328  -5.588  -1.617  0.00  0.00    -0.023 C 
ATOM     16  C   UNL     1      -3.776  -5.334  -0.212  0.00  0.00    +0.058 C 
ATOM     17  C   UNL     1      -4.027  -4.384  -2.513  0.00  0.00    +0.011 C 
ATOM     18  C   UNL     1      -3.682  -6.844  -2.204  0.00  0.00    +0.011 C 
ATOM     19  H   UNL     1      -2.953  -3.722   1.700  0.00  0.00    +0.153 HD
ATOM     20  H   UNL     1      -2.340  -1.456   2.299  0.00  0.00    +0.169 HD
ENDROOT
BRANCH  11  21
ATOM     21  C   UNL     1      -7.346  -3.072   1.756  0.00  0.00    -0.005 A 
ATOM     22  C   UNL     1      -6.879  -3.859   2.793  0.00  0.00    +0.007 A 
ATOM     23  C   UNL     1      -7.746  -4.285   3.781  0.00  0.00    +0.000 A 
ATOM     24  C   UNL     1      -9.080  -3.926   3.733  0.00  0.00    +0.002 A 
ATOM     25  C   UNL     1      -9.547  -3.139   2.697  0.00  0.00    +0.033 A 
ATOM     26  C   UNL     1      -8.679  -2.709   1.710  0.00  0.00    +0.130 A 
BRANCH  26  27
ATOM     27  N   UNL     1      -9.177  -1.862   0.603  0.00  0.00    +0.057 N 
ATOM     28  O   UNL     1      -9.944  -0.956   0.834  0.00  0.00    -0.126 OA
ATOM     29  O   UNL     1      -8.818  -2.077  -0.531  0.00  0.00    -0.126 OA
ENDBRANCH  26  27
ENDBRANCH  11  21
BRANCH   1  30
ATOM     30  S   UNL     1      -2.495   1.225   3.092  0.00  0.00    -0.088 S 
BRANCH  30  31
ATOM     31  C   UNL     1      -3.443   2.760   3.276  0.00  0.00    +0.077 C 
BRANCH  31  33
ATOM     32  C   UNL     1      -3.352   5.134   4.050  0.00  0.00    +0.004 C 
ATOM     33  C   UNL     1      -2.552   3.839   3.895  0.00  0.00    +0.008 C 
ENDBRANCH  31  33
ENDBRANCH  30  31
ENDBRANCH   1  30
TORSDOF 5
