REMARK  Name = ZINC64002928
REMARK  5 active torsions:
REMARK  status: ('A' for Active; 'I' for Inactive)
REMARK    1  A    between atoms: C_1  and  C_2
REMARK    2  A    between atoms: N_4  and  C_5
REMARK    3  A    between atoms: C_5  and  C_6
REMARK    4  A    between atoms: C_10  and  C_12
REMARK    5  A    between atoms: C_18  and  C_20
REMARK                            x       y       z     vdW  Elec       q    Type
REMARK                         _______ _______ _______ _____ _____    ______ ____
ROOT
ATOM      1  C   UNL     1      -5.181  -3.183   2.554  0.00  0.00    +0.114 A 
ATOM      2  C   UNL     1      -5.428  -1.968   3.134  0.00  0.00    +0.080 A 
ATOM      3  S   UNL     1      -6.834  -2.370   4.163  0.00  0.00    -0.060 S 
ATOM      4  C   UNL     1      -6.950  -4.098   3.722  0.00  0.00    +0.165 A 
ATOM      5  N   UNL     1      -5.957  -4.220   2.862  0.00  0.00    -0.222 NA
ATOM      6  N   UNL     1      -7.851  -5.058   4.164  0.00  0.00    -0.261 N 
ATOM      7  C   UNL     1      -8.809  -4.725   5.052  0.00  0.00    +0.250 C 
ATOM      8  O   UNL     1      -8.883  -3.584   5.467  0.00  0.00    -0.270 OA
ATOM      9  H   UNL     1      -7.792  -5.967   3.833  0.00  0.00    +0.157 HD
ENDROOT
BRANCH   7  10
ATOM     10  C   UNL     1      -9.766  -5.745   5.522  0.00  0.00    +0.038 A 
ATOM     11  C   UNL     1      -9.676  -7.062   5.048  0.00  0.00    +0.015 A 
ATOM     12  C   UNL     1     -10.554  -8.014   5.472  0.00  0.00    +0.027 A 
ATOM     13  C   UNL     1     -11.555  -7.691   6.385  0.00  0.00    +0.047 A 
ATOM     14  C   UNL     1     -11.657  -6.371   6.870  0.00  0.00    +0.004 A 
ATOM     15  C   UNL     1     -10.755  -5.401   6.439  0.00  0.00    +0.023 A 
ATOM     16  C   UNL     1     -12.790  -6.371   7.791  0.00  0.00    -0.019 A 
ATOM     17  C   UNL     1     -13.287  -7.622   7.814  0.00  0.00    +0.020 A 
ATOM     18  N   UNL     1     -12.558  -8.421   6.979  0.00  0.00    -0.358 N 
ATOM     19  H   UNL     1     -12.724  -9.364   6.827  0.00  0.00    +0.166 HD
ATOM     20  C   UNL     1     -14.474  -8.036   8.654  0.00  0.00    +0.053 C 
ATOM     21  C   UNL     1     -14.707  -6.967   9.728  0.00  0.00    +0.006 C 
ATOM     22  C   UNL     1     -14.745  -5.583   9.073  0.00  0.00    +0.005 C 
ATOM     23  C   UNL     1     -13.338  -5.214   8.586  0.00  0.00    +0.037 C 
ENDBRANCH   7  10
BRANCH   1  27
ATOM     24  C   UNL     1      -2.571  -2.688   0.012  0.00  0.00    +0.194 C 
ATOM     25  C   UNL     1      -2.590  -4.235   0.079  0.00  0.00    +0.077 C 
ATOM     26  C   UNL     1      -3.779  -4.492   0.990  0.00  0.00    +0.024 C 
ATOM     27  C   UNL     1      -4.069  -3.340   1.592  0.00  0.00    +0.143 C 
ATOM     28  O   UNL     1      -3.244  -2.327   1.234  0.00  0.00    -0.485 OA
BRANCH  24  29
ATOM     29  C   UNL     1      -1.136  -2.159   0.001  0.00  0.00    +0.149 C 
BRANCH  29  33
ATOM     30  C   UNL     1      -0.018   1.503   0.010  0.00  0.00    +0.109 C 
ATOM     31  C   UNL     1       0.002  -0.004   0.002  0.00  0.00    +0.210 C 
ATOM     32  O   UNL     1       1.060  -0.596  -0.011  0.00  0.00    -0.276 OA
ATOM     33  N   UNL     1      -1.156  -0.694   0.009  0.00  0.00    -0.312 N 
ATOM     34  H   UNL     1      -2.002  -0.220   0.020  0.00  0.00    +0.149 HD
ENDBRANCH  29  33
ENDBRANCH  24  29
ENDBRANCH   1  27
TORSDOF 4
