REMARK  Name = ZINC05331977
REMARK  5 active torsions:
REMARK  status: ('A' for Active; 'I' for Inactive)
REMARK    1  A    between atoms: C_4  and  C_7
REMARK    2  A    between atoms: C_7  and  C_9
REMARK    3  A    between atoms: C_7  and  O_33
REMARK    4  A    between atoms: C_9  and  N_11
REMARK    5  A    between atoms: C_9  and  N_24
REMARK                            x       y       z     vdW  Elec       q    Type
REMARK                         _______ _______ _______ _____ _____    ______ ____
ROOT
ATOM      1  C   UNL     1       2.957  -0.010  -0.026  0.00  0.00    +0.242 C 
ENDROOT
BRANCH   1   2
ATOM      2  N   UNL     1       2.506   1.384  -0.014  0.00  0.00    -0.315 N 
ATOM      3  C   UNL     1       1.183   1.788   0.000  0.00  0.00    +0.052 A 
ATOM      4  C   UNL     1      -0.013   1.076   0.008  0.00  0.00    +0.026 A 
ATOM      5  C   UNL     1      -1.216   1.748   0.017  0.00  0.00    +0.002 A 
ATOM      6  C   UNL     1      -1.248   3.134   0.032  0.00  0.00    +0.001 A 
ATOM      7  C   UNL     1      -0.075   3.857   0.024  0.00  0.00    +0.010 A 
ATOM      8  C   UNL     1       1.148   3.190   0.008  0.00  0.00    +0.008 A 
ATOM      9  C   UNL     1       2.551   3.643  -0.003  0.00  0.00    +0.008 A 
ATOM     10  C   UNL     1       3.343   2.486  -0.017  0.00  0.00    +0.052 A 
ATOM     11  C   UNL     1       4.729   2.609  -0.029  0.00  0.00    +0.026 A 
ATOM     12  C   UNL     1       5.311   3.858  -0.028  0.00  0.00    +0.002 A 
ATOM     13  C   UNL     1       4.527   5.001  -0.014  0.00  0.00    +0.001 A 
ATOM     14  C   UNL     1       3.152   4.900  -0.002  0.00  0.00    +0.010 A 
ENDBRANCH   1   2
BRANCH   1  15
ATOM     15  N   UNL     1       3.753  -0.256  -1.231  0.00  0.00    -0.218 N 
ATOM     16  C   UNL     1       3.486  -1.173  -2.220  0.00  0.00    +0.091 A 
ATOM     17  C   UNL     1       2.475  -2.106  -2.425  0.00  0.00    +0.030 A 
ATOM     18  C   UNL     1       2.494  -2.892  -3.543  0.00  0.00    +0.002 A 
ATOM     19  C   UNL     1       3.514  -2.769  -4.477  0.00  0.00    +0.002 A 
ATOM     20  C   UNL     1       4.513  -1.856  -4.302  0.00  0.00    +0.032 A 
ATOM     21  C   UNL     1       4.520  -1.041  -3.163  0.00  0.00    +0.113 A 
ATOM     22  N   UNL     1       5.358  -0.083  -2.720  0.00  0.00    -0.129 NA
ATOM     23  N   UNL     1       4.940   0.393  -1.600  0.00  0.00    -0.063 NA
ENDBRANCH   1  15
BRANCH   1  24
ATOM     24  C   UNL     1       3.812  -0.279   1.214  0.00  0.00    +0.189 C 
BRANCH  24  28
ATOM     25  C   UNL     1       1.491   0.439   4.728  0.00  0.00    +0.000 A 
ATOM     26  C   UNL     1       2.305   1.435   4.221  0.00  0.00    +0.000 A 
ATOM     27  C   UNL     1       3.056   1.203   3.084  0.00  0.00    +0.006 A 
ATOM     28  C   UNL     1       2.994  -0.026   2.454  0.00  0.00    -0.015 A 
ATOM     29  C   UNL     1       2.176  -1.021   2.957  0.00  0.00    +0.006 A 
ATOM     30  C   UNL     1       1.429  -0.790   4.097  0.00  0.00    +0.000 A 
ENDBRANCH  24  28
BRANCH  24  31
ATOM     31  O   UNL     1       4.252  -1.639   1.203  0.00  0.00    -0.383 OA
ATOM     32  H   UNL     1       3.532  -2.285   1.206  0.00  0.00    +0.210 HD
ENDBRANCH  24  31
ENDBRANCH   1  24
TORSDOF 5
