REMARK  Name = ZINC02765201
REMARK  8 active torsions:
REMARK  status: ('A' for Active; 'I' for Inactive)
REMARK    1  A    between atoms: C_1  and  C_2
REMARK    2  A    between atoms: C_7  and  C_12
REMARK    3  A    between atoms: N_14  and  N_15
REMARK    4  A    between atoms: N_15  and  C_16
REMARK    5  A    between atoms: C_16  and  N_18
REMARK    6  A    between atoms: N_18  and  C_19
REMARK    7  A    between atoms: C_19  and  C_21
REMARK    8  A    between atoms: C_19  and  C_22
REMARK                            x       y       z     vdW  Elec       q    Type
REMARK                         _______ _______ _______ _____ _____    ______ ____
ROOT
ATOM      1  C   UNL     1       3.558  -0.603  -0.035  0.00  0.00    +0.261 C 
ATOM      2  O   UNL     1       3.575  -1.819  -0.042  0.00  0.00    -0.269 OA
ATOM      3  N   UNL     1       2.382   0.055  -0.020  0.00  0.00    -0.231 N 
ATOM      4  H   UNL     1       2.369   1.025  -0.015  0.00  0.00    +0.173 HD
ENDROOT
BRANCH   1  10
ATOM      5  C   UNL     1      10.100  -2.161  -0.197  0.00  0.00    +0.008 C 
ATOM      6  C   UNL     1       8.693  -1.625  -0.468  0.00  0.00    -0.009 C 
ATOM      7  C   UNL     1       7.677  -2.402   0.374  0.00  0.00    +0.008 C 
ATOM      8  C   UNL     1       6.255  -2.050  -0.067  0.00  0.00    +0.037 C 
ATOM      9  C   UNL     1       6.102  -0.534  -0.059  0.00  0.00    -0.025 A 
ATOM     10  C   UNL     1       4.823   0.150  -0.043  0.00  0.00    +0.049 A 
ATOM     11  C   UNL     1       4.830   1.528  -0.042  0.00  0.00    +0.058 A 
ATOM     12  S   UNL     1       6.519   1.915  -0.050  0.00  0.00    -0.101 S 
ATOM     13  C   UNL     1       7.186   0.276  -0.065  0.00  0.00    -0.006 A 
ATOM     14  C   UNL     1       8.624  -0.140  -0.082  0.00  0.00    +0.046 C 
ENDBRANCH   1  10
BRANCH   3  15
ATOM     15  N   UNL     1       1.178  -0.662  -0.013  0.00  0.00    -0.246 N 
ATOM     16  H   UNL     1       1.191  -1.632  -0.018  0.00  0.00    +0.172 HD
BRANCH  15  17
ATOM     17  C   UNL     1       0.002  -0.004   0.002  0.00  0.00    +0.147 C 
ATOM     18  S   UNL     1      -1.469  -0.880   0.011  0.00  0.00    -0.017 S 
BRANCH  17  19
ATOM     19  N   UNL     1      -0.016   1.344   0.009  0.00  0.00    -0.319 N 
ATOM     20  H   UNL     1       0.817   1.840   0.004  0.00  0.00    +0.148 HD
BRANCH  19  21
ATOM     21  C   UNL     1      -1.295   2.059   0.019  0.00  0.00    +0.099 C 
ATOM     22  C   UNL     1      -1.808   2.206  -1.414  0.00  0.00    +0.033 C 
BRANCH  21  23
ATOM     23  C   UNL     1      -1.102   3.425   0.626  0.00  0.00    -0.028 A 
ATOM     24  C   UNL     1       0.035   4.155   0.337  0.00  0.00    +0.005 A 
ATOM     25  C   UNL     1       0.211   5.410   0.890  0.00  0.00    +0.000 A 
ATOM     26  C   UNL     1      -0.747   5.930   1.740  0.00  0.00    +0.000 A 
ATOM     27  C   UNL     1      -1.882   5.197   2.034  0.00  0.00    +0.000 A 
ATOM     28  C   UNL     1      -2.059   3.944   1.477  0.00  0.00    +0.005 A 
ENDBRANCH  21  23
ENDBRANCH  19  21
ENDBRANCH  17  19
ENDBRANCH  15  17
ENDBRANCH   3  15
TORSDOF 6
