REMARK  Name = ZINC36684871
REMARK  10 active torsions:
REMARK  status: ('A' for Active; 'I' for Inactive)
REMARK    1  A    between atoms: C_1  and  C_2
REMARK    2  A    between atoms: C_2  and  C_3
REMARK    3  A    between atoms: C_3  and  C_4
REMARK    4  A    between atoms: C_4  and  C_5
REMARK    5  A    between atoms: C_5  and  N_6
REMARK    6  A    between atoms: C_15  and  C_17
REMARK    7  A    between atoms: N_19  and  C_20
REMARK    8  A    between atoms: C_20  and  C_21
REMARK    9  A    between atoms: C_21  and  C_23
REMARK   10  A    between atoms: C_21  and  N_28
REMARK                            x       y       z     vdW  Elec       q    Type
REMARK                         _______ _______ _______ _____ _____    ______ ____
ROOT
ATOM      1  C   UNL     1       3.875  -6.476  -1.432  0.00  0.00    +0.265 C 
ATOM      2  O   UNL     1       4.108  -7.659  -1.585  0.00  0.00    -0.268 OA
ATOM      3  N   UNL     1       4.748  -5.698  -0.762  0.00  0.00    -0.311 N 
ATOM      4  H   UNL     1       4.563  -4.754  -0.639  0.00  0.00    +0.149 HD
ENDROOT
BRANCH   1  14
ATOM      5  N   UNL     1       1.327  -4.032  -2.260  0.00  0.00    -0.228 N 
ATOM      6  C   UNL     1       0.357  -4.666  -2.950  0.00  0.00    +0.275 A 
ATOM      7  O   UNL     1      -0.622  -4.061  -3.348  0.00  0.00    -0.266 OA
ATOM      8  C   UNL     1       0.509  -6.105  -3.209  0.00  0.00    +0.050 A 
ATOM      9  C   UNL     1      -0.435  -6.850  -3.910  0.00  0.00    +0.014 A 
ATOM     10  C   UNL     1      -0.218  -8.197  -4.111  0.00  0.00    +0.001 A 
ATOM     11  C   UNL     1       0.928  -8.812  -3.623  0.00  0.00    +0.001 A 
ATOM     12  C   UNL     1       1.874  -8.091  -2.926  0.00  0.00    +0.011 A 
ATOM     13  C   UNL     1       1.675  -6.731  -2.712  0.00  0.00    +0.020 A 
ATOM     14  C   UNL     1       2.635  -5.890  -1.979  0.00  0.00    +0.154 A 
ATOM     15  N   UNL     1       2.378  -4.614  -1.822  0.00  0.00    -0.163 NA
BRANCH   5  16
ATOM     16  C   UNL     1       1.171  -2.598  -2.005  0.00  0.00    +0.147 C 
BRANCH  16  17
ATOM     17  C   UNL     1       0.438  -2.393  -0.677  0.00  0.00    +0.023 C 
BRANCH  17  18
ATOM     18  C   UNL     1       0.275  -0.895  -0.410  0.00  0.00    +0.002 C 
BRANCH  18  20
ATOM     19  C   UNL     1      -0.621   0.807   1.184  0.00  0.00    +0.004 C 
ATOM     20  C   UNL     1      -0.458  -0.691   0.917  0.00  0.00    -0.003 C 
ENDBRANCH  18  20
ENDBRANCH  17  18
ENDBRANCH  16  17
ENDBRANCH   5  16
ENDBRANCH   1  14
BRANCH   3  21
ATOM     21  C   UNL     1       5.979  -6.279  -0.218  0.00  0.00    +0.094 C 
BRANCH  21  22
ATOM     22  C   UNL     1       6.849  -5.169   0.373  0.00  0.00    -0.013 C 
BRANCH  22  23
ATOM     23  N   UNL     1       8.020  -5.763   1.033  0.00  0.00    +0.386 N 
ATOM     24  C   UNL     1       8.865  -4.699   1.631  0.00  0.00    -0.078 C 
ATOM     25  C   UNL     1       9.675  -5.456   2.714  0.00  0.00    -0.020 C 
ATOM     26  C   UNL     1       8.647  -6.467   3.270  0.00  0.00    -0.020 C 
ATOM     27  C   UNL     1       7.590  -6.618   2.161  0.00  0.00    -0.078 C 
ATOM     28  H   UNL     1       8.556  -6.303   0.371  0.00  0.00    -0.081 HD
ENDBRANCH  22  23
BRANCH  22  29
ATOM     29  C   UNL     1       7.307  -4.248  -0.729  0.00  0.00    -0.022 A 
ATOM     30  C   UNL     1       6.817  -3.036  -1.087  0.00  0.00    +0.009 A 
ATOM     31  C   UNL     1       7.402  -2.362  -2.143  0.00  0.00    +0.008 A 
ATOM     32  C   UNL     1       8.449  -2.933  -2.788  0.00  0.00    +0.045 A 
ATOM     33  S   UNL     1       8.641  -4.467  -1.895  0.00  0.00    -0.103 S 
ENDBRANCH  22  29
ENDBRANCH  21  22
ENDBRANCH   3  21
TORSDOF 9
