REMARK  Name = ZINC05343091
REMARK  8 active torsions:
REMARK  status: ('A' for Active; 'I' for Inactive)
REMARK    1  A    between atoms: C_1  and  C_2
REMARK    2  A    between atoms: C_2  and  C_3
REMARK    3  A    between atoms: C_3  and  N_4
REMARK    4  A    between atoms: C_5  and  C_22
REMARK    5  A    between atoms: C_8  and  C_15
REMARK    6  A    between atoms: C_20  and  O_21
REMARK    7  A    between atoms: C_25  and  S_28
REMARK    8  A    between atoms: S_28  and  C_29
REMARK                            x       y       z     vdW  Elec       q    Type
REMARK                         _______ _______ _______ _____ _____    ______ ____
ROOT
ATOM      1  N   UNL     1      -1.413  -1.998   0.005  0.00  0.00    -0.285 N 
ATOM      2  C   UNL     1      -1.407  -2.852  -1.190  0.00  0.00    +0.141 C 
ATOM      3  C   UNL     1      -1.385  -4.270  -0.689  0.00  0.00    +0.035 A 
ATOM      4  C   UNL     1      -1.367  -5.633  -1.005  0.00  0.00    +0.102 A 
ATOM      5  N   UNL     1      -1.353  -6.302   0.131  0.00  0.00    -0.173 NA
ATOM      6  N   UNL     1      -1.359  -5.496   1.133  0.00  0.00    -0.272 N 
ATOM      7  H   UNL     1      -1.350  -5.766   2.065  0.00  0.00    +0.189 HD
ATOM      8  C   UNL     1      -1.379  -4.204   0.691  0.00  0.00    +0.126 A 
ATOM      9  C   UNL     1      -1.392  -2.792   1.091  0.00  0.00    +0.265 C 
ATOM     10  O   UNL     1      -1.386  -2.396   2.240  0.00  0.00    -0.268 OA
ENDROOT
BRANCH   4  11
ATOM     11  C   UNL     1      -1.367  -6.218  -2.369  0.00  0.00    +0.044 A 
ATOM     12  C   UNL     1      -1.379  -5.388  -3.486  0.00  0.00    +0.014 A 
ATOM     13  C   UNL     1      -1.377  -5.937  -4.753  0.00  0.00    +0.001 A 
ATOM     14  C   UNL     1      -1.365  -7.311  -4.917  0.00  0.00    +0.004 A 
ATOM     15  C   UNL     1      -1.353  -8.144  -3.814  0.00  0.00    +0.046 A 
ATOM     16  C   UNL     1      -1.348  -7.606  -2.537  0.00  0.00    +0.126 A 
BRANCH  16  17
ATOM     17  O   UNL     1      -1.331  -8.424  -1.453  0.00  0.00    -0.506 OA
ATOM     18  H   UNL     1      -2.210  -8.673  -1.134  0.00  0.00    +0.292 HD
ENDBRANCH  16  17
ENDBRANCH   4  11
BRANCH   2  19
ATOM     19  C   UNL     1      -2.650  -2.609  -2.008  0.00  0.00    -0.022 A 
ATOM     20  C   UNL     1      -3.865  -2.422  -1.376  0.00  0.00    +0.007 A 
ATOM     21  C   UNL     1      -5.006  -2.200  -2.122  0.00  0.00    +0.015 A 
ATOM     22  C   UNL     1      -4.931  -2.164  -3.509  0.00  0.00    +0.008 A 
ATOM     23  C   UNL     1      -3.708  -2.352  -4.140  0.00  0.00    +0.015 A 
ATOM     24  C   UNL     1      -2.570  -2.569  -3.388  0.00  0.00    +0.007 A 
BRANCH  22  25
ATOM     25  S   UNL     1      -6.384  -1.881  -4.465  0.00  0.00    -0.129 S 
ATOM     26  C   UNL     1      -5.795  -1.921  -6.180  0.00  0.00    +0.090 C 
ENDBRANCH  22  25
ENDBRANCH   2  19
BRANCH   1  27
ATOM     27  C   UNL     1      -1.433  -0.534   0.013  0.00  0.00    +0.109 C 
BRANCH  27  29
ATOM     28  C   UNL     1      -0.019   1.526   0.010  0.00  0.00    +0.005 C 
ATOM     29  C   UNL     1       0.002  -0.004   0.002  0.00  0.00    +0.016 C 
ENDBRANCH  27  29
ENDBRANCH   1  27
TORSDOF 6
