REMARK  Name = ZINC39459415
REMARK  9 active torsions:
REMARK  status: ('A' for Active; 'I' for Inactive)
REMARK    1  A    between atoms: C_1  and  C_2
REMARK    2  A    between atoms: C_3  and  C_30
REMARK    3  A    between atoms: N_6  and  C_7
REMARK    4  A    between atoms: C_12  and  O_13
REMARK    5  A    between atoms: C_16  and  S_20
REMARK    6  A    between atoms: S_20  and  C_23
REMARK    7  A    between atoms: C_23  and  C_24
REMARK    8  A    between atoms: C_23  and  C_25
REMARK    9  A    between atoms: C_30  and  C_31
REMARK                            x       y       z     vdW  Elec       q    Type
REMARK                         _______ _______ _______ _____ _____    ______ ____
ROOT
ATOM      1  C   UNL     1      -1.691   0.674   1.536  0.00  0.00    +0.064 C 
ATOM      2  C   UNL     1      -1.382  -0.788   1.341  0.00  0.00    +0.025 A 
ATOM      3  C   UNL     1      -1.471  -1.466   0.171  0.00  0.00    -0.018 A 
ATOM      4  C   UNL     1      -1.097  -2.787   0.415  0.00  0.00    -0.016 A 
ATOM      5  C   UNL     1      -0.775  -2.877   1.747  0.00  0.00    +0.077 A 
ATOM      6  N   UNL     1      -0.959  -1.648   2.312  0.00  0.00    -0.308 N 
ATOM      7  C   UNL     1      -0.294  -4.126   2.363  0.00  0.00    +0.100 A 
ATOM      8  C   UNL     1       0.694  -4.850   1.649  0.00  0.00    +0.070 A 
ATOM      9  C   UNL     1       1.149  -6.062   2.169  0.00  0.00    +0.102 A 
ATOM     10  C   UNL     1       0.625  -6.487   3.379  0.00  0.00    +0.047 A 
ATOM     11  C   UNL     1      -0.320  -5.711   4.030  0.00  0.00    +0.113 A 
ATOM     12  N   UNL     1      -0.750  -4.573   3.520  0.00  0.00    -0.253 NA
ATOM     13  C   UNL     1       1.217  -4.285   0.408  0.00  0.00    +0.167 C 
ATOM     14  O   UNL     1       2.322  -3.784   0.402  0.00  0.00    -0.292 OA
ATOM     15  C   UNL     1       0.409  -4.309  -0.870  0.00  0.00    +0.084 C 
ATOM     16  C   UNL     1      -1.047  -3.938  -0.551  0.00  0.00    +0.045 C 
ENDROOT
BRANCH   6  17
ATOM     17  C   UNL     1      -0.751  -1.325   3.661  0.00  0.00    +0.089 A 
ATOM     18  C   UNL     1      -1.786  -1.457   4.575  0.00  0.00    +0.030 A 
ATOM     19  C   UNL     1      -1.579  -1.139   5.904  0.00  0.00    +0.002 A 
ATOM     20  C   UNL     1      -0.341  -0.690   6.326  0.00  0.00    +0.004 A 
ATOM     21  C   UNL     1       0.695  -0.556   5.421  0.00  0.00    +0.047 A 
ATOM     22  C   UNL     1       0.497  -0.878   4.088  0.00  0.00    +0.141 A 
BRANCH  22  23
ATOM     23  O   UNL     1       1.517  -0.753   3.198  0.00  0.00    -0.505 OA
ATOM     24  H   UNL     1       1.569   0.117   2.779  0.00  0.00    +0.292 HD
ENDBRANCH  22  23
ENDBRANCH   6  17
BRANCH   9  25
ATOM     25  S   UNL     1       2.353  -7.023   1.312  0.00  0.00    -0.000 S 
ATOM     26  O   UNL     1       2.483  -8.211   2.082  0.00  0.00    -0.169 OA
ATOM     27  O   UNL     1       1.887  -7.077  -0.029  0.00  0.00    -0.169 OA
BRANCH  25  28
ATOM     28  C   UNL     1       3.880  -6.048   1.405  0.00  0.00    +0.130 C 
ATOM     29  C   UNL     1       4.182  -5.711   2.866  0.00  0.00    +0.032 C 
ATOM     30  C   UNL     1       5.038  -6.857   0.818  0.00  0.00    +0.032 C 
ENDBRANCH  25  28
ENDBRANCH   9  25
BRANCH   3  31
ATOM     31  C   UNL     1      -1.899  -0.894  -1.157  0.00  0.00    +0.072 C 
BRANCH  31  32
ATOM     32  C   UNL     1      -0.690  -0.376  -1.893  0.00  0.00    -0.043 A 
ATOM     33  C   UNL     1      -0.282   0.932  -1.717  0.00  0.00    +0.004 A 
ATOM     34  C   UNL     1       0.826   1.408  -2.392  0.00  0.00    +0.000 A 
ATOM     35  C   UNL     1       1.527   0.574  -3.244  0.00  0.00    +0.000 A 
ATOM     36  C   UNL     1       1.119  -0.735  -3.420  0.00  0.00    +0.000 A 
ATOM     37  C   UNL     1       0.013  -1.212  -2.741  0.00  0.00    +0.004 A 
ENDBRANCH  31  32
ENDBRANCH   3  31
TORSDOF 6
