REMARK  Name = ZINC58878356
REMARK  7 active torsions:
REMARK  status: ('A' for Active; 'I' for Inactive)
REMARK    1  A    between atoms: C_4  and  C_7
REMARK    2  A    between atoms: C_7  and  C_9
REMARK    3  A    between atoms: C_7  and  N_24
REMARK    4  A    between atoms: C_9  and  N_10
REMARK    5  A    between atoms: N_13  and  C_14
REMARK    6  A    between atoms: C_19  and  S_20
REMARK    7  A    between atoms: S_20  and  C_21
REMARK                            x       y       z     vdW  Elec       q    Type
REMARK                         _______ _______ _______ _____ _____    ______ ____
ROOT
ATOM      1  N   UNL     1       4.243   0.416   1.955  0.00  0.00    -0.300 N 
ATOM      2  C   UNL     1       4.628   0.450   3.246  0.00  0.00    +0.304 C 
ATOM      3  O   UNL     1       4.787  -0.588   3.861  0.00  0.00    -0.253 OA
ATOM      4  N   UNL     1       4.837   1.633   3.856  0.00  0.00    -0.268 N 
ATOM      5  H   UNL     1       4.117   1.243   1.464  0.00  0.00    +0.150 HD
ATOM      6  H   UNL     1       4.781   2.457   3.347  0.00  0.00    +0.156 HD
ENDROOT
BRANCH   4   7
ATOM      7  C   UNL     1       5.136   1.673   5.225  0.00  0.00    +0.048 A 
ATOM      8  C   UNL     1       5.882   0.658   5.804  0.00  0.00    +0.024 A 
ATOM      9  C   UNL     1       6.175   0.699   7.154  0.00  0.00    +0.002 A 
ATOM     10  C   UNL     1       5.725   1.750   7.932  0.00  0.00    +0.001 A 
ATOM     11  C   UNL     1       4.981   2.767   7.364  0.00  0.00    +0.017 A 
ATOM     12  C   UNL     1       4.688   2.737   6.008  0.00  0.00    +0.034 A 
BRANCH  12  13
ATOM     13  S   UNL     1       3.745   4.035   5.279  0.00  0.00    -0.054 S 
BRANCH  13  14
ATOM     14  C   UNL     1       3.403   5.159   6.662  0.00  0.00    +0.404 C 
ATOM     15  F   UNL     1       2.684   4.477   7.649  0.00  0.00    -0.197 F 
ATOM     16  F   UNL     1       4.610   5.620   7.197  0.00  0.00    -0.197 F 
ENDBRANCH  13  14
ENDBRANCH  12  13
ENDBRANCH   4   7
BRANCH   1  17
ATOM     17  C   UNL     1       4.016  -0.871   1.292  0.00  0.00    +0.095 C 
BRANCH  17  18
ATOM     18  C   UNL     1       3.709  -0.635  -0.189  0.00  0.00    -0.020 C 
BRANCH  18  22
ATOM     19  C   UNL     1       0.018   1.482  -0.561  0.00  0.00    +0.000 A 
ATOM     20  C   UNL     1       1.217   2.161  -0.664  0.00  0.00    +0.000 A 
ATOM     21  C   UNL     1       2.412   1.476  -0.543  0.00  0.00    +0.002 A 
ATOM     22  C   UNL     1       2.407   0.112  -0.319  0.00  0.00    -0.059 A 
ATOM     23  C   UNL     1       1.208  -0.567  -0.215  0.00  0.00    +0.002 A 
ATOM     24  C   UNL     1       0.013   0.117  -0.338  0.00  0.00    +0.000 A 
ENDBRANCH  18  22
BRANCH  18  25
ATOM     25  N   UNL     1       3.604  -1.927  -0.879  0.00  0.00    +0.385 N 
ATOM     26  C   UNL     1       3.482  -1.716  -2.344  0.00  0.00    -0.078 C 
ATOM     27  C   UNL     1       3.944  -3.071  -2.937  0.00  0.00    -0.020 C 
ATOM     28  C   UNL     1       5.095  -3.487  -1.993  0.00  0.00    -0.020 C 
ATOM     29  C   UNL     1       4.844  -2.710  -0.687  0.00  0.00    -0.078 C 
ATOM     30  H   UNL     1       2.810  -2.443  -0.533  0.00  0.00    -0.081 HD
ENDBRANCH  18  25
ENDBRANCH  17  18
ENDBRANCH   1  17
TORSDOF 7
