REMARK  Name = ZINC46253738
REMARK  9 active torsions:
REMARK  status: ('A' for Active; 'I' for Inactive)
REMARK    1  A    between atoms: C_1  and  C_2
REMARK    2  A    between atoms: N_5  and  C_8
REMARK    3  A    between atoms: C_8  and  C_10
REMARK    4  A    between atoms: C_8  and  C_24
REMARK    5  A    between atoms: C_10  and  N_11
REMARK    6  A    between atoms: N_17  and  S_20
REMARK    7  A    between atoms: S_20  and  C_23
REMARK    8  A    between atoms: C_24  and  C_25
REMARK    9  A    between atoms: C_24  and  C_26
REMARK                            x       y       z     vdW  Elec       q    Type
REMARK                         _______ _______ _______ _____ _____    ______ ____
ROOT
ATOM      1  N   UNL     1      -2.842  -3.880   0.378  0.00  0.00    -0.301 N 
ATOM      2  C   UNL     1      -4.127  -4.230   0.174  0.00  0.00    +0.302 C 
ATOM      3  O   UNL     1      -4.730  -4.857   1.024  0.00  0.00    -0.253 OA
ATOM      4  N   UNL     1      -4.745  -3.884  -0.973  0.00  0.00    -0.283 N 
ATOM      5  C   UNL     1      -3.993  -3.256  -2.068  0.00  0.00    +0.126 C 
ATOM      6  C   UNL     1      -4.194  -4.088  -3.341  0.00  0.00    +0.128 C 
ATOM      7  N   UNL     1      -5.632  -4.332  -3.519  0.00  0.00    -0.178 NA
ATOM      8  C   UNL     1      -6.385  -4.961  -2.424  0.00  0.00    +0.128 C 
ATOM      9  C   UNL     1      -6.182  -4.134  -1.154  0.00  0.00    +0.126 C 
ATOM     10  H   UNL     1      -2.385  -3.313  -0.263  0.00  0.00    +0.150 HD
ENDROOT
BRANCH   7  11
ATOM     11  S   UNL     1      -6.391  -3.908  -4.929  0.00  0.00    +0.029 S 
ATOM     12  O   UNL     1      -7.747  -3.697  -4.561  0.00  0.00    -0.158 OA
ATOM     13  O   UNL     1      -5.610  -2.844  -5.455  0.00  0.00    -0.158 OA
ATOM     14  C   UNL     1      -6.253  -5.371  -5.992  0.00  0.00    +0.215 C 
ENDBRANCH   7  11
BRANCH   1  15
ATOM     15  C   UNL     1      -2.134  -4.357   1.569  0.00  0.00    +0.091 C 
BRANCH  15  16
ATOM     16  C   UNL     1      -0.767  -3.676   1.656  0.00  0.00    -0.048 C 
BRANCH  16  21
ATOM     17  C   UNL     1      -2.608   1.605   2.768  0.00  0.00    +0.007 C 
ATOM     18  C   UNL     1      -2.553   0.114   2.429  0.00  0.00    -0.018 C 
ATOM     19  C   UNL     1      -1.876  -0.646   3.573  0.00  0.00    -0.016 C 
ATOM     20  C   UNL     1      -1.752  -2.123   3.193  0.00  0.00    -0.078 C 
ATOM     21  N   UNL     1      -0.947  -2.253   1.973  0.00  0.00    +0.383 N 
ATOM     22  C   UNL     1      -1.627  -1.587   0.855  0.00  0.00    -0.078 C 
ATOM     23  C   UNL     1      -1.745  -0.089   1.144  0.00  0.00    -0.016 C 
ATOM     24  H   UNL     1      -0.045  -1.826   2.119  0.00  0.00    -0.081 HD
ENDBRANCH  16  21
BRANCH  16  25
ATOM     25  C   UNL     1       0.065  -4.341   2.755  0.00  0.00    -0.029 C 
ATOM     26  C   UNL     1       0.360  -5.791   2.364  0.00  0.00    +0.005 C 
ATOM     27  C   UNL     1       1.382  -3.582   2.928  0.00  0.00    +0.005 C 
ENDBRANCH  16  25
ENDBRANCH  15  16
ENDBRANCH   1  15
TORSDOF 5
