REMARK  Name = ZINC65441803
REMARK  6 active torsions:
REMARK  status: ('A' for Active; 'I' for Inactive)
REMARK    1  A    between atoms: C_1  and  C_2
REMARK    2  A    between atoms: C_2  and  C_3
REMARK    3  A    between atoms: C_2  and  N_4
REMARK    4  A    between atoms: C_7  and  C_9
REMARK    5  A    between atoms: C_9  and  N_10
REMARK    6  A    between atoms: C_19  and  C_21
REMARK                            x       y       z     vdW  Elec       q    Type
REMARK                         _______ _______ _______ _____ _____    ______ ____
ROOT
ATOM      1  N   UNL     1       1.667  -3.945   4.315  0.00  0.00    -0.299 N 
ATOM      2  C   UNL     1       2.643  -4.651   4.918  0.00  0.00    +0.302 C 
ATOM      3  O   UNL     1       3.589  -5.056   4.270  0.00  0.00    -0.253 OA
ATOM      4  N   UNL     1       2.572  -4.908   6.239  0.00  0.00    -0.283 N 
ATOM      5  C   UNL     1       1.380  -4.530   7.011  0.00  0.00    +0.128 C 
ATOM      6  C   UNL     1       0.840  -5.777   7.721  0.00  0.00    +0.127 C 
ATOM      7  N   UNL     1       1.952  -6.442   8.415  0.00  0.00    -0.291 N 
ATOM      8  C   UNL     1       3.143  -6.821   7.643  0.00  0.00    +0.127 C 
ATOM      9  C   UNL     1       3.682  -5.578   6.932  0.00  0.00    +0.128 C 
ATOM     10  C   UNL     1       1.880  -6.699   9.736  0.00  0.00    +0.302 C 
ATOM     11  O   UNL     1       0.857  -6.465  10.345  0.00  0.00    -0.265 OA
ATOM     12  H   UNL     1       0.878  -3.683   4.816  0.00  0.00    +0.150 HD
ENDROOT
BRANCH  10  13
ATOM     13  C   UNL     1       3.061  -7.272  10.451  0.00  0.00    +0.302 C 
ATOM     14  O   UNL     1       3.938  -6.539  10.857  0.00  0.00    -0.265 OA
ATOM     15  N   UNL     1       3.151  -8.603  10.644  0.00  0.00    -0.289 N 
ATOM     16  C   UNL     1       2.161  -9.522  10.061  0.00  0.00    +0.136 C 
ATOM     17  C   UNL     1       2.912 -10.633   9.318  0.00  0.00    +0.179 C 
ATOM     18  O   UNL     1       3.879 -11.215  10.195  0.00  0.00    -0.377 OA
ATOM     19  C   UNL     1       4.893 -10.307  10.635  0.00  0.00    +0.179 C 
ATOM     20  C   UNL     1       4.246  -9.180  11.440  0.00  0.00    +0.136 C 
ENDBRANCH  10  13
BRANCH   1  21
ATOM     21  C   UNL     1       1.797  -3.571   2.905  0.00  0.00    +0.107 C 
BRANCH  21  25
ATOM     22  N   UNL     1       0.681  -0.949   0.881  0.00  0.00    +0.381 N 
ATOM     23  C   UNL     1       0.005  -0.452   2.107  0.00  0.00    -0.078 C 
ATOM     24  C   UNL     1       0.508  -1.422   3.206  0.00  0.00    -0.015 C 
ATOM     25  C   UNL     1       0.561  -2.781   2.470  0.00  0.00    -0.012 C 
ATOM     26  C   UNL     1       0.652  -2.425   0.975  0.00  0.00    -0.074 C 
ATOM     27  H   UNL     1       1.634  -0.620   0.851  0.00  0.00    -0.081 HD
BRANCH  22  29
ATOM     28  C   UNL     1      -0.009   1.024  -0.396  0.00  0.00    -0.014 C 
ATOM     29  C   UNL     1      -0.048  -0.503  -0.314  0.00  0.00    -0.075 C 
ATOM     30  C   UNL     1       0.608  -1.098  -1.562  0.00  0.00    -0.014 C 
ENDBRANCH  22  29
ENDBRANCH  21  25
ENDBRANCH   1  21
TORSDOF 4
