REMARK  Name = ZINC38710105
REMARK  3 active torsions:
REMARK  status: ('A' for Active; 'I' for Inactive)
REMARK    1  A    between atoms: C_1  and  C_2
REMARK    2  A    between atoms: C_3  and  C_10
REMARK    3  A    between atoms: C_13  and  C_25
REMARK                            x       y       z     vdW  Elec       q    Type
REMARK                         _______ _______ _______ _____ _____    ______ ____
ROOT
ATOM      1  C   UNL     1       0.213  -0.320  -2.518  0.00  0.00    +0.108 C 
ATOM      2  C   UNL     1       1.513   0.412  -2.732  0.00  0.00    +0.010 C 
ATOM      3  C   UNL     1       2.654   0.075  -3.285  0.00  0.00    +0.064 C 
ATOM      4  N   UNL     1       3.488   1.145  -3.337  0.00  0.00    -0.157 NA
ATOM      5  N   UNL     1       3.030   2.178  -2.831  0.00  0.00    -0.160 NA
ATOM      6  C   UNL     1       1.708   1.862  -2.285  0.00  0.00    +0.241 C 
ATOM      7  N   UNL     1       0.636   2.627  -2.945  0.00  0.00    -0.318 N 
ATOM      8  C   UNL     1      -0.598   2.031  -3.003  0.00  0.00    +0.055 C 
ATOM      9  C   UNL     1      -0.865   0.709  -2.824  0.00  0.00    +0.070 C 
ATOM     10  C   UNL     1      -2.240   0.477  -2.963  0.00  0.00    +0.338 C 
ATOM     11  O   UNL     1      -2.770  -0.613  -2.856  0.00  0.00    -0.245 OA
ATOM     12  O   UNL     1      -2.896   1.624  -3.232  0.00  0.00    -0.455 OA
ATOM     13  C   UNL     1      -1.923   2.693  -3.277  0.00  0.00    +0.283 C 
ATOM     14  C   UNL     1       2.991  -1.305  -3.790  0.00  0.00    +0.067 C 
ATOM     15  H   UNL     1       0.795   3.507  -3.320  0.00  0.00    +0.148 HD
ENDROOT
BRANCH   1  18
ATOM     16  C   UNL     1       0.072  -3.281  -1.567  0.00  0.00    +0.067 C 
ATOM     17  C   UNL     1       0.042  -2.066  -0.678  0.00  0.00    +0.062 A 
ATOM     18  C   UNL     1       0.103  -0.789  -1.090  0.00  0.00    +0.058 A 
ATOM     19  N   UNL     1       0.045   0.024   0.039  0.00  0.00    -0.296 N 
ATOM     20  C   UNL     1       0.059   1.369   0.340  0.00  0.00    +0.100 A 
ATOM     21  C   UNL     1      -0.017   1.786   1.602  0.00  0.00    +0.067 A 
ATOM     22  S   UNL     1      -0.118   0.243   2.495  0.00  0.00    -0.058 S 
ATOM     23  C   UNL     1      -0.049  -0.846   1.092  0.00  0.00    +0.178 A 
ATOM     24  N   UNL     1      -0.055  -2.074   0.660  0.00  0.00    -0.226 NA
ENDBRANCH   1  18
TORSDOF 1
