REMARK  Name = ZINC36586868
REMARK  15 active torsions:
REMARK  status: ('A' for Active; 'I' for Inactive)
REMARK    1  A    between atoms: C_1  and  C_2
REMARK    2  A    between atoms: C_5  and  S_8
REMARK    3  A    between atoms: S_8  and  C_11
REMARK    4  A    between atoms: C_11  and  N_12
REMARK    5  A    between atoms: C_13  and  C_15
REMARK    6  A    between atoms: C_15  and  C_17
REMARK    7  A    between atoms: C_15  and  N_24
REMARK    8  A    between atoms: C_21  and  O_23
REMARK    9  A    between atoms: N_24  and  C_35
REMARK   10  A    between atoms: C_25  and  C_27
REMARK   11  A    between atoms: C_31  and  O_34
REMARK   12  A    between atoms: C_32  and  O_33
REMARK   13  A    between atoms: C_35  and  C_36
REMARK   14  A    between atoms: C_35  and  C_37
REMARK   15  A    between atoms: C_35  and  C_38
REMARK                            x       y       z     vdW  Elec       q    Type
REMARK                         _______ _______ _______ _____ _____    ______ ____
ROOT
ATOM      1  C   UNL     1       4.632  -9.826   4.566  0.00  0.00    +0.193 C 
ENDROOT
BRANCH   1   2
ATOM      2  C   UNL     1       4.723 -11.323   4.713  0.00  0.00    -0.015 A 
ATOM      3  C   UNL     1       3.650 -12.034   5.219  0.00  0.00    +0.006 A 
ATOM      4  C   UNL     1       3.730 -13.408   5.356  0.00  0.00    +0.004 A 
ATOM      5  C   UNL     1       4.883 -14.073   4.987  0.00  0.00    +0.045 A 
ATOM      6  C   UNL     1       5.961 -13.363   4.479  0.00  0.00    +0.117 A 
ATOM      7  C   UNL     1       5.875 -11.985   4.337  0.00  0.00    +0.051 A 
BRANCH   6   8
ATOM      8  O   UNL     1       7.096 -14.015   4.115  0.00  0.00    -0.507 OA
ATOM      9  H   UNL     1       7.105 -14.304   3.193  0.00  0.00    +0.292 HD
ENDBRANCH   6   8
ENDBRANCH   1   2
BRANCH   1  11
ATOM     10  N   UNL     1       5.854  -9.691   2.419  0.00  0.00    -0.294 N 
ATOM     11  C   UNL     1       4.718  -9.459   3.107  0.00  0.00    +0.239 C 
ATOM     12  O   UNL     1       3.765  -8.955   2.551  0.00  0.00    -0.273 OA
ATOM     13  H   UNL     1       6.616 -10.095   2.864  0.00  0.00    +0.150 HD
BRANCH  10  14
ATOM     14  C   UNL     1       5.938  -9.334   1.001  0.00  0.00    +0.278 C 
BRANCH  14  15
ATOM     15  S   UNL     1       6.685  -7.690   0.835  0.00  0.00    +0.013 S 
ATOM     16  O   UNL     1       6.075  -6.781   1.740  0.00  0.00    -0.168 OA
ATOM     17  O   UNL     1       6.832  -7.355  -0.539  0.00  0.00    -0.168 OA
BRANCH  15  22
ATOM     18  C   UNL     1      12.328  -8.333   2.871  0.00  0.00    +0.044 C 
ATOM     19  C   UNL     1      10.919  -8.173   2.362  0.00  0.00    -0.050 A 
ATOM     20  C   UNL     1      10.639  -8.379   1.024  0.00  0.00    +0.005 A 
ATOM     21  C   UNL     1       9.346  -8.231   0.558  0.00  0.00    +0.027 A 
ATOM     22  C   UNL     1       8.333  -7.879   1.429  0.00  0.00    +0.090 A 
ATOM     23  C   UNL     1       8.612  -7.674   2.768  0.00  0.00    +0.027 A 
ATOM     24  C   UNL     1       9.904  -7.825   3.235  0.00  0.00    +0.005 A 
ENDBRANCH  15  22
ENDBRANCH  14  15
ENDBRANCH  10  14
ENDBRANCH   1  11
BRANCH   1  25
ATOM     25  N   UNL     1       3.356  -9.359   5.112  0.00  0.00    -0.277 N 
ATOM     26  C   UNL     1       2.204  -9.951   4.737  0.00  0.00    +0.252 C 
ATOM     27  O   UNL     1       2.156 -10.585   3.701  0.00  0.00    -0.270 OA
BRANCH  26  28
ATOM     28  C   UNL     1       1.002  -9.829   5.585  0.00  0.00    +0.082 A 
ATOM     29  C   UNL     1       0.511  -8.567   5.929  0.00  0.00    +0.017 A 
ATOM     30  C   UNL     1      -0.612  -8.457   6.720  0.00  0.00    +0.005 A 
ATOM     31  C   UNL     1      -1.259  -9.593   7.177  0.00  0.00    +0.049 A 
ATOM     32  C   UNL     1      -0.784 -10.850   6.845  0.00  0.00    +0.159 A 
ATOM     33  C   UNL     1       0.345 -10.977   6.042  0.00  0.00    +0.171 A 
BRANCH  33  34
ATOM     34  O   UNL     1       0.811 -12.208   5.709  0.00  0.00    -0.503 OA
ATOM     35  H   UNL     1       1.454 -12.568   6.334  0.00  0.00    +0.292 HD
ENDBRANCH  33  34
BRANCH  32  36
ATOM     36  O   UNL     1      -1.425 -11.961   7.298  0.00  0.00    -0.503 OA
ATOM     37  H   UNL     1      -2.119 -12.284   6.707  0.00  0.00    +0.292 HD
ENDBRANCH  32  36
ENDBRANCH  26  28
BRANCH  25  38
ATOM     38  C   UNL     1       3.331  -8.247   6.066  0.00  0.00    +0.030 C 
ATOM     39  C   UNL     1       4.724  -8.064   6.672  0.00  0.00    +0.031 C 
ATOM     40  C   UNL     1       2.916  -6.964   5.344  0.00  0.00    +0.031 C 
ATOM     41  C   UNL     1       2.327  -8.553   7.180  0.00  0.00    +0.031 C 
ENDBRANCH  25  38
ENDBRANCH   1  25
TORSDOF 11
