REMARK  Name = ZINC14128642
REMARK  7 active torsions:
REMARK  status: ('A' for Active; 'I' for Inactive)
REMARK    1  A    between atoms: C_3  and  N_11
REMARK    2  A    between atoms: C_6  and  C_7
REMARK    3  A    between atoms: C_14  and  C_17
REMARK    4  A    between atoms: C_17  and  O_19
REMARK    5  A    between atoms: O_19  and  C_20
REMARK    6  A    between atoms: C_20  and  C_21
REMARK    7  A    between atoms: N_26  and  C_27
REMARK                            x       y       z     vdW  Elec       q    Type
REMARK                         _______ _______ _______ _____ _____    ______ ____
ROOT
ATOM      1  O   UNL     1      -5.320   3.127   9.084  0.00  0.00    -0.455 OA
ENDROOT
BRANCH   1   2
ATOM      2  C   UNL     1      -5.368   3.731   7.886  0.00  0.00    +0.311 C 
ATOM      3  O   UNL     1      -5.935   4.792   7.767  0.00  0.00    -0.251 OA
BRANCH   2   7
ATOM      4  N   UNL     1      -2.769   3.205   4.561  0.00  0.00    -0.315 N 
ATOM      5  C   UNL     1      -2.551   2.320   5.712  0.00  0.00    +0.107 C 
ATOM      6  C   UNL     1      -3.216   2.919   6.953  0.00  0.00    +0.033 C 
ATOM      7  C   UNL     1      -4.716   3.086   6.691  0.00  0.00    +0.101 C 
ATOM      8  C   UNL     1      -4.915   3.974   5.459  0.00  0.00    +0.033 C 
ATOM      9  C   UNL     1      -4.200   3.343   4.262  0.00  0.00    +0.107 C 
BRANCH   4  12
ATOM     10  C   UNL     1      -0.007   2.118   2.416  0.00  0.00    +0.017 A 
ATOM     11  C   UNL     1      -0.693   2.563   3.532  0.00  0.00    +0.044 A 
ATOM     12  C   UNL     1      -2.068   2.757   3.448  0.00  0.00    +0.121 A 
ATOM     13  N   UNL     1      -2.714   2.520   2.317  0.00  0.00    -0.240 NA
ATOM     14  C   UNL     1      -2.085   2.100   1.236  0.00  0.00    +0.125 A 
ATOM     15  C   UNL     1      -0.722   1.881   1.250  0.00  0.00    +0.073 A 
BRANCH  15  16
ATOM     16  C   UNL     1      -0.017   1.395   0.010  0.00  0.00    +0.419 C 
ATOM     17  F   UNL     1       0.002  -0.004   0.002  0.00  0.00    -0.166 F 
ATOM     18  F   UNL     1       1.296   1.879  -0.000  0.00  0.00    -0.166 F 
ATOM     19  F   UNL     1      -0.694   1.858  -1.124  0.00  0.00    -0.166 F 
ENDBRANCH  15  16
ENDBRANCH   4  12
ENDBRANCH   2   7
ENDBRANCH   1   2
BRANCH   1  20
ATOM     20  C   UNL     1      -5.970   3.806  10.191  0.00  0.00    +0.328 C 
BRANCH  20  21
ATOM     21  C   UNL     1      -5.814   2.985  11.445  0.00  0.00    +0.258 C 
ATOM     22  O   UNL     1      -5.214   1.932  11.410  0.00  0.00    -0.272 OA
ATOM     23  N   UNL     1      -6.341   3.422  12.607  0.00  0.00    -0.237 N 
ATOM     24  C   UNL     1      -6.201   2.688  13.728  0.00  0.00    +0.306 C 
ATOM     25  O   UNL     1      -5.599   1.632  13.693  0.00  0.00    -0.252 OA
ATOM     26  N   UNL     1      -6.728   3.124  14.889  0.00  0.00    -0.294 N 
ATOM     27  H   UNL     1      -6.885   4.377  12.639  0.00  0.00    +0.159 HD
ATOM     28  H   UNL     1      -7.272   4.079  14.921  0.00  0.00    +0.151 HD
BRANCH  26  29
ATOM     29  C   UNL     1      -6.576   2.326  16.108  0.00  0.00    +0.037 C 
ATOM     30  C   UNL     1      -7.219   0.953  15.903  0.00  0.00    +0.029 C 
ATOM     31  C   UNL     1      -7.060   0.120  17.176  0.00  0.00    -0.008 C 
ATOM     32  C   UNL     1      -7.745   0.835  18.343  0.00  0.00    +0.007 C 
ATOM     33  C   UNL     1      -7.102   2.208  18.548  0.00  0.00    -0.008 C 
ATOM     34  C   UNL     1      -7.261   3.041  17.275  0.00  0.00    +0.029 C 
ATOM     35  C   UNL     1      -5.614   2.032  18.860  0.00  0.00    +0.007 C 
ATOM     36  C   UNL     1      -4.929   1.317  17.694  0.00  0.00    -0.008 C 
ATOM     37  C   UNL     1      -5.573  -0.056  17.489  0.00  0.00    +0.007 C 
ATOM     38  C   UNL     1      -5.088   2.150  16.421  0.00  0.00    +0.029 C 
ENDBRANCH  26  29
ENDBRANCH  20  21
ENDBRANCH   1  20
TORSDOF 7
