REMARK  Name = ZINC63730269
REMARK  11 active torsions:
REMARK  status: ('A' for Active; 'I' for Inactive)
REMARK    1  A    between atoms: C_1  and  C_2
REMARK    2  A    between atoms: C_5  and  C_13
REMARK    3  A    between atoms: C_11  and  C_12
REMARK    4  A    between atoms: C_17  and  S_26
REMARK    5  A    between atoms: N_18  and  C_19
REMARK    6  A    between atoms: C_19  and  C_20
REMARK    7  A    between atoms: S_26  and  C_27
REMARK    8  A    between atoms: C_27  and  C_28
REMARK    9  A    between atoms: N_30  and  C_31
REMARK   10  A    between atoms: C_34  and  C_37
REMARK   11  A    between atoms: C_37  and  C_39
REMARK                            x       y       z     vdW  Elec       q    Type
REMARK                         _______ _______ _______ _____ _____    ______ ____
ROOT
ATOM      1  C   UNL     1      -4.629  -1.388  -1.095  0.00  0.00    +0.208 C 
ATOM      2  N   UNL     1      -4.935  -1.474  -2.534  0.00  0.00    -0.242 N 
ATOM      3  N   UNL     1      -5.754  -2.598  -2.692  0.00  0.00    -0.162 NA
ATOM      4  C   UNL     1      -5.975  -3.184  -1.564  0.00  0.00    +0.176 C 
ATOM      5  N   UNL     1      -5.341  -2.537  -0.510  0.00  0.00    -0.281 N 
ATOM      6  H   UNL     1      -4.630  -0.872  -3.231  0.00  0.00    +0.170 HD
ENDROOT
BRANCH   1  11
ATOM      7  C   UNL     1      -0.049   1.541   0.002  0.00  0.00    +0.046 C 
ATOM      8  C   UNL     1      -0.019   0.034  -0.013  0.00  0.00    -0.024 C 
ATOM      9  C   UNL     1      -1.098  -0.758  -0.010  0.00  0.00    -0.014 C 
ATOM     10  C   UNL     1      -2.475  -0.523  -0.192  0.00  0.00    +0.013 C 
ATOM     11  C   UNL     1      -3.145  -1.510  -0.861  0.00  0.00    -0.008 C 
ATOM     12  C   UNL     1      -2.424  -2.682  -1.350  0.00  0.00    +0.005 C 
ATOM     13  C   UNL     1      -1.203  -3.014  -0.916  0.00  0.00    +0.004 C 
ATOM     14  C   UNL     1      -0.560  -2.175   0.150  0.00  0.00    +0.159 C 
ATOM     15  N   UNL     1       0.883  -2.030   0.024  0.00  0.00    -0.276 NA
ATOM     16  C   UNL     1       1.151  -0.757  -0.038  0.00  0.00    +0.037 C 
ATOM     17  C   UNL     1       2.546  -0.193  -0.122  0.00  0.00    +0.065 C 
ENDBRANCH   1  11
BRANCH   5  18
ATOM     18  C   UNL     1      -5.372  -2.919   0.904  0.00  0.00    +0.144 C 
BRANCH  18  19
ATOM     19  C   UNL     1      -6.533  -2.239   1.583  0.00  0.00    -0.030 A 
ATOM     20  C   UNL     1      -6.364  -0.993   2.157  0.00  0.00    +0.005 A 
ATOM     21  C   UNL     1      -7.429  -0.369   2.780  0.00  0.00    +0.000 A 
ATOM     22  C   UNL     1      -8.663  -0.991   2.828  0.00  0.00    +0.000 A 
ATOM     23  C   UNL     1      -8.832  -2.237   2.253  0.00  0.00    +0.000 A 
ATOM     24  C   UNL     1      -7.768  -2.859   1.627  0.00  0.00    +0.005 A 
ENDBRANCH  18  19
ENDBRANCH   5  18
BRANCH   4  25
ATOM     25  S   UNL     1      -6.963  -4.631  -1.380  0.00  0.00    -0.080 S 
BRANCH  25  26
ATOM     26  C   UNL     1      -7.513  -5.005  -3.068  0.00  0.00    +0.173 C 
BRANCH  26  27
ATOM     27  C   UNL     1      -8.379  -6.237  -3.054  0.00  0.00    +0.227 C 
ATOM     28  O   UNL     1      -8.603  -6.809  -2.007  0.00  0.00    -0.275 OA
ATOM     29  N   UNL     1      -8.904  -6.706  -4.203  0.00  0.00    -0.285 N 
ATOM     30  H   UNL     1      -8.780  -6.213  -5.029  0.00  0.00    +0.155 HD
BRANCH  29  31
ATOM     31  C   UNL     1      -9.625  -7.898  -4.205  0.00  0.00    +0.033 A 
ATOM     32  C   UNL     1      -9.544  -8.757  -5.297  0.00  0.00    +0.024 A 
ATOM     33  C   UNL     1     -10.251  -9.931  -5.303  0.00  0.00    +0.013 A 
ATOM     34  C   UNL     1     -11.057 -10.266  -4.208  0.00  0.00    +0.017 A 
ATOM     35  C   UNL     1     -11.136  -9.399  -3.111  0.00  0.00    +0.013 A 
ATOM     36  C   UNL     1     -10.421  -8.229  -3.111  0.00  0.00    +0.024 A 
BRANCH  34  37
ATOM     37  C   UNL     1     -11.817 -11.522  -4.209  0.00  0.00    +0.160 C 
ATOM     38  O   UNL     1     -11.748 -12.272  -5.160  0.00  0.00    -0.292 OA
ATOM     39  C   UNL     1     -12.683 -11.880  -3.029  0.00  0.00    +0.091 C 
ENDBRANCH  34  37
ENDBRANCH  29  31
ENDBRANCH  26  27
ENDBRANCH  25  26
ENDBRANCH   4  25
TORSDOF 8
