REMARK  Name = ZINC12041784
REMARK  12 active torsions:
REMARK  status: ('A' for Active; 'I' for Inactive)
REMARK    1  A    between atoms: C_1  and  N_2
REMARK    2  A    between atoms: N_2  and  C_3
REMARK    3  A    between atoms: C_3  and  C_5
REMARK    4  A    between atoms: C_3  and  C_13
REMARK    5  A    between atoms: C_5  and  C_6
REMARK    6  A    between atoms: C_18  and  C_19
REMARK    7  A    between atoms: C_18  and  N_68
REMARK    8  A    between atoms: C_20  and  O_27
REMARK    9  A    between atoms: C_24  and  O_25
REMARK   10  A    between atoms: O_25  and  C_26
REMARK   11  A    between atoms: O_27  and  C_28
REMARK   12  A    between atoms: C_29  and  C_31
REMARK                            x       y       z     vdW  Elec       q    Type
REMARK                         _______ _______ _______ _____ _____    ______ ____
ROOT
ATOM      1  C   UNL     1      -0.007  -0.076  -0.160  0.00  0.00    +0.083 C 
ENDROOT
BRANCH   1   2
ATOM      2  C   UNL     1       0.003   1.424   0.144  0.00  0.00    +0.006 C 
ATOM      3  C   UNL     1      -0.587   2.190  -1.043  0.00  0.00    -0.013 C 
ATOM      4  C   UNL     1      -0.519   3.692  -0.758  0.00  0.00    -0.078 C 
ATOM      5  C   UNL     1       1.451   3.400   0.622  0.00  0.00    -0.078 C 
ATOM      6  C   UNL     1       1.442   1.889   0.379  0.00  0.00    -0.013 C 
ATOM      7  N   UNL     1       0.895   4.081  -0.566  0.00  0.00    +0.383 N 
ATOM      8  H   UNL     1       1.433   3.799  -1.394  0.00  0.00    -0.081 HD
BRANCH   7   9
ATOM      9  C   UNL     1       0.998   5.546  -0.403  0.00  0.00    -0.036 C 
BRANCH   9  10
ATOM     10  C   UNL     1       0.191   6.221  -1.482  0.00  0.00    +0.019 A 
ATOM     11  C   UNL     1       0.779   6.527  -2.700  0.00  0.00    +0.125 A 
ATOM     12  C   UNL     1       0.032   7.144  -3.694  0.00  0.00    +0.046 A 
ATOM     13  C   UNL     1      -1.293   7.462  -3.467  0.00  0.00    +0.007 A 
ATOM     14  C   UNL     1      -1.880   7.162  -2.253  0.00  0.00    +0.046 A 
ATOM     15  C   UNL     1      -1.139   6.541  -1.258  0.00  0.00    +0.125 A 
BRANCH  15  16
ATOM     16  O   UNL     1      -1.717   6.246  -0.063  0.00  0.00    -0.495 OA
ATOM     17  C   UNL     1      -3.091   6.605   0.099  0.00  0.00    +0.277 C 
ENDBRANCH  15  16
BRANCH  11  18
ATOM     18  O   UNL     1       2.084   6.220  -2.921  0.00  0.00    -0.495 OA
ATOM     19  C   UNL     1       2.624   6.565  -4.199  0.00  0.00    +0.277 C 
ENDBRANCH  11  18
ENDBRANCH   9  10
ENDBRANCH   7   9
ENDBRANCH   1   2
BRANCH   1  21
ATOM     20  C   UNL     1       0.614   0.198  -2.605  0.00  0.00    +0.132 C 
ATOM     21  N   UNL     1       0.899  -0.353  -1.277  0.00  0.00    -0.294 N 
ATOM     22  C   UNL     1       1.994  -1.115  -1.085  0.00  0.00    +0.282 C 
ATOM     23  O   UNL     1       2.807  -1.249  -1.980  0.00  0.00    -0.267 OA
BRANCH  22  24
ATOM     24  C   UNL     1       2.205  -1.783   0.204  0.00  0.00    +0.189 A 
ATOM     25  C   UNL     1       3.327  -2.463   0.581  0.00  0.00    +0.054 A 
ATOM     26  C   UNL     1       3.095  -2.934   1.883  0.00  0.00    +0.042 A 
ATOM     27  C   UNL     1       1.857  -2.527   2.238  0.00  0.00    +0.196 A 
ATOM     28  O   UNL     1       1.326  -1.829   1.226  0.00  0.00    -0.458 OA
ENDBRANCH  22  24
ENDBRANCH   1  21
BRANCH   1  29
ATOM     29  C   UNL     1      -1.425  -0.512  -0.532  0.00  0.00    +0.059 C 
BRANCH  29  30
ATOM     30  C   UNL     1      -1.468  -2.011  -0.678  0.00  0.00    -0.027 A 
ATOM     31  C   UNL     1      -1.323  -2.589  -1.926  0.00  0.00    +0.005 A 
ATOM     32  C   UNL     1      -1.358  -3.964  -2.059  0.00  0.00    +0.000 A 
ATOM     33  C   UNL     1      -1.546  -4.763  -0.947  0.00  0.00    +0.001 A 
ATOM     34  C   UNL     1      -1.696  -4.186   0.301  0.00  0.00    +0.020 A 
ATOM     35  C   UNL     1      -1.657  -2.810   0.436  0.00  0.00    +0.044 A 
ATOM     36 CL   UNL     1      -1.846  -2.085   2.002  0.00  0.00    -0.083 Cl
ENDBRANCH  29  30
ENDBRANCH   1  29
TORSDOF 9
