REMARK  Name = ZINC39685929
REMARK  7 active torsions:
REMARK  status: ('A' for Active; 'I' for Inactive)
REMARK    1  A    between atoms: C_1  and  C_2
REMARK    2  A    between atoms: C_7  and  C_8
REMARK    3  A    between atoms: C_12  and  C_21
REMARK    4  A    between atoms: N_23  and  C_24
REMARK    5  A    between atoms: C_30  and  C_32
REMARK    6  A    between atoms: C_32  and  C_33
REMARK    7  A    between atoms: C_32  and  C_34
REMARK                            x       y       z     vdW  Elec       q    Type
REMARK                         _______ _______ _______ _____ _____    ______ ____
ROOT
ATOM      1  C   UNL     1      -0.641  -1.635   3.207  0.00  0.00    +0.247 C 
ATOM      2  O   UNL     1      -0.976  -0.488   3.432  0.00  0.00    -0.270 OA
ATOM      3  N   UNL     1      -0.292  -2.447   4.224  0.00  0.00    -0.296 N 
ATOM      4  C   UNL     1       0.248  -3.824   4.142  0.00  0.00    +0.121 C 
ATOM      5  C   UNL     1       1.324  -3.889   5.249  0.00  0.00    +0.100 C 
ATOM      6  C   UNL     1       0.918  -2.798   6.254  0.00  0.00    -0.004 C 
ATOM      7  C   UNL     1      -0.354  -2.161   5.677  0.00  0.00    +0.115 C 
ATOM      8  C   UNL     1       2.020  -1.749   6.369  0.00  0.00    -0.010 C 
ATOM      9  C   UNL     1       1.619  -0.706   7.416  0.00  0.00    -0.082 C 
ATOM     10  N   UNL     1       1.407  -1.366   8.710  0.00  0.00    +0.379 N 
ATOM     11  C   UNL     1       0.284  -2.307   8.615  0.00  0.00    -0.082 C 
ATOM     12  C   UNL     1       0.629  -3.417   7.618  0.00  0.00    -0.010 C 
ATOM     13  H   UNL     1       2.243  -1.867   8.971  0.00  0.00    -0.086 HD
ATOM     14  H   UNL     1       1.202  -0.670   9.411  0.00  0.00    -0.086 HD
ENDROOT
BRANCH   1  21
ATOM     15  C   UNL     1       0.392   0.048   1.093  0.00  0.00    +0.044 C 
ATOM     16  C   UNL     1      -0.121  -1.335   0.789  0.00  0.00    -0.038 A 
ATOM     17  C   UNL     1      -0.097  -1.814  -0.505  0.00  0.00    +0.004 A 
ATOM     18  C   UNL     1      -0.568  -3.084  -0.785  0.00  0.00    +0.000 A 
ATOM     19  C   UNL     1      -1.066  -3.883   0.229  0.00  0.00    +0.001 A 
ATOM     20  C   UNL     1      -1.096  -3.417   1.526  0.00  0.00    +0.013 A 
ATOM     21  C   UNL     1      -0.618  -2.138   1.817  0.00  0.00    +0.040 A 
ENDBRANCH   1  21
BRANCH   5  22
ATOM     22  C   UNL     1       2.686  -3.595   4.674  0.00  0.00    +0.218 C 
ATOM     23  O   UNL     1       2.790  -2.909   3.680  0.00  0.00    -0.275 OA
ATOM     24  N   UNL     1       3.789  -4.097   5.265  0.00  0.00    -0.312 N 
ATOM     25  H   UNL     1       3.706  -4.646   6.060  0.00  0.00    +0.149 HD
BRANCH  24  26
ATOM     26  C   UNL     1       5.113  -3.812   4.706  0.00  0.00    +0.076 C 
ATOM     27  C   UNL     1       5.426  -4.819   3.598  0.00  0.00    +0.041 C 
ATOM     28  C   UNL     1       6.796  -4.497   2.992  0.00  0.00    +0.109 C 
ATOM     29  N   UNL     1       7.792  -4.458   4.071  0.00  0.00    -0.301 N 
ATOM     30  C   UNL     1       7.545  -3.590   5.231  0.00  0.00    +0.109 C 
ATOM     31  C   UNL     1       6.167  -3.922   5.811  0.00  0.00    +0.041 C 
ATOM     32  C   UNL     1       8.911  -5.206   4.000  0.00  0.00    +0.218 C 
ATOM     33  O   UNL     1       9.153  -5.840   2.995  0.00  0.00    -0.275 OA
BRANCH  32  34
ATOM     34  C   UNL     1       9.862  -5.253   5.168  0.00  0.00    +0.069 C 
ATOM     35  C   UNL     1      10.943  -6.304   4.904  0.00  0.00    +0.017 C 
ATOM     36  C   UNL     1      10.517  -3.882   5.348  0.00  0.00    +0.017 C 
ENDBRANCH  32  34
ENDBRANCH  24  26
ENDBRANCH   5  22
TORSDOF 4
