REMARK  Name = ZINC16293179
REMARK  7 active torsions:
REMARK  status: ('A' for Active; 'I' for Inactive)
REMARK    1  A    between atoms: C_1  and  O_2
REMARK    2  A    between atoms: O_2  and  C_3
REMARK    3  A    between atoms: C_5  and  C_11
REMARK    4  A    between atoms: C_8  and  O_9
REMARK    5  A    between atoms: C_14  and  C_25
REMARK    6  A    between atoms: C_20  and  N_24
REMARK    7  A    between atoms: C_21  and  C_22
REMARK                            x       y       z     vdW  Elec       q    Type
REMARK                         _______ _______ _______ _____ _____    ______ ____
ROOT
ATOM      1  C   UNL     1      -4.687  -0.037  -0.043  0.00  0.00    +0.102 C 
ATOM      2  C   UNL     1      -5.558  -0.117  -1.270  0.00  0.00    +0.054 A 
ATOM      3  C   UNL     1      -5.361   0.451  -2.533  0.00  0.00    +0.102 A 
ATOM      4  N   UNL     1      -6.385   0.113  -3.294  0.00  0.00    -0.171 NA
ATOM      5  N   UNL     1      -7.259  -0.679  -2.533  0.00  0.00    -0.246 N 
ATOM      6  H   UNL     1      -8.093  -1.066  -2.842  0.00  0.00    +0.192 HD
ATOM      7  C   UNL     1      -6.735  -0.807  -1.296  0.00  0.00    +0.223 A 
ATOM      8  O   UNL     1      -7.216  -1.475  -0.218  0.00  0.00    -0.423 OA
ATOM      9  C   UNL     1      -6.645  -1.224   0.978  0.00  0.00    +0.200 C 
ATOM     10  C   UNL     1      -5.477  -0.561   1.131  0.00  0.00    +0.098 C 
ENDROOT
BRANCH   1  13
ATOM     11  C   UNL     1      -1.063  -1.078  -0.294  0.00  0.00    +0.163 A 
ATOM     12  C   UNL     1      -2.200  -0.306  -0.113  0.00  0.00    +0.054 A 
ATOM     13  C   UNL     1      -3.452  -0.878  -0.241  0.00  0.00    -0.030 A 
ATOM     14  C   UNL     1      -3.574  -2.221  -0.549  0.00  0.00    +0.023 A 
ATOM     15  C   UNL     1      -2.443  -2.997  -0.730  0.00  0.00    +0.063 A 
ATOM     16  C   UNL     1      -1.185  -2.427  -0.610  0.00  0.00    +0.173 A 
ATOM     17 BR   UNL     1      -2.614  -4.833  -1.150  0.00  0.00    -0.046 Br
BRANCH  11  19
ATOM     18  C   UNL     1       0.217   0.875   0.157  0.00  0.00    +0.277 C 
ATOM     19  O   UNL     1       0.169  -0.516  -0.169  0.00  0.00    -0.491 OA
ENDBRANCH  11  19
BRANCH  16  20
ATOM     20  O   UNL     1      -0.072  -3.187  -0.794  0.00  0.00    -0.503 OA
ATOM     21  H   UNL     1       0.254  -3.609   0.013  0.00  0.00    +0.292 HD
ENDBRANCH  16  20
ENDBRANCH   1  13
BRANCH   3  22
ATOM     22  C   UNL     1      -4.206   1.287  -2.944  0.00  0.00    +0.021 A 
ATOM     23  C   UNL     1      -3.778   2.337  -2.134  0.00  0.00    +0.011 A 
ATOM     24  C   UNL     1      -2.703   3.110  -2.521  0.00  0.00    +0.001 A 
ATOM     25  C   UNL     1      -2.049   2.845  -3.711  0.00  0.00    +0.001 A 
ATOM     26  C   UNL     1      -2.469   1.805  -4.520  0.00  0.00    +0.020 A 
ATOM     27  C   UNL     1      -3.540   1.020  -4.140  0.00  0.00    +0.050 A 
ATOM     28 CL   UNL     1      -4.062  -0.290  -5.152  0.00  0.00    -0.083 Cl
ENDBRANCH   3  22
BRANCH   9  29
ATOM     29  N   UNL     1      -7.289  -1.666   2.107  0.00  0.00    -0.328 N 
ATOM     30  H   UNL     1      -8.130  -2.144   2.030  0.00  0.00    +0.145 HD
ATOM     31  H   UNL     1      -6.904  -1.501   2.981  0.00  0.00    +0.145 HD
ENDBRANCH   9  29
BRANCH  10  32
ATOM     32  C   UNL     1      -4.970  -0.348   2.453  0.00  0.00    +0.101 C 
ATOM     33  N   UNL     1      -4.568  -0.180   3.502  0.00  0.00    -0.191 NA
ENDBRANCH  10  32
TORSDOF 6
