REMARK  Name = ZINC39466238
REMARK  6 active torsions:
REMARK  status: ('A' for Active; 'I' for Inactive)
REMARK    1  A    between atoms: C_1  and  C_2
REMARK    2  A    between atoms: C_2  and  C_3
REMARK    3  A    between atoms: C_2  and  S_4
REMARK    4  A    between atoms: S_4  and  P_7
REMARK    5  A    between atoms: C_16  and  C_23
REMARK    6  A    between atoms: C_28  and  O_29
REMARK                            x       y       z     vdW  Elec       q    Type
REMARK                         _______ _______ _______ _____ _____    ______ ____
ROOT
ATOM      1  P   UNL     1      -0.225   0.155   3.114  0.00  0.00    +0.419 P 
ATOM      2  O   UNL     1      -0.216   1.635   3.094  0.00  0.00    -0.246 OA
ATOM      3  N   UNL     1       0.409  -0.403   4.536  0.00  0.00    -0.161 NA
ATOM      4  N   UNL     1       0.067  -1.687   4.900  0.00  0.00    -0.224 NA
ATOM      5  C   UNL     1       0.692  -2.023   6.188  0.00  0.00    +0.108 C 
ATOM      6  C   UNL     1       0.584  -3.531   6.409  0.00  0.00    +0.052 C 
ATOM      7  C   UNL     1      -0.847  -3.969   6.227  0.00  0.00    -0.040 A 
ATOM      8  C   UNL     1      -1.235  -5.193   6.754  0.00  0.00    +0.024 A 
ATOM      9  C   UNL     1      -2.534  -5.635   6.613  0.00  0.00    +0.049 A 
ATOM     10  C   UNL     1      -3.462  -4.845   5.934  0.00  0.00    +0.004 A 
ATOM     11  C   UNL     1      -3.067  -3.620   5.407  0.00  0.00    +0.015 A 
ATOM     12  C   UNL     1      -1.759  -3.183   5.554  0.00  0.00    -0.023 A 
ATOM     13  C   UNL     1      -1.385  -1.849   4.965  0.00  0.00    +0.129 C 
ATOM     14  C   UNL     1      -2.016  -1.722   3.575  0.00  0.00    +0.195 C 
ATOM     15  O   UNL     1      -1.753  -0.398   3.068  0.00  0.00    -0.298 OA
ATOM     16 CL   UNL     1      -3.011  -7.168   7.275  0.00  0.00    -0.083 Cl
ATOM     17  H   UNL     1       0.991   0.145   5.085  0.00  0.00    +0.152 HD
ENDROOT
BRANCH  10  18
ATOM     18  C   UNL     1      -4.861  -5.309   5.774  0.00  0.00    +0.025 A 
ATOM     19  C   UNL     1      -5.363  -5.597   4.507  0.00  0.00    +0.012 A 
ATOM     20  C   UNL     1      -6.666  -6.029   4.363  0.00  0.00    +0.001 A 
ATOM     21  C   UNL     1      -7.477  -6.177   5.474  0.00  0.00    +0.004 A 
ATOM     22  C   UNL     1      -6.990  -5.894   6.736  0.00  0.00    +0.046 A 
ATOM     23  C   UNL     1      -5.681  -5.465   6.895  0.00  0.00    +0.125 A 
BRANCH  23  24
ATOM     24  O   UNL     1      -5.200  -5.193   8.136  0.00  0.00    -0.506 OA
ATOM     25  H   UNL     1      -5.329  -4.276   8.415  0.00  0.00    +0.292 HD
ENDBRANCH  23  24
ENDBRANCH  10  18
BRANCH   1  26
ATOM     26  S   UNL     1       0.879  -0.605   1.472  0.00  0.00    +0.058 S 
ATOM     27  O   UNL     1       0.754  -2.017   1.573  0.00  0.00    -0.164 OA
ATOM     28  O   UNL     1       2.152   0.018   1.571  0.00  0.00    -0.164 OA
BRANCH  26  30
ATOM     29  C   UNL     1      -0.019   1.526   0.010  0.00  0.00    +0.032 C 
ATOM     30  C   UNL     1       0.002  -0.004   0.002  0.00  0.00    +0.136 C 
ATOM     31  C   UNL     1       0.718  -0.497  -1.257  0.00  0.00    +0.032 C 
ENDBRANCH  26  30
ENDBRANCH   1  26
TORSDOF 4
