REMARK  Name = ZINC35314496
REMARK  4 active torsions:
REMARK  status: ('A' for Active; 'I' for Inactive)
REMARK    1  A    between atoms: C_3  and  C_6
REMARK    2  A    between atoms: C_9  and  C_27
REMARK    3  A    between atoms: C_15  and  C_17
REMARK    4  A    between atoms: N_19  and  C_20
REMARK                            x       y       z     vdW  Elec       q    Type
REMARK                         _______ _______ _______ _____ _____    ______ ____
ROOT
ATOM      1  C   UNL     1       3.633   0.632  -0.037  0.00  0.00    +0.149 C 
ATOM      2  C   UNL     1       4.111   0.384  -1.468  0.00  0.00    +0.065 C 
ATOM      3  C   UNL     1       3.602  -0.982  -1.955  0.00  0.00    +0.202 C 
ATOM      4  N   UNL     1       3.995  -1.975  -0.949  0.00  0.00    -0.226 N 
ATOM      5  C   UNL     1       4.236  -1.643   0.379  0.00  0.00    +0.114 C 
ATOM      6  N   UNL     1       4.098  -0.438   0.854  0.00  0.00    -0.362 N 
ATOM      7  C   UNL     1       4.640  -2.876   1.052  0.00  0.00    +0.072 C 
ATOM      8  C   UNL     1       4.603  -3.868   0.128  0.00  0.00    +0.110 C 
ATOM      9  N   UNL     1       4.202  -3.342  -1.090  0.00  0.00    -0.258 N 
ATOM     10  H   UNL     1       4.084  -3.848  -1.909  0.00  0.00    +0.170 HD
ATOM     11  H   UNL     1       4.300  -0.251   1.784  0.00  0.00    +0.162 HD
ENDROOT
BRANCH   1  14
ATOM     12  C   UNL     1       0.023   1.371   0.013  0.00  0.00    +0.041 A 
ATOM     13  C   UNL     1       1.373   1.791  -0.003  0.00  0.00    +0.047 A 
ATOM     14  C   UNL     1       2.127   0.677  -0.016  0.00  0.00    +0.127 A 
ATOM     15  O   UNL     1       1.310  -0.389  -0.009  0.00  0.00    -0.466 OA
ATOM     16  C   UNL     1       0.033   0.026   0.009  0.00  0.00    +0.195 A 
ENDBRANCH   1  14
BRANCH   8  17
ATOM     17  C   UNL     1       4.938  -5.286   0.380  0.00  0.00    +0.264 C 
ATOM     18  O   UNL     1       4.872  -6.096  -0.524  0.00  0.00    -0.268 OA
ATOM     19  N   UNL     1       5.317  -5.680   1.612  0.00  0.00    -0.280 N 
ATOM     20  H   UNL     1       5.435  -5.024   2.316  0.00  0.00    +0.155 HD
BRANCH  19  21
ATOM     21  C   UNL     1       5.541  -7.036   1.874  0.00  0.00    +0.034 A 
ATOM     22  C   UNL     1       5.213  -7.567   3.115  0.00  0.00    +0.026 A 
ATOM     23  C   UNL     1       5.434  -8.906   3.372  0.00  0.00    +0.040 A 
ATOM     24  C   UNL     1       5.984  -9.718   2.394  0.00  0.00    +0.124 A 
ATOM     25  C   UNL     1       6.312  -9.190   1.157  0.00  0.00    +0.040 A 
ATOM     26  C   UNL     1       6.087  -7.854   0.893  0.00  0.00    +0.026 A 
ATOM     27  F   UNL     1       6.199 -11.027   2.648  0.00  0.00    -0.205 F 
ENDBRANCH  19  21
ENDBRANCH   8  17
BRANCH   3  28
ATOM     28  C   UNL     1       4.238  -1.324  -3.304  0.00  0.00    +0.410 C 
ATOM     29  F   UNL     1       5.629  -1.373  -3.164  0.00  0.00    -0.169 F 
ATOM     30  F   UNL     1       3.769  -2.569  -3.738  0.00  0.00    -0.169 F 
ATOM     31  F   UNL     1       3.897  -0.344  -4.242  0.00  0.00    -0.169 F 
ENDBRANCH   3  28
TORSDOF 4
