REMARK  Name = ZINC40975238
REMARK  7 active torsions:
REMARK  status: ('A' for Active; 'I' for Inactive)
REMARK    1  A    between atoms: C_1  and  N_2
REMARK    2  A    between atoms: N_2  and  C_3
REMARK    3  A    between atoms: N_2  and  C_4
REMARK    4  A    between atoms: C_4  and  C_5
REMARK    5  A    between atoms: C_5  and  C_7
REMARK    6  A    between atoms: C_14  and  C_23
REMARK    7  A    between atoms: C_15  and  C_16
REMARK                            x       y       z     vdW  Elec       q    Type
REMARK                         _______ _______ _______ _____ _____    ______ ____
ROOT
ATOM      1  C   UNL     1      -2.772  -2.558  -0.111  0.00  0.00    -0.011 A 
ATOM      2  C   UNL     1      -3.533  -2.509   1.067  0.00  0.00    +0.024 A 
ATOM      3  C   UNL     1      -4.801  -2.976   1.077  0.00  0.00    +0.094 A 
ATOM      4  N   UNL     1      -5.357  -3.499  -0.051  0.00  0.00    -0.297 N 
ATOM      5  C   UNL     1      -4.641  -3.562  -1.216  0.00  0.00    +0.139 A 
ATOM      6  C   UNL     1      -3.319  -3.075  -1.246  0.00  0.00    +0.053 A 
ATOM      7  N   UNL     1      -5.402  -4.109  -2.157  0.00  0.00    -0.227 NA
ATOM      8  C   UNL     1      -6.600  -4.409  -1.647  0.00  0.00    +0.099 A 
ATOM      9  C   UNL     1      -6.601  -4.033  -0.308  0.00  0.00    +0.100 A 
ENDROOT
BRANCH   9  10
ATOM     10  C   UNL     1      -7.712  -4.176   0.645  0.00  0.00    +0.095 A 
ATOM     11  C   UNL     1      -7.463  -4.253   2.024  0.00  0.00    +0.050 A 
ATOM     12  C   UNL     1      -8.539  -4.387   2.879  0.00  0.00    +0.116 A 
ATOM     13  N   UNL     1      -9.765  -4.438   2.378  0.00  0.00    -0.223 NA
ATOM     14  C   UNL     1      -9.974  -4.364   1.071  0.00  0.00    +0.213 A 
ATOM     15  N   UNL     1      -8.975  -4.230   0.213  0.00  0.00    -0.213 NA
ATOM     16  N   UNL     1     -11.271  -4.421   0.592  0.00  0.00    -0.327 N 
ATOM     17  H   UNL     1     -12.012  -4.516   1.209  0.00  0.00    +0.145 HD
ATOM     18  H   UNL     1     -11.438  -4.368  -0.362  0.00  0.00    +0.145 HD
ENDBRANCH   9  10
BRANCH   8  19
ATOM     19  C   UNL     1      -7.727  -5.033  -2.378  0.00  0.00    +0.003 A 
ATOM     20  C   UNL     1      -8.579  -5.922  -1.724  0.00  0.00    +0.013 A 
ATOM     21  C   UNL     1      -9.628  -6.500  -2.409  0.00  0.00    +0.039 A 
ATOM     22  C   UNL     1      -9.835  -6.199  -3.746  0.00  0.00    +0.123 A 
ATOM     23  C   UNL     1      -8.991  -5.316  -4.400  0.00  0.00    +0.039 A 
ATOM     24  C   UNL     1      -7.943  -4.729  -3.722  0.00  0.00    +0.013 A 
ATOM     25  F   UNL     1     -10.863  -6.767  -4.413  0.00  0.00    -0.205 F 
ENDBRANCH   8  19
BRANCH   1  26
ATOM     26  C   UNL     1      -1.358  -2.037  -0.122  0.00  0.00    +0.180 C 
ATOM     27  F   UNL     1      -0.739  -2.392  -1.325  0.00  0.00    -0.242 F 
BRANCH  26  28
ATOM     28  C   UNL     1      -1.376  -0.512   0.012  0.00  0.00    -0.037 C 
BRANCH  28  30
ATOM     29  C   UNL     1      -0.018   1.465   0.010  0.00  0.00    -0.096 C 
ATOM     30  N   UNL     1       0.002  -0.004   0.002  0.00  0.00    +0.378 N 
ATOM     31  C   UNL     1       0.713  -0.491   1.192  0.00  0.00    -0.096 C 
ATOM     32  H   UNL     1       0.474  -0.330  -0.828  0.00  0.00    -0.083 HD
ENDBRANCH  28  30
ENDBRANCH  26  28
ENDBRANCH   1  26
TORSDOF 5
