REMARK  Name = ZINC59262440
REMARK  5 active torsions:
REMARK  status: ('A' for Active; 'I' for Inactive)
REMARK    1  A    between atoms: C_1  and  N_2
REMARK    2  A    between atoms: C_6  and  C_7
REMARK    3  A    between atoms: N_15  and  C_16
REMARK    4  A    between atoms: C_16  and  C_17
REMARK    5  A    between atoms: C_17  and  C_18
REMARK                            x       y       z     vdW  Elec       q    Type
REMARK                         _______ _______ _______ _____ _____    ______ ____
ROOT
ATOM      1  C   UNL     1       0.031  -0.335   2.538  0.00  0.00    +0.124 C 
ATOM      2  C   UNL     1       1.480  -0.279   3.064  0.00  0.00    +0.030 C 
ATOM      3  C   UNL     1       1.338  -0.778   4.527  0.00  0.00    +0.021 C 
ATOM      4  C   UNL     1       0.223  -1.844   4.384  0.00  0.00    +0.110 C 
ATOM      5  N   UNL     1      -0.707  -1.287   3.380  0.00  0.00    -0.277 N 
ATOM      6  C   UNL     1      -2.013  -1.598   3.256  0.00  0.00    +0.303 C 
ATOM      7  O   UNL     1      -2.683  -1.073   2.387  0.00  0.00    -0.253 OA
ATOM      8  N   UNL     1      -2.575  -2.491   4.094  0.00  0.00    -0.299 N 
ATOM      9  H   UNL     1      -2.041  -2.910   4.786  0.00  0.00    +0.150 HD
ENDROOT
BRANCH   1  15
ATOM     10  C   UNL     1      -0.018   1.461   0.010  0.00  0.00    +0.148 C 
ATOM     11  N   UNL     1       0.002  -0.004   0.002  0.00  0.00    -0.352 N 
ATOM     12  C   UNL     1       0.008  -0.792  -1.110  0.00  0.00    +0.085 A 
ATOM     13  C   UNL     1       0.027  -2.081  -0.714  0.00  0.00    +0.019 A 
ATOM     14  C   UNL     1       0.033  -2.089   0.695  0.00  0.00    +0.024 A 
ATOM     15  C   UNL     1       0.023  -0.804   1.106  0.00  0.00    +0.039 A 
ENDBRANCH   1  15
BRANCH   8  16
ATOM     16  C   UNL     1      -3.994  -2.829   3.958  0.00  0.00    +0.110 C 
BRANCH  16  17
ATOM     17  C   UNL     1      -4.377  -3.858   5.024  0.00  0.00    +0.056 C 
BRANCH  17  18
ATOM     18  C   UNL     1      -5.837  -4.206   4.885  0.00  0.00    -0.021 A 
ATOM     19  C   UNL     1      -6.858  -3.651   5.557  0.00  0.00    +0.087 A 
ATOM     20  N   UNL     1      -8.039  -4.221   5.166  0.00  0.00    -0.360 N 
ATOM     21  H   UNL     1      -8.913  -3.983   5.512  0.00  0.00    +0.165 HD
ATOM     22  C   UNL     1      -7.801  -5.182   4.210  0.00  0.00    +0.047 A 
ATOM     23  C   UNL     1      -6.412  -5.211   3.987  0.00  0.00    +0.003 A 
ATOM     24  C   UNL     1      -5.874  -6.097   3.052  0.00  0.00    +0.010 A 
ATOM     25  C   UNL     1      -6.702  -6.931   2.354  0.00  0.00    +0.001 A 
ATOM     26  C   UNL     1      -8.073  -6.904   2.567  0.00  0.00    +0.002 A 
ATOM     27  C   UNL     1      -8.624  -6.043   3.492  0.00  0.00    +0.026 A 
ENDBRANCH  17  18
ENDBRANCH  16  17
ENDBRANCH   8  16
TORSDOF 4
