REMARK  Name = ZINC20568861
REMARK  6 active torsions:
REMARK  status: ('A' for Active; 'I' for Inactive)
REMARK    1  A    between atoms: C_1  and  C_2
REMARK    2  A    between atoms: C_3  and  C_25
REMARK    3  A    between atoms: C_4  and  C_17
REMARK    4  A    between atoms: C_18  and  C_19
REMARK    5  A    between atoms: C_25  and  O_27
REMARK    6  A    between atoms: O_27  and  C_28
REMARK                            x       y       z     vdW  Elec       q    Type
REMARK                         _______ _______ _______ _____ _____    ______ ____
ROOT
ATOM      1  C   UNL     1      -0.927   8.765  -0.794  0.00  0.00    +0.061 C 
ATOM      2  C   UNL     1      -0.038   7.625  -0.368  0.00  0.00    +0.016 C 
ATOM      3  C   UNL     1       1.290   7.786  -0.442  0.00  0.00    +0.065 C 
ATOM      4  C   UNL     1       2.273   6.721  -0.034  0.00  0.00    +0.086 C 
ATOM      5  C   UNL     1       1.534   5.419   0.152  0.00  0.00    +0.033 C 
ATOM      6  C   UNL     1       0.169   5.349   0.202  0.00  0.00    +0.047 C 
ATOM      7  N   UNL     1      -0.624   6.468   0.076  0.00  0.00    -0.317 N 
ATOM      8  C   UNL     1      -0.240   3.943   0.398  0.00  0.00    +0.007 A 
ATOM      9  C   UNL     1      -1.469   3.316   0.518  0.00  0.00    +0.010 A 
ATOM     10  C   UNL     1      -1.532   1.938   0.693  0.00  0.00    +0.001 A 
ATOM     11  C   UNL     1      -0.376   1.191   0.758  0.00  0.00    +0.001 A 
ATOM     12  C   UNL     1       0.865   1.809   0.639  0.00  0.00    +0.012 A 
ATOM     13  C   UNL     1       0.939   3.175   0.460  0.00  0.00    +0.031 A 
ATOM     14  C   UNL     1       2.076   4.127   0.301  0.00  0.00    +0.192 C 
ATOM     15  O   UNL     1       3.258   3.839   0.301  0.00  0.00    -0.287 OA
ATOM     16  H   UNL     1      -1.696   6.454   0.321  0.00  0.00    +0.152 HD
ENDROOT
BRANCH   4  17
ATOM     17  C   UNL     1       2.937   7.114   1.261  0.00  0.00    -0.013 C 
ATOM     18  C   UNL     1       4.254   7.259   1.314  0.00  0.00    +0.004 C 
BRANCH  18  19
ATOM     19  C   UNL     1       4.905   7.644   2.583  0.00  0.00    -0.025 A 
ATOM     20  C   UNL     1       4.136   7.862   3.727  0.00  0.00    +0.008 A 
ATOM     21  C   UNL     1       4.750   8.216   4.911  0.00  0.00    +0.001 A 
ATOM     22  C   UNL     1       6.125   8.366   4.962  0.00  0.00    +0.000 A 
ATOM     23  C   UNL     1       6.892   8.156   3.830  0.00  0.00    +0.001 A 
ATOM     24  C   UNL     1       6.290   7.797   2.642  0.00  0.00    +0.008 A 
ENDBRANCH  18  19
ENDBRANCH   4  17
BRANCH   3  25
ATOM     25  C   UNL     1       1.793   9.016  -0.926  0.00  0.00    +0.338 C 
ATOM     26  O   UNL     1       2.158   9.111  -2.083  0.00  0.00    -0.245 OA
BRANCH  25  27
ATOM     27  O   UNL     1       1.868  10.085  -0.106  0.00  0.00    -0.457 OA
BRANCH  27  28
ATOM     28  C   UNL     1       2.386  11.295  -0.662  0.00  0.00    +0.183 C 
ATOM     29  C   UNL     1       3.904  11.335  -0.472  0.00  0.00    +0.031 C 
ATOM     30  C   UNL     1       4.458  12.631  -1.068  0.00  0.00    +0.010 C 
ATOM     31  C   UNL     1       3.824  13.830  -0.360  0.00  0.00    -0.010 C 
ATOM     32  C   UNL     1       4.153  13.773   1.133  0.00  0.00    +0.007 C 
ATOM     33  C   UNL     1       3.598  12.478   1.729  0.00  0.00    -0.010 C 
ATOM     34  C   UNL     1       4.233  11.279   1.021  0.00  0.00    +0.010 C 
ATOM     35  C   UNL     1       2.081  12.438   1.539  0.00  0.00    +0.010 C 
ATOM     36  C   UNL     1       1.752  12.494   0.045  0.00  0.00    +0.031 C 
ATOM     37  C   UNL     1       2.307  13.790  -0.550  0.00  0.00    +0.010 C 
ENDBRANCH  27  28
ENDBRANCH  25  27
ENDBRANCH   3  25
TORSDOF 5
