REMARK  Name = ZINC13500158
REMARK  10 active torsions:
REMARK  status: ('A' for Active; 'I' for Inactive)
REMARK    1  A    between atoms: C_1  and  C_2
REMARK    2  A    between atoms: C_2  and  C_3
REMARK    3  A    between atoms: C_3  and  C_4
REMARK    4  A    between atoms: C_4  and  C_6
REMARK    5  A    between atoms: C_4  and  N_75
REMARK    6  A    between atoms: N_10  and  C_11
REMARK    7  A    between atoms: C_17  and  C_18
REMARK    8  A    between atoms: C_17  and  N_75
REMARK    9  A    between atoms: C_22  and  C_30
REMARK   10  A    between atoms: C_31  and  N_75
REMARK                            x       y       z     vdW  Elec       q    Type
REMARK                         _______ _______ _______ _____ _____    ______ ____
ROOT
ATOM      1  N   UNL     1       0.915   3.471  -0.946  0.00  0.00    +0.391 N 
ATOM      2  H   UNL     1      -0.008   3.263  -0.546  0.00  0.00    -0.080 HD
ENDROOT
BRANCH   1   3
ATOM      3  C   UNL     1       0.910   3.111  -2.379  0.00  0.00    -0.067 C 
ATOM      4  C   UNL     1       2.232   3.512  -3.038  0.00  0.00    -0.015 C 
ATOM      5  C   UNL     1       2.200   3.130  -4.519  0.00  0.00    -0.002 C 
ATOM      6  C   UNL     1       1.045   3.859  -5.209  0.00  0.00    -0.000 C 
ATOM      7  C   UNL     1      -0.276   3.458  -4.550  0.00  0.00    -0.002 C 
ATOM      8  C   UNL     1      -0.244   3.840  -3.069  0.00  0.00    -0.015 C 
ENDBRANCH   1   3
BRANCH   1   9
ATOM      9  C   UNL     1       1.938   2.681  -0.229  0.00  0.00    +0.003 C 
BRANCH   9  10
ATOM     10  C   UNL     1       3.291   3.333  -0.355  0.00  0.00    +0.138 A 
ATOM     11  N   UNL     1       3.695   4.116  -1.326  0.00  0.00    -0.115 NA
ATOM     12  N   UNL     1       4.907   4.470  -1.073  0.00  0.00    -0.023 NA
ATOM     13  N   UNL     1       5.287   3.933   0.034  0.00  0.00    -0.044 NA
ATOM     14  N   UNL     1       4.319   3.225   0.507  0.00  0.00    -0.228 N 
BRANCH  14  15
ATOM     15  C   UNL     1       4.335   2.447   1.749  0.00  0.00    +0.111 C 
ATOM     16  C   UNL     1       4.820   3.333   2.898  0.00  0.00    +0.027 C 
ATOM     17  C   UNL     1       4.836   2.521   4.195  0.00  0.00    +0.002 C 
ATOM     18  C   UNL     1       5.780   1.327   4.037  0.00  0.00    +0.000 C 
ATOM     19  C   UNL     1       5.295   0.442   2.888  0.00  0.00    +0.002 C 
ATOM     20  C   UNL     1       5.278   1.254   1.591  0.00  0.00    +0.027 C 
ENDBRANCH  14  15
ENDBRANCH   9  10
BRANCH   9  21
ATOM     21  C   UNL     1       1.994   1.271  -0.820  0.00  0.00    -0.008 C 
BRANCH  21  23
ATOM     22  C   UNL     1       0.760  -0.888  -1.059  0.00  0.00    +0.004 C 
ATOM     23  C   UNL     1       0.670   0.553  -0.554  0.00  0.00    -0.005 C 
ENDBRANCH  21  23
ENDBRANCH   9  21
ENDBRANCH   1   9
BRANCH   1  24
ATOM     24  C   UNL     1       1.191   4.915  -0.789  0.00  0.00    -0.036 C 
BRANCH  24  25
ATOM     25  C   UNL     1       0.742   5.346   0.584  0.00  0.00    +0.001 A 
ATOM     26  C   UNL     1       1.641   5.418   1.596  0.00  0.00    +0.017 A 
ATOM     27  C   UNL     1       1.174   5.846   2.917  0.00  0.00    -0.001 A 
ATOM     28  C   UNL     1       2.055   5.946   3.998  0.00  0.00    +0.013 A 
ATOM     29  C   UNL     1       1.587   6.344   5.218  0.00  0.00    -0.050 A 
ATOM     30  C   UNL     1       0.244   6.651   5.394  0.00  0.00    +0.005 A 
ATOM     31  C   UNL     1      -0.642   6.559   4.343  0.00  0.00    +0.026 A 
ATOM     32  C   UNL     1      -0.188   6.156   3.091  0.00  0.00    +0.049 A 
ATOM     33  N   UNL     1      -1.052   6.056   2.021  0.00  0.00    -0.322 N 
ATOM     34  H   UNL     1      -1.990   6.270   2.143  0.00  0.00    +0.169 HD
ATOM     35  C   UNL     1      -0.613   5.668   0.811  0.00  0.00    +0.251 A 
ATOM     36  O   UNL     1      -1.405   5.591  -0.112  0.00  0.00    -0.268 OA
ATOM     37  C   UNL     1       2.536   6.451   6.384  0.00  0.00    +0.044 C 
ENDBRANCH  24  25
ENDBRANCH   1  24
TORSDOF 8
