REMARK  Name = ZINC45961011
REMARK  15 active torsions:
REMARK  status: ('A' for Active; 'I' for Inactive)
REMARK    1  A    between atoms: C_1  and  C_2
REMARK    2  A    between atoms: C_2  and  C_3
REMARK    3  A    between atoms: C_3  and  N_4
REMARK    4  A    between atoms: C_13  and  O_14
REMARK    5  A    between atoms: C_15  and  N_16
REMARK    6  A    between atoms: C_17  and  C_19
REMARK    7  A    between atoms: C_21  and  O_33
REMARK    8  A    between atoms: C_22  and  O_27
REMARK    9  A    between atoms: C_23  and  O_25
REMARK   10  A    between atoms: O_25  and  C_26
REMARK   11  A    between atoms: O_27  and  C_28
REMARK   12  A    between atoms: C_28  and  O_30
REMARK   13  A    between atoms: O_30  and  C_31
REMARK   14  A    between atoms: C_31  and  C_32
REMARK   15  A    between atoms: O_33  and  C_34
REMARK                            x       y       z     vdW  Elec       q    Type
REMARK                         _______ _______ _______ _____ _____    ______ ____
ROOT
ATOM      1  N   UNL     1      -0.544  -0.578  -3.444  0.00  0.00    -0.274 N 
ATOM      2  C   UNL     1      -1.415  -0.009  -4.301  0.00  0.00    +0.249 C 
ATOM      3  O   UNL     1      -2.179  -0.706  -4.943  0.00  0.00    -0.270 OA
ATOM      4  H   UNL     1       0.117  -0.031  -2.991  0.00  0.00    +0.155 HD
ENDROOT
BRANCH   1  15
ATOM      5  N   UNL     1       0.236  -2.556  -5.424  0.00  0.00    -0.382 N 
ATOM      6  C   UNL     1      -0.306  -2.927  -4.283  0.00  0.00    +0.075 A 
ATOM      7  C   UNL     1      -0.659  -4.339  -4.003  0.00  0.00    +0.042 A 
ATOM      8  C   UNL     1      -0.677  -5.296  -5.012  0.00  0.00    +0.013 A 
ATOM      9  C   UNL     1      -1.016  -6.599  -4.708  0.00  0.00    +0.001 A 
ATOM     10  C   UNL     1      -1.337  -6.949  -3.405  0.00  0.00    +0.004 A 
ATOM     11  C   UNL     1      -1.321  -6.007  -2.398  0.00  0.00    +0.047 A 
ATOM     12  C   UNL     1      -0.979  -4.690  -2.684  0.00  0.00    +0.141 A 
ATOM     13  O   UNL     1      -0.948  -3.761  -1.707  0.00  0.00    -0.424 OA
ATOM     14  C   UNL     1      -0.911  -2.450  -1.980  0.00  0.00    +0.309 A 
ATOM     15  C   UNL     1      -0.593  -1.965  -3.207  0.00  0.00    +0.139 A 
ATOM     16  H   UNL     1       0.309  -3.190  -6.155  0.00  0.00    +0.160 HD
BRANCH  14  17
ATOM     17  O   UNL     1      -1.197  -1.573  -0.990  0.00  0.00    -0.479 OA
ATOM     18  H   UNL     1      -1.410  -1.990  -0.144  0.00  0.00    +0.295 HD
ENDBRANCH  14  17
BRANCH   5  19
ATOM     19  C   UNL     1       0.731  -1.187  -5.589  0.00  0.00    +0.112 C 
BRANCH  19  21
ATOM     20  C   UNL     1       2.457   0.238  -6.699  0.00  0.00    +0.005 C 
ATOM     21  C   UNL     1       1.940  -1.192  -6.527  0.00  0.00    +0.017 C 
ENDBRANCH  19  21
ENDBRANCH   5  19
ENDBRANCH   1  15
BRANCH   2  22
ATOM     22  C   UNL     1      -1.444   1.458  -4.460  0.00  0.00    +0.044 A 
ATOM     23  C   UNL     1      -0.564   2.258  -3.727  0.00  0.00    +0.062 A 
ATOM     24  C   UNL     1      -0.593   3.632  -3.878  0.00  0.00    +0.167 A 
ATOM     25  C   UNL     1      -1.497   4.218  -4.759  0.00  0.00    +0.218 A 
ATOM     26  C   UNL     1      -2.375   3.423  -5.490  0.00  0.00    +0.167 A 
ATOM     27  C   UNL     1      -2.347   2.048  -5.347  0.00  0.00    +0.062 A 
BRANCH  26  28
ATOM     28  O   UNL     1      -3.258   3.999  -6.350  0.00  0.00    -0.491 OA
ATOM     29  C   UNL     1      -4.129   3.123  -7.068  0.00  0.00    +0.277 C 
ENDBRANCH  26  28
BRANCH  24  30
ATOM     30  O   UNL     1       0.264   4.412  -3.165  0.00  0.00    -0.491 OA
ATOM     31  C   UNL     1       1.165   3.744  -2.279  0.00  0.00    +0.277 C 
ENDBRANCH  24  30
BRANCH  25  32
ATOM     32  O   UNL     1      -1.524   5.570  -4.905  0.00  0.00    -0.387 OA
BRANCH  32  33
ATOM     33  C   UNL     1      -0.735   6.119  -5.847  0.00  0.00    +0.516 C 
ATOM     34  O   UNL     1      -0.029   5.411  -6.536  0.00  0.00    -0.202 OA
BRANCH  33  35
ATOM     35  O   UNL     1      -0.730   7.452  -6.026  0.00  0.00    -0.434 OA
BRANCH  35  36
ATOM     36  C   UNL     1       0.131   7.967  -7.044  0.00  0.00    +0.232 C 
ATOM     37  C   UNL     1       0.002   9.491  -7.099  0.00  0.00    +0.048 C 
ENDBRANCH  35  36
ENDBRANCH  33  35
ENDBRANCH  32  33
ENDBRANCH  25  32
ENDBRANCH   2  22
TORSDOF 11
