REMARK  Name = ZINC02870898
REMARK  9 active torsions:
REMARK  status: ('A' for Active; 'I' for Inactive)
REMARK    1  A    between atoms: C_1  and  C_2
REMARK    2  A    between atoms: C_2  and  C_3
REMARK    3  A    between atoms: C_3  and  C_4
REMARK    4  A    between atoms: C_4  and  C_5
REMARK    5  A    between atoms: C_8  and  C_10
REMARK    6  A    between atoms: C_11  and  C_20
REMARK    7  A    between atoms: C_12  and  N_19
REMARK    8  A    between atoms: C_14  and  N_18
REMARK    9  A    between atoms: C_15  and  C_16
REMARK                            x       y       z     vdW  Elec       q    Type
REMARK                         _______ _______ _______ _____ _____    ______ ____
ROOT
ATOM      1  C   UNL     1       2.492  -3.833  -6.340  0.00  0.00    +0.111 C 
ATOM      2  C   UNL     1       1.788  -5.130  -6.523  0.00  0.00    +0.070 C 
ATOM      3  C   UNL     1       0.571  -5.296  -7.080  0.00  0.00    +0.079 C 
ATOM      4  S   UNL     1      -0.346  -3.929  -7.703  0.00  0.00    -0.058 S 
ATOM      5  C   UNL     1       0.869  -2.668  -7.886  0.00  0.00    +0.079 C 
ATOM      6  C   UNL     1       2.059  -2.744  -7.255  0.00  0.00    +0.070 C 
ENDROOT
BRANCH   1  10
ATOM      7  C   UNL     1       1.444  -2.513  -2.505  0.00  0.00    -0.010 A 
ATOM      8  C   UNL     1       2.760  -2.784  -2.688  0.00  0.00    +0.011 A 
ATOM      9  C   UNL     1       3.188  -3.225  -3.926  0.00  0.00    +0.012 A 
ATOM     10  C   UNL     1       2.279  -3.373  -4.921  0.00  0.00    +0.003 A 
ATOM     11  S   UNL     1       0.763  -2.889  -4.112  0.00  0.00    -0.097 S 
BRANCH   7  12
ATOM     12  C   UNL     1       0.739  -2.027  -1.265  0.00  0.00    +0.042 C 
BRANCH  12  13
ATOM     13  C   UNL     1       0.718  -0.497  -1.257  0.00  0.00    +0.005 C 
BRANCH  13  15
ATOM     14  C   UNL     1      -0.019   1.526   0.010  0.00  0.00    +0.004 C 
ATOM     15  C   UNL     1       0.002  -0.004   0.002  0.00  0.00    -0.003 C 
ENDBRANCH  13  15
ENDBRANCH  12  13
ENDBRANCH   7  12
ENDBRANCH   1  10
BRANCH   5  16
ATOM     16  N   UNL     1       0.601  -1.585  -8.689  0.00  0.00    -0.352 N 
ATOM     17  H   UNL     1      -0.252  -1.521  -9.148  0.00  0.00    +0.143 HD
ATOM     18  H   UNL     1       1.263  -0.885  -8.797  0.00  0.00    +0.143 HD
ENDBRANCH   5  16
BRANCH   3  19
ATOM     19  N   UNL     1       0.036  -6.560  -7.162  0.00  0.00    -0.352 N 
ATOM     20  H   UNL     1       0.533  -7.320  -6.822  0.00  0.00    +0.143 HD
ATOM     21  H   UNL     1      -0.839  -6.691  -7.561  0.00  0.00    +0.143 HD
ENDBRANCH   3  19
BRANCH   6  22
ATOM     22  C   UNL     1       2.988  -1.679  -7.487  0.00  0.00    +0.098 C 
ATOM     23  N   UNL     1       3.725  -0.834  -7.670  0.00  0.00    -0.191 NA
ENDBRANCH   6  22
BRANCH   2  24
ATOM     24  C   UNL     1       2.463  -6.307  -6.068  0.00  0.00    +0.098 C 
ATOM     25  N   UNL     1       2.999  -7.242  -5.707  0.00  0.00    -0.191 NA
ENDBRANCH   2  24
TORSDOF 8
