REMARK  Name = ZINC04212342
REMARK  9 active torsions:
REMARK  status: ('A' for Active; 'I' for Inactive)
REMARK    1  A    between atoms: C_1  and  C_2
REMARK    2  A    between atoms: C_4  and  C_31
REMARK    3  A    between atoms: C_9  and  C_14
REMARK    4  A    between atoms: C_14  and  C_16
REMARK    5  A    between atoms: C_14  and  N_62
REMARK    6  A    between atoms: N_20  and  C_21
REMARK    7  A    between atoms: C_21  and  C_22
REMARK    8  A    between atoms: C_21  and  C_23
REMARK    9  A    between atoms: C_21  and  C_24
REMARK                            x       y       z     vdW  Elec       q    Type
REMARK                         _______ _______ _______ _____ _____    ______ ____
ROOT
ATOM      1  C   UNL     1       3.418   0.691  -0.182  0.00  0.00    +0.039 C 
ENDROOT
BRANCH   1  10
ATOM      2  C   UNL     1       7.417  -2.634   5.164  0.00  0.00    +0.044 C 
ATOM      3  C   UNL     1       6.505  -1.527   4.701  0.00  0.00    -0.050 A 
ATOM      4  C   UNL     1       6.108  -0.542   5.596  0.00  0.00    +0.008 A 
ATOM      5  C   UNL     1       5.274   0.478   5.195  0.00  0.00    -0.026 A 
ATOM      6  C   UNL     1       4.823   0.524   3.879  0.00  0.00    +0.052 A 
ATOM      7  C   UNL     1       5.227  -0.475   2.975  0.00  0.00    -0.001 A 
ATOM      8  C   UNL     1       6.074  -1.502   3.405  0.00  0.00    +0.013 A 
ATOM      9  C   UNL     1       4.744  -0.421   1.594  0.00  0.00    +0.017 A 
ATOM     10  C   UNL     1       3.929   0.602   1.233  0.00  0.00    +0.011 A 
ATOM     11  C   UNL     1       3.554   1.579   2.179  0.00  0.00    +0.251 A 
ATOM     12  O   UNL     1       2.817   2.487   1.835  0.00  0.00    -0.268 OA
ATOM     13  N   UNL     1       3.989   1.535   3.451  0.00  0.00    -0.322 N 
ATOM     14  H   UNL     1       3.703   2.244   4.095  0.00  0.00    +0.169 HD
ATOM     15  C   UNL     1       4.852   1.540   6.177  0.00  0.00    +0.046 C 
ENDBRANCH   1  10
BRANCH   1  22
ATOM     16  C   UNL     1       3.139   2.188  -2.075  0.00  0.00    -0.077 C 
ATOM     17  C   UNL     1       3.668   3.394  -2.804  0.00  0.00    -0.019 C 
ATOM     18  C   UNL     1       4.833   2.945  -3.711  0.00  0.00    -0.002 C 
ATOM     19  C   UNL     1       6.071   2.753  -2.963  0.00  0.00    -0.002 C 
ATOM     20  C   UNL     1       5.936   1.659  -1.883  0.00  0.00    -0.019 C 
ATOM     21  C   UNL     1       5.214   2.244  -0.699  0.00  0.00    -0.077 C 
ATOM     22  N   UNL     1       3.727   2.032  -0.701  0.00  0.00    +0.389 N 
ATOM     23  H   UNL     1       3.299   2.733  -0.085  0.00  0.00    -0.080 HD
ENDBRANCH   1  22
BRANCH   1  24
ATOM     24  C   UNL     1       1.922   0.509  -0.188  0.00  0.00    +0.143 A 
ATOM     25  N   UNL     1       1.030   1.347   0.282  0.00  0.00    -0.115 NA
ATOM     26  N   UNL     1      -0.136   0.835   0.092  0.00  0.00    -0.023 NA
ATOM     27  N   UNL     1      -0.012  -0.309  -0.487  0.00  0.00    -0.043 NA
ATOM     28  N   UNL     1       1.242  -0.545  -0.676  0.00  0.00    -0.225 N 
BRANCH  28  29
ATOM     29  C   UNL     1       1.818  -1.736  -1.304  0.00  0.00    +0.059 C 
ATOM     30  C   UNL     1       0.698  -2.714  -1.667  0.00  0.00    +0.036 C 
ATOM     31  C   UNL     1       2.571  -1.331  -2.572  0.00  0.00    +0.036 C 
ATOM     32  C   UNL     1       2.786  -2.409  -0.329  0.00  0.00    +0.036 C 
ENDBRANCH  28  29
ENDBRANCH   1  24
TORSDOF 4
