REMARK  Name = ZINC01833607
REMARK  7 active torsions:
REMARK  status: ('A' for Active; 'I' for Inactive)
REMARK    1  A    between atoms: C_1  and  O_2
REMARK    2  A    between atoms: O_2  and  C_3
REMARK    3  A    between atoms: C_5  and  C_10
REMARK    4  A    between atoms: C_8  and  O_9
REMARK    5  A    between atoms: C_22  and  C_23
REMARK    6  A    between atoms: C_22  and  C_29
REMARK    7  A    between atoms: C_22  and  N_62
REMARK                            x       y       z     vdW  Elec       q    Type
REMARK                         _______ _______ _______ _____ _____    ______ ____
ROOT
ATOM      1  C   UNL     1      -8.581   7.721  -1.234  0.00  0.00    +0.028 C 
ATOM      2  C   UNL     1      -7.873   6.563  -1.244  0.00  0.00    +0.079 C 
ATOM      3  C   UNL     1      -8.323   5.178  -1.517  0.00  0.00    +0.276 C 
ATOM      4  O   UNL     1      -9.485   4.919  -1.785  0.00  0.00    -0.267 OA
ATOM      5  N   UNL     1      -7.400   4.242  -1.455  0.00  0.00    -0.154 NA
ATOM      6  C   UNL     1      -6.137   4.509  -1.166  0.00  0.00    +0.154 C 
ATOM      7  S   UNL     1      -6.136   6.279  -0.925  0.00  0.00    -0.052 S 
ATOM      8  N   UNL     1      -5.084   3.638  -1.070  0.00  0.00    -0.315 N 
ATOM      9  C   UNL     1      -5.274   2.197  -1.298  0.00  0.00    +0.088 C 
ATOM     10  C   UNL     1      -4.673   1.434  -0.113  0.00  0.00    -0.058 C 
ATOM     11  C   UNL     1      -3.195   3.279   0.428  0.00  0.00    -0.058 C 
ATOM     12  C   UNL     1      -3.735   4.118  -0.734  0.00  0.00    +0.088 C 
ATOM     13  N   UNL     1      -3.263   1.849   0.054  0.00  0.00    +0.389 N 
ATOM     14  H   UNL     1      -2.769   1.714  -0.836  0.00  0.00    -0.080 HD
ENDROOT
BRANCH   1  17
ATOM     15  C   UNL     1     -11.660   6.944  -3.228  0.00  0.00    +0.162 A 
ATOM     16  C   UNL     1     -10.352   6.928  -2.788  0.00  0.00    +0.057 A 
ATOM     17  C   UNL     1      -9.970   7.736  -1.710  0.00  0.00    -0.020 A 
ATOM     18  C   UNL     1     -10.915   8.564  -1.091  0.00  0.00    +0.012 A 
ATOM     19  C   UNL     1     -12.217   8.576  -1.540  0.00  0.00    +0.050 A 
ATOM     20  C   UNL     1     -12.595   7.771  -2.606  0.00  0.00    +0.158 A 
BRANCH  15  22
ATOM     21  C   UNL     1     -11.026   5.336  -4.862  0.00  0.00    +0.277 C 
ATOM     22  O   UNL     1     -12.036   6.158  -4.272  0.00  0.00    -0.491 OA
ENDBRANCH  15  22
BRANCH  20  23
ATOM     23  O   UNL     1     -13.881   7.788  -3.045  0.00  0.00    -0.503 OA
ATOM     24  H   UNL     1     -14.052   8.444  -3.735  0.00  0.00    +0.292 HD
ENDBRANCH  20  23
ENDBRANCH   1  17
BRANCH  13  25
ATOM     25  C   UNL     1      -2.614   1.024   1.093  0.00  0.00    -0.007 C 
BRANCH  25  26
ATOM     26  C   UNL     1      -2.664  -0.422   0.671  0.00  0.00    -0.057 A 
ATOM     27  C   UNL     1      -2.887  -1.409   1.612  0.00  0.00    +0.002 A 
ATOM     28  C   UNL     1      -2.939  -2.735   1.224  0.00  0.00    +0.000 A 
ATOM     29  C   UNL     1      -2.763  -3.073  -0.105  0.00  0.00    +0.000 A 
ATOM     30  C   UNL     1      -2.535  -2.086  -1.045  0.00  0.00    +0.000 A 
ATOM     31  C   UNL     1      -2.483  -0.760  -0.657  0.00  0.00    +0.002 A 
ENDBRANCH  25  26
BRANCH  25  32
ATOM     32  C   UNL     1      -1.177   1.457   1.234  0.00  0.00    -0.057 A 
ATOM     33  C   UNL     1      -0.430   1.750   0.108  0.00  0.00    +0.002 A 
ATOM     34  C   UNL     1       0.886   2.151   0.236  0.00  0.00    +0.000 A 
ATOM     35  C   UNL     1       1.459   2.249   1.490  0.00  0.00    +0.000 A 
ATOM     36  C   UNL     1       0.714   1.951   2.616  0.00  0.00    +0.000 A 
ATOM     37  C   UNL     1      -0.604   1.555   2.488  0.00  0.00    +0.002 A 
ENDBRANCH  25  32
ENDBRANCH  13  25
TORSDOF 6
