REMARK  Name = ZINC36586728
REMARK  19 active torsions:
REMARK  status: ('A' for Active; 'I' for Inactive)
REMARK    1  A    between atoms: C_1  and  C_2
REMARK    2  A    between atoms: C_2  and  C_3
REMARK    3  A    between atoms: C_2  and  C_4
REMARK    4  A    between atoms: C_2  and  C_5
REMARK    5  A    between atoms: C_5  and  C_6
REMARK    6  A    between atoms: C_6  and  C_7
REMARK    7  A    between atoms: C_6  and  C_8
REMARK    8  A    between atoms: C_6  and  N_9
REMARK    9  A    between atoms: C_10  and  C_12
REMARK   10  A    between atoms: C_12  and  C_14
REMARK   11  A    between atoms: C_12  and  N_24
REMARK   12  A    between atoms: C_16  and  N_21
REMARK   13  A    between atoms: N_24  and  C_35
REMARK   14  A    between atoms: C_25  and  C_27
REMARK   15  A    between atoms: C_28  and  O_34
REMARK   16  A    between atoms: C_32  and  O_33
REMARK   17  A    between atoms: C_35  and  C_36
REMARK   18  A    between atoms: C_35  and  C_37
REMARK   19  A    between atoms: C_35  and  C_38
REMARK                            x       y       z     vdW  Elec       q    Type
REMARK                         _______ _______ _______ _____ _____    ______ ____
ROOT
ATOM      1  C   UNL     1       5.041  -0.146  -4.407  0.00  0.00    +0.194 C 
ENDROOT
BRANCH   1   2
ATOM      2  C   UNL     1       5.149  -1.572  -4.882  0.00  0.00    +0.002 A 
ATOM      3  C   UNL     1       6.242  -2.339  -4.525  0.00  0.00    +0.040 A 
ATOM      4  C   UNL     1       6.341  -3.647  -4.961  0.00  0.00    +0.127 A 
ATOM      5  C   UNL     1       5.348  -4.189  -5.755  0.00  0.00    +0.034 A 
ATOM      6  C   UNL     1       4.254  -3.423  -6.113  0.00  0.00    +0.022 A 
ATOM      7  C   UNL     1       4.151  -2.116  -5.672  0.00  0.00    +0.047 A 
ATOM      8 CL   UNL     1       2.774  -1.156  -6.114  0.00  0.00    -0.083 Cl
BRANCH   4   9
ATOM      9  N   UNL     1       7.512  -4.467  -4.579  0.00  0.00    +0.056 N 
ATOM     10  O   UNL     1       8.382  -3.994  -3.885  0.00  0.00    -0.126 OA
ATOM     11  O   UNL     1       7.600  -5.611  -4.960  0.00  0.00    -0.126 OA
ENDBRANCH   4   9
ENDBRANCH   1   2
BRANCH   1  13
ATOM     12  N   UNL     1       3.155  -0.602  -2.872  0.00  0.00    -0.308 N 
ATOM     13  C   UNL     1       4.402  -0.119  -3.042  0.00  0.00    +0.239 C 
ATOM     14  O   UNL     1       5.009   0.339  -2.098  0.00  0.00    -0.273 OA
ATOM     15  H   UNL     1       2.663  -0.952  -3.631  0.00  0.00    +0.149 HD
BRANCH  12  16
ATOM     16  C   UNL     1       2.544  -0.600  -1.541  0.00  0.00    +0.030 C 
ATOM     17  C   UNL     1       2.777   0.758  -0.875  0.00  0.00    +0.031 C 
ATOM     18  C   UNL     1       3.176  -1.701  -0.688  0.00  0.00    +0.031 C 
BRANCH  16  19
ATOM     19  C   UNL     1       1.041  -0.853  -1.669  0.00  0.00    +0.031 C 
BRANCH  19  21
ATOM     20  C   UNL     1       0.759  -0.659  -4.144  0.00  0.00    +0.010 C 
ATOM     21  C   UNL     1       0.473   0.010  -2.798  0.00  0.00    -0.036 C 
ATOM     22  C   UNL     1       1.130   1.391  -2.765  0.00  0.00    +0.010 C 
ATOM     23  C   UNL     1      -1.039   0.160  -2.615  0.00  0.00    +0.010 C 
ENDBRANCH  19  21
ENDBRANCH  16  19
ENDBRANCH  12  16
ENDBRANCH   1  13
BRANCH   1  24
ATOM     24  N   UNL     1       6.378   0.446  -4.332  0.00  0.00    -0.277 N 
ATOM     25  C   UNL     1       7.213   0.100  -3.332  0.00  0.00    +0.255 C 
ATOM     26  O   UNL     1       6.805  -0.572  -2.404  0.00  0.00    -0.270 OA
BRANCH  25  27
ATOM     27  C   UNL     1       8.619   0.537  -3.362  0.00  0.00    +0.119 A 
ATOM     28  C   UNL     1       9.008   1.712  -2.701  0.00  0.00    +0.133 A 
ATOM     29  C   UNL     1      10.334   2.113  -2.736  0.00  0.00    +0.046 A 
ATOM     30  C   UNL     1      11.271   1.361  -3.418  0.00  0.00    +0.007 A 
ATOM     31  C   UNL     1      10.899   0.202  -4.074  0.00  0.00    +0.046 A 
ATOM     32  C   UNL     1       9.580  -0.221  -4.047  0.00  0.00    +0.133 A 
BRANCH  32  33
ATOM     33  O   UNL     1       9.218  -1.362  -4.686  0.00  0.00    -0.506 OA
ATOM     34  H   UNL     1       8.953  -1.230  -5.606  0.00  0.00    +0.292 HD
ENDBRANCH  32  33
BRANCH  28  35
ATOM     35  O   UNL     1       8.090   2.452  -2.031  0.00  0.00    -0.506 OA
ATOM     36  H   UNL     1       7.983   2.200  -1.103  0.00  0.00    +0.292 HD
ENDBRANCH  28  35
ENDBRANCH  25  27
BRANCH  24  37
ATOM     37  C   UNL     1       6.809   1.414  -5.344  0.00  0.00    +0.030 C 
ATOM     38  C   UNL     1       5.674   1.646  -6.343  0.00  0.00    +0.031 C 
ATOM     39  C   UNL     1       7.168   2.737  -4.664  0.00  0.00    +0.031 C 
ATOM     40  C   UNL     1       8.034   0.871  -6.081  0.00  0.00    +0.031 C 
ENDBRANCH  24  37
ENDBRANCH   1  24
TORSDOF 11
