REMARK  Name = ZINC22302813
REMARK  7 active torsions:
REMARK  status: ('A' for Active; 'I' for Inactive)
REMARK    1  A    between atoms: C_1  and  C_2
REMARK    2  A    between atoms: C_2  and  C_4
REMARK    3  A    between atoms: C_2  and  S_13
REMARK    4  A    between atoms: N_6  and  C_7
REMARK    5  A    between atoms: C_7  and  C_8
REMARK    6  A    between atoms: S_13  and  C_14
REMARK    7  A    between atoms: N_24  and  C_25
REMARK                            x       y       z     vdW  Elec       q    Type
REMARK                         _______ _______ _______ _____ _____    ______ ____
ROOT
ATOM      1  C   UNL     1       2.933   4.244  -1.190  0.00  0.00    +0.177 A 
ATOM      2  N   UNL     1       4.052   4.920  -1.272  0.00  0.00    -0.223 NA
ATOM      3  C   UNL     1       4.725   5.312  -0.164  0.00  0.00    +0.079 A 
ATOM      4  C   UNL     1       5.922   6.029  -0.251  0.00  0.00    +0.030 A 
ATOM      5  C   UNL     1       6.573   6.405   0.889  0.00  0.00    +0.022 A 
ATOM      6  C   UNL     1       6.063   6.086   2.142  0.00  0.00    +0.042 A 
ATOM      7  C   UNL     1       4.885   5.381   2.261  0.00  0.00    +0.035 A 
ATOM      8  C   UNL     1       4.204   4.986   1.109  0.00  0.00    +0.067 A 
ATOM      9  C   UNL     1       2.945   4.232   1.172  0.00  0.00    +0.267 A 
ATOM     10  O   UNL     1       2.448   3.924   2.240  0.00  0.00    -0.267 OA
ATOM     11  N   UNL     1       2.358   3.894   0.001  0.00  0.00    -0.253 N 
ATOM     12 CL   UNL     1       6.917   6.581   3.570  0.00  0.00    -0.084 Cl
ENDROOT
BRANCH  11  13
ATOM     13  C   UNL     1       1.155   3.174   0.008  0.00  0.00    +0.087 A 
ATOM     14  C   UNL     1      -0.058   3.847   0.023  0.00  0.00    +0.032 A 
ATOM     15  C   UNL     1      -1.242   3.136   0.031  0.00  0.00    +0.040 A 
ATOM     16  C   UNL     1      -1.221   1.752   0.017  0.00  0.00    +0.126 A 
ATOM     17  C   UNL     1      -0.013   1.076   0.008  0.00  0.00    +0.078 A 
ATOM     18  C   UNL     1       1.176   1.783   0.000  0.00  0.00    +0.150 A 
ATOM     19  F   UNL     1       2.355   1.125  -0.014  0.00  0.00    -0.203 F 
ATOM     20  F   UNL     1      -2.381   1.059   0.019  0.00  0.00    -0.205 F 
ENDBRANCH  11  13
BRANCH   1  21
ATOM     21  S   UNL     1       2.126   3.770  -2.683  0.00  0.00    -0.075 S 
BRANCH  21  23
ATOM     22  C   UNL     1       3.281   5.990  -3.779  0.00  0.00    +0.029 C 
ATOM     23  C   UNL     1       3.276   4.465  -3.896  0.00  0.00    +0.137 C 
BRANCH  23  24
ATOM     24  C   UNL     1       2.843   4.069  -5.283  0.00  0.00    +0.227 C 
ATOM     25  O   UNL     1       1.681   3.799  -5.502  0.00  0.00    -0.275 OA
ATOM     26  N   UNL     1       3.747   4.013  -6.282  0.00  0.00    -0.307 N 
ATOM     27  H   UNL     1       4.801   4.257  -6.083  0.00  0.00    +0.149 HD
BRANCH  26  28
ATOM     28  C   UNL     1       3.325   3.628  -7.631  0.00  0.00    +0.178 C 
BRANCH  28  29
ATOM     29  C   UNL     1       4.517   3.645  -8.553  0.00  0.00    +0.122 A 
ATOM     30  C   UNL     1       5.337   2.607  -8.798  0.00  0.00    +0.046 A 
ATOM     31  C   UNL     1       6.311   3.062  -9.716  0.00  0.00    +0.041 A 
ATOM     32  C   UNL     1       6.028   4.350  -9.977  0.00  0.00    +0.195 A 
ATOM     33  O   UNL     1       4.937   4.697  -9.275  0.00  0.00    -0.466 OA
ENDBRANCH  28  29
ENDBRANCH  26  28
ENDBRANCH  23  24
ENDBRANCH  21  23
ENDBRANCH   1  21
TORSDOF 6
