REMARK  Name = ZINC35671332
REMARK  10 active torsions:
REMARK  status: ('A' for Active; 'I' for Inactive)
REMARK    1  A    between atoms: C_1  and  C_2
REMARK    2  A    between atoms: C_2  and  C_3
REMARK    3  A    between atoms: C_2  and  C_4
REMARK    4  A    between atoms: C_2  and  C_5
REMARK    5  A    between atoms: C_8  and  C_11
REMARK    6  A    between atoms: C_11  and  C_13
REMARK    7  A    between atoms: C_11  and  N_29
REMARK    8  A    between atoms: C_13  and  N_14
REMARK    9  A    between atoms: N_29  and  C_30
REMARK   10  A    between atoms: N_29  and  C_31
REMARK                            x       y       z     vdW  Elec       q    Type
REMARK                         _______ _______ _______ _____ _____    ______ ____
ROOT
ATOM      1  C   UNL     1       3.173  -2.985  -4.564  0.00  0.00    +0.115 C 
ENDROOT
BRANCH   1   2
ATOM      2  N   UNL     1       2.210  -3.952  -4.032  0.00  0.00    -0.300 N 
ATOM      3  C   UNL     1       1.944  -3.993  -2.699  0.00  0.00    +0.202 A 
ATOM      4  N   UNL     1       1.105  -4.824  -2.168  0.00  0.00    -0.235 NA
ATOM      5  C   UNL     1       0.411  -5.737  -2.926  0.00  0.00    +0.107 A 
ATOM      6  C   UNL     1      -0.526  -6.690  -2.475  0.00  0.00    +0.081 A 
ATOM      7  C   UNL     1      -1.093  -7.504  -3.429  0.00  0.00    +0.070 A 
ATOM      8  S   UNL     1      -0.376  -6.992  -4.957  0.00  0.00    -0.073 S 
ATOM      9  C   UNL     1       0.670  -5.711  -4.310  0.00  0.00    +0.105 A 
ATOM     10  C   UNL     1       1.571  -4.809  -4.863  0.00  0.00    +0.268 A 
ATOM     11  O   UNL     1       1.783  -4.793  -6.065  0.00  0.00    -0.266 OA
ATOM     12  S   UNL     1      -2.270  -8.760  -3.098  0.00  0.00    -0.107 S 
ATOM     13  C   UNL     1      -1.890  -9.157  -1.359  0.00  0.00    +0.171 C 
ATOM     14  C   UNL     1      -1.561  -7.889  -0.625  0.00  0.00    +0.227 C 
ATOM     15  O   UNL     1      -1.935  -7.813   0.527  0.00  0.00    -0.275 OA
ATOM     16  N   UNL     1      -0.902  -6.840  -1.111  0.00  0.00    -0.282 N 
ATOM     17  H   UNL     1      -0.663  -6.131  -0.494  0.00  0.00    +0.155 HD
ENDBRANCH   1   2
BRANCH   1  18
ATOM     18  C   UNL     1       2.430  -1.742  -5.055  0.00  0.00    -0.018 C 
BRANCH  18  22
ATOM     19  C   UNL     1       0.548   0.189  -1.742  0.00  0.00    -0.042 A 
ATOM     20  C   UNL     1      -0.193  -0.624  -2.579  0.00  0.00    +0.004 A 
ATOM     21  C   UNL     1       0.416  -1.249  -3.651  0.00  0.00    +0.002 A 
ATOM     22  C   UNL     1       1.766  -1.060  -3.886  0.00  0.00    -0.059 A 
ATOM     23  C   UNL     1       2.505  -0.245  -3.050  0.00  0.00    +0.002 A 
ATOM     24  C   UNL     1       1.895   0.383  -1.980  0.00  0.00    +0.004 A 
BRANCH  19  26
ATOM     25  C   UNL     1       0.019   2.387  -0.722  0.00  0.00    +0.015 C 
ATOM     26  C   UNL     1      -0.116   0.870  -0.573  0.00  0.00    -0.013 C 
ATOM     27  C   UNL     1       0.556   0.424   0.727  0.00  0.00    +0.015 C 
ATOM     28  C   UNL     1      -1.598   0.491  -0.536  0.00  0.00    +0.015 C 
ENDBRANCH  19  26
ENDBRANCH  18  22
BRANCH  18  29
ATOM     29  N   UNL     1       3.383  -0.818  -5.684  0.00  0.00    +0.382 N 
ATOM     30  C   UNL     1       4.052  -1.492  -6.804  0.00  0.00    -0.096 C 
ATOM     31  C   UNL     1       2.664   0.363  -6.182  0.00  0.00    -0.096 C 
ATOM     32  H   UNL     1       4.071  -0.530  -5.004  0.00  0.00    -0.082 HD
ENDBRANCH  18  29
ENDBRANCH   1  18
TORSDOF 5
