REMARK  Name = ZINC04237608
REMARK  5 active torsions:
REMARK  status: ('A' for Active; 'I' for Inactive)
REMARK    1  A    between atoms: C_1  and  C_2
REMARK    2  A    between atoms: C_9  and  N_26
REMARK    3  A    between atoms: C_10  and  C_24
REMARK    4  A    between atoms: C_11  and  C_13
REMARK    5  A    between atoms: C_22  and  O_23
REMARK                            x       y       z     vdW  Elec       q    Type
REMARK                         _______ _______ _______ _____ _____    ______ ____
ROOT
ATOM      1  C   UNL     1      -0.185   1.207   0.202  0.00  0.00    +0.065 C 
ATOM      2  C   UNL     1      -0.115  -0.288   0.029  0.00  0.00    +0.041 A 
ATOM      3  C   UNL     1      -0.039  -0.949  -1.136  0.00  0.00    +0.049 A 
ATOM      4  C   UNL     1       0.010  -2.332  -0.854  0.00  0.00    +0.245 A 
ATOM      5  N   UNL     1      -0.037  -2.481   0.438  0.00  0.00    -0.135 NA
ATOM      6  N   UNL     1      -0.111  -1.207   1.022  0.00  0.00    -0.278 N 
ATOM      7  H   UNL     1      -0.154  -1.019   1.973  0.00  0.00    +0.189 HD
ATOM      8  O   UNL     1       0.094  -3.266  -1.840  0.00  0.00    -0.421 OA
ATOM      9  C   UNL     1       0.402  -2.834  -3.079  0.00  0.00    +0.201 C 
ATOM     10  C   UNL     1       0.378  -1.542  -3.467  0.00  0.00    +0.098 C 
ATOM     11  C   UNL     1      -0.006  -0.413  -2.545  0.00  0.00    +0.105 C 
ENDROOT
BRANCH  11  12
ATOM     12  C   UNL     1      -1.368   0.111  -2.922  0.00  0.00    +0.015 A 
ATOM     13  C   UNL     1      -1.523   1.447  -3.325  0.00  0.00    -0.010 A 
ATOM     14  C   UNL     1      -0.425   2.322  -3.388  0.00  0.00    +0.009 A 
ATOM     15  C   UNL     1      -0.612   3.611  -3.784  0.00  0.00    +0.001 A 
ATOM     16  C   UNL     1      -1.879   4.078  -4.129  0.00  0.00    +0.001 A 
ATOM     17  C   UNL     1      -2.965   3.260  -4.080  0.00  0.00    +0.008 A 
ATOM     18  C   UNL     1      -2.811   1.923  -3.677  0.00  0.00    -0.017 A 
ATOM     19  C   UNL     1      -3.911   1.049  -3.615  0.00  0.00    +0.012 A 
ATOM     20  C   UNL     1      -3.728  -0.239  -3.220  0.00  0.00    +0.046 A 
ATOM     21  C   UNL     1      -2.457  -0.712  -2.878  0.00  0.00    +0.122 A 
BRANCH  21  22
ATOM     22  O   UNL     1      -2.304  -2.006  -2.493  0.00  0.00    -0.506 OA
ATOM     23  H   UNL     1      -2.403  -2.147  -1.541  0.00  0.00    +0.292 HD
ENDBRANCH  21  22
ENDBRANCH  11  12
BRANCH   9  24
ATOM     24  N   UNL     1       0.764  -3.775  -4.011  0.00  0.00    -0.328 N 
ATOM     25  H   UNL     1       0.793  -4.713  -3.767  0.00  0.00    +0.145 HD
ATOM     26  H   UNL     1       0.993  -3.501  -4.913  0.00  0.00    +0.145 HD
ENDBRANCH   9  24
BRANCH  10  27
ATOM     27  C   UNL     1       0.735  -1.229  -4.818  0.00  0.00    +0.101 C 
ATOM     28  N   UNL     1       1.018  -0.980  -5.890  0.00  0.00    -0.191 NA
ENDBRANCH  10  27
TORSDOF 4
