REMARK  Name = ZINC64202039
REMARK  8 active torsions:
REMARK  status: ('A' for Active; 'I' for Inactive)
REMARK    1  A    between atoms: C_1  and  N_2
REMARK    2  A    between atoms: N_2  and  C_3
REMARK    3  A    between atoms: N_2  and  C_24
REMARK    4  A    between atoms: C_3  and  C_4
REMARK    5  A    between atoms: C_9  and  N_10
REMARK    6  A    between atoms: C_11  and  C_13
REMARK    7  A    between atoms: C_13  and  C_14
REMARK    8  A    between atoms: C_14  and  C_15
REMARK                            x       y       z     vdW  Elec       q    Type
REMARK                         _______ _______ _______ _____ _____    ______ ____
ROOT
ATOM      1  C   UNL     1      -2.081  -0.122  -1.270  0.00  0.00    -0.043 A 
ATOM      2  C   UNL     1      -2.940   0.960  -1.290  0.00  0.00    +0.003 A 
ATOM      3  C   UNL     1      -3.578   1.317  -2.464  0.00  0.00    +0.000 A 
ATOM      4  C   UNL     1      -3.358   0.592  -3.622  0.00  0.00    +0.002 A 
ATOM      5  C   UNL     1      -2.501  -0.490  -3.608  0.00  0.00    +0.023 A 
ATOM      6  C   UNL     1      -1.854  -0.848  -2.432  0.00  0.00    +0.035 A 
ENDROOT
BRANCH   6   7
ATOM      7  N   UNL     1      -0.981  -1.941  -2.417  0.00  0.00    -0.285 N 
ATOM      8  C   UNL     1      -0.373  -2.334  -3.554  0.00  0.00    +0.218 C 
ATOM      9  O   UNL     1      -0.504  -1.682  -4.568  0.00  0.00    -0.275 OA
ATOM     10  H   UNL     1      -0.812  -2.415  -1.588  0.00  0.00    +0.155 HD
BRANCH   8  11
ATOM     11  C   UNL     1       0.469  -3.584  -3.565  0.00  0.00    +0.100 C 
BRANCH  11  12
ATOM     12  C   UNL     1       1.039  -3.802  -4.968  0.00  0.00    +0.042 C 
BRANCH  12  13
ATOM     13  C   UNL     1       1.881  -5.051  -4.979  0.00  0.00    -0.041 C 
ATOM     14  C   UNL     1       1.489  -6.293  -5.343  0.00  0.00    -0.001 A 
ATOM     15  C   UNL     1       0.209  -6.832  -5.819  0.00  0.00    +0.010 A 
ATOM     16  C   UNL     1       0.120  -8.150  -6.111  0.00  0.00    +0.001 A 
ATOM     17  C   UNL     1       1.216  -9.012  -5.971  0.00  0.00    +0.002 A 
ATOM     18  C   UNL     1       2.424  -8.591  -5.539  0.00  0.00    +0.026 A 
ATOM     19  C   UNL     1       2.632  -7.224  -5.204  0.00  0.00    +0.043 A 
ATOM     20  N   UNL     1       3.689  -6.583  -4.770  0.00  0.00    -0.380 N 
ATOM     21  C   UNL     1       3.338  -5.170  -4.591  0.00  0.00    +0.144 C 
ATOM     22  H   UNL     1       4.560  -6.976  -4.600  0.00  0.00    +0.160 HD
ENDBRANCH  12  13
ENDBRANCH  11  12
ENDBRANCH   8  11
ENDBRANCH   6   7
BRANCH   1  23
ATOM     23  C   UNL     1      -1.386  -0.510   0.009  0.00  0.00    -0.041 C 
BRANCH  23  25
ATOM     24  C   UNL     1      -0.043   1.478   0.002  0.00  0.00    -0.095 C 
ATOM     25  N   UNL     1      -0.012   0.009  -0.003  0.00  0.00    +0.382 N 
ATOM     26  H   UNL     1       0.463  -0.315  -0.833  0.00  0.00    -0.081 HD
BRANCH  25  27
ATOM     27  C   UNL     1       0.703  -0.469   1.188  0.00  0.00    -0.069 C 
ATOM     28  C   UNL     1       2.134   0.071   1.175  0.00  0.00    -0.015 C 
ATOM     29  C   UNL     1       2.878  -0.427   2.416  0.00  0.00    -0.002 C 
ATOM     30  C   UNL     1       2.911  -1.956   2.411  0.00  0.00    -0.000 C 
ATOM     31  C   UNL     1       1.480  -2.497   2.424  0.00  0.00    -0.002 C 
ATOM     32  C   UNL     1       0.735  -1.999   1.183  0.00  0.00    -0.015 C 
ENDBRANCH  25  27
ENDBRANCH  23  25
ENDBRANCH   1  23
TORSDOF 7
