REMARK  Name = ZINC39356818
REMARK  11 active torsions:
REMARK  status: ('A' for Active; 'I' for Inactive)
REMARK    1  A    between atoms: C_1  and  C_2
REMARK    2  A    between atoms: C_5  and  C_39
REMARK    3  A    between atoms: C_6  and  C_8
REMARK    4  A    between atoms: C_12  and  C_14
REMARK    5  A    between atoms: C_14  and  N_15
REMARK    6  A    between atoms: C_27  and  N_33
REMARK    7  A    between atoms: C_29  and  O_31
REMARK    8  A    between atoms: O_31  and  C_32
REMARK    9  A    between atoms: C_34  and  C_36
REMARK   10  A    between atoms: C_36  and  C_37
REMARK   11  A    between atoms: C_36  and  C_38
REMARK                            x       y       z     vdW  Elec       q    Type
REMARK                         _______ _______ _______ _____ _____    ______ ____
ROOT
ATOM      1  N   UNL     1      -1.137  -0.806   5.417  0.00  0.00    +0.380 N 
ATOM      2  C   UNL     1      -0.032   0.160   5.422  0.00  0.00    -0.078 C 
ATOM      3  C   UNL     1       0.114   0.764   6.821  0.00  0.00    -0.005 C 
ATOM      4  C   UNL     1      -1.190   1.454   7.212  0.00  0.00    +0.021 C 
ATOM      5  C   UNL     1      -2.357   0.474   7.112  0.00  0.00    -0.005 C 
ATOM      6  C   UNL     1      -2.402  -0.118   5.702  0.00  0.00    -0.078 C 
ATOM      7  C   UNL     1      -1.092   2.012   8.611  0.00  0.00    -0.034 A 
ATOM      8  C   UNL     1      -1.181   1.383   9.842  0.00  0.00    +0.004 A 
ATOM      9  C   UNL     1      -1.060   2.114  11.007  0.00  0.00    +0.000 A 
ATOM     10  C   UNL     1      -0.850   3.479  10.947  0.00  0.00    +0.000 A 
ATOM     11  C   UNL     1      -0.759   4.109   9.722  0.00  0.00    +0.006 A 
ATOM     12  C   UNL     1      -0.879   3.378   8.552  0.00  0.00    -0.021 A 
ATOM     13  C   UNL     1      -0.814   3.823   7.106  0.00  0.00    +0.133 C 
ATOM     14  C   UNL     1      -1.440   2.666   6.297  0.00  0.00    +0.153 C 
ATOM     15  H   UNL     1      -0.971  -1.508   6.122  0.00  0.00    -0.082 HD
ENDROOT
BRANCH  13  16
ATOM     16  N   UNL     1       0.578   4.034   6.701  0.00  0.00    -0.306 N 
ATOM     17  C   UNL     1       1.171   5.224   6.920  0.00  0.00    +0.216 C 
ATOM     18  O   UNL     1       0.553   6.121   7.453  0.00  0.00    -0.276 OA
ATOM     19  H   UNL     1       1.073   3.316   6.275  0.00  0.00    +0.149 HD
BRANCH  17  20
ATOM     20  C   UNL     1       2.603   5.440   6.504  0.00  0.00    +0.069 C 
ATOM     21  C   UNL     1       3.030   6.864   6.864  0.00  0.00    +0.017 C 
ATOM     22  C   UNL     1       3.503   4.439   7.231  0.00  0.00    +0.017 C 
ENDBRANCH  17  20
ENDBRANCH  13  16
BRANCH  14  23
ATOM     23  O   UNL     1      -2.841   2.879   6.107  0.00  0.00    -0.377 OA
ATOM     24  C   UNL     1      -3.173   3.463   4.846  0.00  0.00    +0.194 C 
ENDBRANCH  14  23
BRANCH   1  25
ATOM     25  C   UNL     1      -1.217  -1.449   4.098  0.00  0.00    -0.063 C 
BRANCH  25  30
ATOM     26  C   UNL     1       0.052  -2.845   2.450  0.00  0.00    +0.077 C 
ATOM     27  N   UNL     1       0.075  -4.141   2.599  0.00  0.00    -0.153 NA
ATOM     28  N   UNL     1       0.084  -4.516   3.938  0.00  0.00    -0.161 NA
ATOM     29  C   UNL     1       0.068  -3.500   4.737  0.00  0.00    +0.115 C 
ATOM     30  C   UNL     1       0.051  -2.269   3.853  0.00  0.00    +0.066 C 
BRANCH  26  36
ATOM     31  C   UNL     1      -0.018   1.503   0.010  0.00  0.00    +0.044 C 
ATOM     32  C   UNL     1       0.002  -0.004   0.002  0.00  0.00    -0.050 A 
ATOM     33  C   UNL     1       0.006  -0.688  -1.202  0.00  0.00    +0.003 A 
ATOM     34  C   UNL     1       0.024  -2.071  -1.220  0.00  0.00    +0.004 A 
ATOM     35  C   UNL     1       0.039  -2.780  -0.037  0.00  0.00    -0.042 A 
ATOM     36  C   UNL     1       0.036  -2.096   1.183  0.00  0.00    +0.002 A 
ATOM     37  C   UNL     1       0.023  -0.698   1.193  0.00  0.00    +0.013 A 
ATOM     38  C   UNL     1       0.059  -4.287  -0.059  0.00  0.00    +0.044 C 
ENDBRANCH  26  36
ENDBRANCH  25  30
ENDBRANCH   1  25
TORSDOF 6
