REMARK  Name = ZINC34699196
REMARK  9 active torsions:
REMARK  status: ('A' for Active; 'I' for Inactive)
REMARK    1  A    between atoms: C_1  and  C_2
REMARK    2  A    between atoms: C_6  and  C_8
REMARK    3  A    between atoms: N_10  and  C_11
REMARK    4  A    between atoms: N_10  and  C_33
REMARK    5  A    between atoms: C_11  and  C_12
REMARK    6  A    between atoms: N_15  and  C_26
REMARK    7  A    between atoms: C_17  and  C_19
REMARK    8  A    between atoms: C_26  and  C_27
REMARK    9  A    between atoms: N_31  and  C_32
REMARK                            x       y       z     vdW  Elec       q    Type
REMARK                         _______ _______ _______ _____ _____    ______ ____
ROOT
ATOM      1  C   UNL     1      -0.872  -5.359   4.452  0.00  0.00    -0.005 C 
ATOM      2  C   UNL     1      -2.091  -4.644   5.074  0.00  0.00    -0.073 C 
ATOM      3  N   UNL     1      -2.638  -5.618   6.052  0.00  0.00    +0.384 N 
ATOM      4  C   UNL     1      -1.433  -6.228   6.673  0.00  0.00    -0.070 C 
ATOM      5  C   UNL     1      -0.439  -6.403   5.502  0.00  0.00    +0.005 C 
ATOM      6  H   UNL     1      -3.186  -6.322   5.581  0.00  0.00    -0.081 HD
ENDROOT
BRANCH   5   7
ATOM      7  C   UNL     1       0.969  -6.127   5.965  0.00  0.00    -0.046 A 
ATOM      8  C   UNL     1       2.015  -6.896   5.490  0.00  0.00    +0.006 A 
ATOM      9  C   UNL     1       3.307  -6.643   5.913  0.00  0.00    +0.038 A 
ATOM     10  C   UNL     1       3.552  -5.620   6.813  0.00  0.00    +0.123 A 
ATOM     11  C   UNL     1       2.503  -4.850   7.288  0.00  0.00    +0.038 A 
ATOM     12  C   UNL     1       1.213  -5.101   6.859  0.00  0.00    +0.006 A 
ATOM     13  F   UNL     1       4.814  -5.372   7.227  0.00  0.00    -0.205 F 
ENDBRANCH   5   7
BRANCH   1  14
ATOM     14  C   UNL     1       0.259  -4.360   4.198  0.00  0.00    +0.110 C 
BRANCH  14  17
ATOM     15  C   UNL     1      -0.739  -2.329   3.295  0.00  0.00    +0.247 C 
ATOM     16  O   UNL     1      -1.098  -1.643   2.357  0.00  0.00    -0.270 OA
ATOM     17  N   UNL     1      -0.099  -3.494   3.072  0.00  0.00    -0.294 N 
BRANCH  15  23
ATOM     18  C   UNL     1      -3.907  -0.593   6.738  0.00  0.00    +0.044 C 
ATOM     19  C   UNL     1      -2.526  -1.049   6.340  0.00  0.00    -0.050 A 
ATOM     20  C   UNL     1      -1.505  -1.052   7.273  0.00  0.00    +0.003 A 
ATOM     21  C   UNL     1      -0.235  -1.469   6.916  0.00  0.00    +0.001 A 
ATOM     22  C   UNL     1       0.020  -1.885   5.625  0.00  0.00    +0.013 A 
ATOM     23  C   UNL     1      -1.006  -1.885   4.680  0.00  0.00    +0.037 A 
ATOM     24  C   UNL     1      -2.286  -1.468   5.048  0.00  0.00    +0.016 A 
ENDBRANCH  15  23
BRANCH  17  25
ATOM     25  C   UNL     1       0.239  -3.894   1.704  0.00  0.00    +0.076 C 
ATOM     26  C   UNL     1       0.213  -2.810   0.624  0.00  0.00    +0.024 C 
ATOM     27  C   UNL     1      -0.884  -3.876   0.665  0.00  0.00    +0.024 C 
ENDBRANCH  17  25
ENDBRANCH  14  17
ENDBRANCH   1  14
BRANCH   3  28
ATOM     28  C   UNL     1      -3.445  -4.928   7.067  0.00  0.00    -0.024 C 
BRANCH  28  29
ATOM     29  C   UNL     1      -4.088  -5.946   7.974  0.00  0.00    +0.002 A 
ATOM     30  C   UNL     1      -3.605  -6.364   9.162  0.00  0.00    +0.021 A 
ATOM     31  C   UNL     1      -4.510  -7.313   9.675  0.00  0.00    +0.019 A 
ATOM     32  C   UNL     1      -5.512  -7.440   8.782  0.00  0.00    +0.085 A 
ATOM     33  N   UNL     1      -5.262  -6.598   7.739  0.00  0.00    -0.355 N 
ATOM     34  C   UNL     1      -6.111  -6.427   6.557  0.00  0.00    +0.148 C 
ENDBRANCH  28  29
ENDBRANCH   3  28
TORSDOF 7
