REMARK  Name = ZINC67517412
REMARK  5 active torsions:
REMARK  status: ('A' for Active; 'I' for Inactive)
REMARK    1  A    between atoms: C_1  and  C_2
REMARK    2  A    between atoms: C_3  and  C_8
REMARK    3  A    between atoms: C_4  and  C_7
REMARK    4  A    between atoms: C_8  and  C_9
REMARK    5  A    between atoms: C_21  and  C_24
REMARK                            x       y       z     vdW  Elec       q    Type
REMARK                         _______ _______ _______ _____ _____    ______ ____
ROOT
ATOM      1  C   UNL     1       1.411  -0.170  -3.054  0.00  0.00    +0.220 C 
ATOM      2  O   UNL     1       2.340  -0.406  -2.311  0.00  0.00    -0.275 OA
ATOM      3  N   UNL     1       1.645   0.252  -4.312  0.00  0.00    -0.298 N 
ATOM      4  C   UNL     1       0.534   0.550  -5.229  0.00  0.00    +0.108 C 
ATOM      5  C   UNL     1       0.712   1.964  -5.790  0.00  0.00    +0.019 C 
ATOM      6  C   UNL     1       2.104   2.099  -6.415  0.00  0.00    +0.007 C 
ATOM      7  C   UNL     1       3.163   1.856  -5.340  0.00  0.00    +0.010 C 
ATOM      8  C   UNL     1       3.016   0.433  -4.804  0.00  0.00    +0.079 C 
ATOM      9  C   UNL     1       4.023   0.221  -3.675  0.00  0.00    +0.023 C 
ATOM     10  C   UNL     1       5.439   0.411  -4.227  0.00  0.00    +0.005 C 
ATOM     11  C   UNL     1       5.589   1.821  -4.799  0.00  0.00    -0.014 C 
ATOM     12  C   UNL     1       4.567   2.024  -5.918  0.00  0.00    +0.008 C 
ATOM     13  C   UNL     1       5.359   2.847  -3.687  0.00  0.00    +0.007 C 
ENDROOT
BRANCH   1  14
ATOM     14  C   UNL     1      -0.005  -0.348  -2.571  0.00  0.00    +0.136 C 
BRANCH  14  17
ATOM     15  C   UNL     1      -0.018   1.503   0.010  0.00  0.00    +0.069 C 
ATOM     16  C   UNL     1       0.002  -0.004   0.002  0.00  0.00    +0.084 A 
ATOM     17  C   UNL     1       0.008  -0.824  -1.141  0.00  0.00    +0.026 A 
ATOM     18  C   UNL     1       0.027  -2.108  -0.735  0.00  0.00    +0.138 A 
ATOM     19  O   UNL     1       0.034  -2.119   0.606  0.00  0.00    -0.359 OA
ATOM     20  N   UNL     1       0.023  -0.775   1.052  0.00  0.00    -0.083 NA
ATOM     21  C   UNL     1       0.039  -3.320  -1.631  0.00  0.00    +0.089 C 
ENDBRANCH  14  17
ENDBRANCH   1  14
TORSDOF 2
