REMARK  Name = ZINC55568941
REMARK  4 active torsions:
REMARK  status: ('A' for Active; 'I' for Inactive)
REMARK    1  A    between atoms: C_12  and  C_14
REMARK    2  A    between atoms: C_14  and  C_15
REMARK    3  A    between atoms: N_22  and  C_23
REMARK    4  A    between atoms: C_23  and  C_24
REMARK                            x       y       z     vdW  Elec       q    Type
REMARK                         _______ _______ _______ _____ _____    ______ ____
ROOT
ATOM      1  C   UNL     1       0.627  -3.974  -4.254  0.00  0.00    +0.152 C 
ATOM      2  C   UNL     1       1.127  -4.721  -5.458  0.00  0.00    +0.231 C 
ATOM      3  O   UNL     1       2.123  -5.402  -5.347  0.00  0.00    -0.274 OA
ATOM      4  N   UNL     1       0.518  -4.665  -6.648  0.00  0.00    -0.313 N 
ATOM      5  C   UNL     1      -0.666  -3.848  -6.896  0.00  0.00    +0.119 C 
ATOM      6  C   UNL     1      -1.330  -3.470  -5.571  0.00  0.00    +0.104 C 
ATOM      7  N   UNL     1      -0.304  -2.917  -4.672  0.00  0.00    -0.285 NA
ATOM      8  H   UNL     1       0.880  -5.191  -7.378  0.00  0.00    +0.149 HD
ENDROOT
BRANCH   1   9
ATOM      9  C   UNL     1       1.812  -3.345  -3.518  0.00  0.00    +0.124 C 
BRANCH   9  21
ATOM     10  C   UNL     1       6.568  -2.129  -7.566  0.00  0.00    +0.001 A 
ATOM     11  C   UNL     1       7.658  -2.515  -6.808  0.00  0.00    +0.004 A 
ATOM     12  C   UNL     1       7.634  -2.381  -5.433  0.00  0.00    +0.046 A 
ATOM     13  C   UNL     1       6.514  -1.846  -4.811  0.00  0.00    +0.125 A 
ATOM     14  C   UNL     1       5.439  -1.430  -5.581  0.00  0.00    +0.012 A 
ATOM     15  C   UNL     1       5.453  -1.586  -6.950  0.00  0.00    +0.009 A 
ATOM     16  C   UNL     1       4.271  -0.753  -4.893  0.00  0.00    +0.146 C 
ATOM     17  N   UNL     1       3.615  -1.726  -4.012  0.00  0.00    -0.294 N 
ATOM     18  C   UNL     1       4.175  -2.026  -2.694  0.00  0.00    +0.149 C 
ATOM     19  C   UNL     1       5.553  -2.660  -2.812  0.00  0.00    +0.248 C 
ATOM     20  O   UNL     1       6.459  -1.759  -3.458  0.00  0.00    -0.490 OA
ATOM     21  C   UNL     1       2.489  -2.346  -4.420  0.00  0.00    +0.218 C 
ATOM     22  O   UNL     1       2.022  -2.099  -5.511  0.00  0.00    -0.276 OA
ENDBRANCH   9  21
ENDBRANCH   1   9
BRANCH   7  23
ATOM     23  C   UNL     1      -0.922  -2.269  -3.507  0.00  0.00    +0.122 C 
BRANCH  23  24
ATOM     24  C   UNL     1      -1.558  -0.971  -3.933  0.00  0.00    -0.015 A 
ATOM     25  C   UNL     1      -0.829   0.208  -3.914  0.00  0.00    +0.008 A 
ATOM     26  C   UNL     1      -1.455   1.378  -4.315  0.00  0.00    +0.020 A 
ATOM     27  C   UNL     1      -2.777   1.331  -4.717  0.00  0.00    +0.111 A 
ATOM     28  N   UNL     1      -3.440   0.191  -4.722  0.00  0.00    -0.263 NA
ATOM     29  C   UNL     1      -2.874  -0.942  -4.354  0.00  0.00    +0.115 A 
ENDBRANCH  23  24
ENDBRANCH   7  23
TORSDOF 4
