REMARK  Name = ZINC01855619
REMARK  5 active torsions:
REMARK  status: ('A' for Active; 'I' for Inactive)
REMARK    1  A    between atoms: C_1  and  O_2
REMARK    2  A    between atoms: O_2  and  C_3
REMARK    3  A    between atoms: C_5  and  C_11
REMARK    4  A    between atoms: C_8  and  O_9
REMARK    5  A    between atoms: N_12  and  N_13
REMARK                            x       y       z     vdW  Elec       q    Type
REMARK                         _______ _______ _______ _____ _____    ______ ____
ROOT
ATOM      1  C   UNL     1       2.386  -4.178  -0.044  0.00  0.00    +0.163 A 
ATOM      2  C   UNL     1       2.373  -2.796  -0.041  0.00  0.00    +0.059 A 
ATOM      3  C   UNL     1       1.154  -2.112  -0.020  0.00  0.00    -0.001 A 
ATOM      4  C   UNL     1      -0.045  -2.828  -0.013  0.00  0.00    +0.027 A 
ATOM      5  C   UNL     1      -0.024  -4.208  -0.021  0.00  0.00    +0.059 A 
ATOM      6  C   UNL     1       1.187  -4.886  -0.036  0.00  0.00    +0.172 A 
ATOM      7  I   UNL     1      -1.823  -5.280  -0.009  0.00  0.00    -0.040 I 
ENDROOT
BRANCH   1   9
ATOM      8  C   UNL     1       4.761  -4.056  -0.065  0.00  0.00    +0.277 C 
ATOM      9  O   UNL     1       3.570  -4.846  -0.058  0.00  0.00    -0.491 OA
ENDBRANCH   1   9
BRANCH   6  10
ATOM     10  O   UNL     1       1.202  -6.246  -0.044  0.00  0.00    -0.503 OA
ATOM     11  H   UNL     1       1.198  -6.634  -0.930  0.00  0.00    +0.292 HD
ENDBRANCH   6  10
BRANCH   3  12
ATOM     12  C   UNL     1       1.134  -0.637  -0.012  0.00  0.00    +0.138 C 
ATOM     13  N   UNL     1       0.002  -0.004   0.002  0.00  0.00    -0.186 NA
BRANCH  13  14
ATOM     14  N   UNL     1      -0.017   1.397   0.010  0.00  0.00    -0.191 N 
ATOM     15  C   UNL     1      -1.193   2.055   0.019  0.00  0.00    +0.317 C 
ATOM     16  O   UNL     1      -1.210   3.271   0.026  0.00  0.00    -0.251 OA
ATOM     17  N   UNL     1      -2.351   1.365   0.021  0.00  0.00    -0.312 N 
ATOM     18  H   UNL     1       0.816   1.893   0.004  0.00  0.00    +0.179 HD
ATOM     19  H   UNL     1      -2.338   0.395   0.015  0.00  0.00    +0.147 HD
ATOM     20  H   UNL     1      -3.198   1.839   0.027  0.00  0.00    +0.147 HD
ENDBRANCH  13  14
ENDBRANCH   3  12
TORSDOF 4
