REMARK  Name = ZINC27452668
REMARK  9 active torsions:
REMARK  status: ('A' for Active; 'I' for Inactive)
REMARK    1  A    between atoms: C_1  and  C_2
REMARK    2  A    between atoms: C_2  and  C_3
REMARK    3  A    between atoms: C_2  and  C_4
REMARK    4  A    between atoms: C_4  and  C_6
REMARK    5  A    between atoms: C_4  and  N_18
REMARK    6  A    between atoms: C_9  and  C_12
REMARK    7  A    between atoms: N_18  and  C_19
REMARK    8  A    between atoms: C_19  and  C_20
REMARK    9  A    between atoms: C_26  and  C_29
REMARK                            x       y       z     vdW  Elec       q    Type
REMARK                         _______ _______ _______ _____ _____    ______ ____
ROOT
ATOM      1  N   UNL     1      -0.460   2.104   1.332  0.00  0.00    +0.389 N 
ATOM      2  H   UNL     1      -0.673   3.162   1.119  0.00  0.00    -0.084 HD
ATOM      3  H   UNL     1      -1.392   1.591   1.611  0.00  0.00    -0.084 HD
ENDROOT
BRANCH   1   4
ATOM      4  C   UNL     1       0.109   1.468   0.136  0.00  0.00    -0.038 C 
BRANCH   4   5
ATOM      5  C   UNL     1      -0.545   2.039  -1.096  0.00  0.00    -0.061 A 
ATOM      6  C   UNL     1      -1.904   2.293  -1.102  0.00  0.00    +0.002 A 
ATOM      7  C   UNL     1      -2.503   2.821  -2.231  0.00  0.00    +0.004 A 
ATOM      8  C   UNL     1      -1.744   3.087  -3.356  0.00  0.00    -0.044 A 
ATOM      9  C   UNL     1      -0.386   2.828  -3.351  0.00  0.00    +0.004 A 
ATOM     10  C   UNL     1       0.213   2.304  -2.221  0.00  0.00    +0.002 A 
BRANCH   8  11
ATOM     11  C   UNL     1      -2.398   3.659  -4.587  0.00  0.00    +0.019 C 
ATOM     12  C   UNL     1      -3.039   5.005  -4.246  0.00  0.00    +0.008 C 
ATOM     13  C   UNL     1      -3.702   5.586  -5.496  0.00  0.00    +0.001 C 
ATOM     14  C   UNL     1      -4.779   4.621  -5.996  0.00  0.00    +0.000 C 
ATOM     15  C   UNL     1      -4.139   3.275  -6.338  0.00  0.00    +0.001 C 
ATOM     16  C   UNL     1      -3.475   2.694  -5.088  0.00  0.00    +0.008 C 
ENDBRANCH   8  11
ENDBRANCH   4   5
BRANCH   4  18
ATOM     17  C   UNL     1      -1.645  -0.307   0.251  0.00  0.00    +0.006 C 
ATOM     18  C   UNL     1      -0.140  -0.040   0.193  0.00  0.00    -0.027 C 
ATOM     19  C   UNL     1       0.448  -0.701  -1.056  0.00  0.00    +0.006 C 
ENDBRANCH   4  18
ENDBRANCH   1   4
BRANCH   1  20
ATOM     20  C   UNL     1       0.475   2.031   2.462  0.00  0.00    +0.016 C 
BRANCH  20  21
ATOM     21  C   UNL     1      -0.167   2.634   3.685  0.00  0.00    +0.199 C 
ATOM     22  O   UNL     1      -1.293   3.080   3.621  0.00  0.00    -0.278 OA
ATOM     23  N   UNL     1       0.510   2.677   4.850  0.00  0.00    -0.302 N 
ATOM     24  C   UNL     1       1.872   2.135   4.945  0.00  0.00    +0.108 C 
ATOM     25  C   UNL     1       1.929   1.132   6.096  0.00  0.00    +0.020 C 
ATOM     26  C   UNL     1       1.428   1.800   7.378  0.00  0.00    +0.016 C 
ATOM     27  C   UNL     1      -0.026   2.241   7.191  0.00  0.00    +0.092 C 
ATOM     28  C   UNL     1      -0.103   3.261   6.051  0.00  0.00    +0.120 C 
BRANCH  27  29
ATOM     29  C   UNL     1      -0.529   2.870   8.464  0.00  0.00    +0.215 C 
ATOM     30  O   UNL     1       0.202   2.955   9.428  0.00  0.00    -0.276 OA
ATOM     31  N   UNL     1      -1.791   3.338   8.532  0.00  0.00    -0.329 N 
ATOM     32  H   UNL     1      -2.158   3.797   9.462  0.00  0.00    +0.145 HD
ATOM     33  H   UNL     1      -2.454   3.260   7.658  0.00  0.00    +0.145 HD
ENDBRANCH  27  29
ENDBRANCH  20  21
ENDBRANCH   1  20
TORSDOF 7
