REMARK  Name = ZINC11996413
REMARK  7 active torsions:
REMARK  status: ('A' for Active; 'I' for Inactive)
REMARK    1  A    between atoms: C_1  and  C_2
REMARK    2  A    between atoms: C_9  and  C_22
REMARK    3  A    between atoms: N_12  and  C_13
REMARK    4  A    between atoms: C_22  and  N_63
REMARK    5  A    between atoms: C_25  and  C_28
REMARK    6  A    between atoms: C_28  and  C_30
REMARK    7  A    between atoms: C_28  and  O_35
REMARK                            x       y       z     vdW  Elec       q    Type
REMARK                         _______ _______ _______ _____ _____    ______ ____
ROOT
ATOM      1  C   UNL     1      -6.205   1.124  -0.378  0.00  0.00    +0.046 C 
ATOM      2  C   UNL     1      -4.847   0.499  -0.189  0.00  0.00    -0.024 A 
ATOM      3  C   UNL     1      -4.736  -0.838   0.055  0.00  0.00    +0.005 A 
ATOM      4  C   UNL     1      -3.490  -1.434   0.233  0.00  0.00    +0.001 A 
ATOM      5  C   UNL     1      -2.345  -0.695   0.168  0.00  0.00    +0.013 A 
ATOM      6  C   UNL     1      -2.424   0.678  -0.087  0.00  0.00    +0.041 A 
ATOM      7  C   UNL     1      -3.691   1.287  -0.262  0.00  0.00    +0.079 A 
ATOM      8  N   UNL     1      -3.745   2.606  -0.499  0.00  0.00    -0.234 NA
ATOM      9  C   UNL     1      -2.643   3.316  -0.561  0.00  0.00    +0.115 A 
ATOM     10  N   UNL     1      -1.439   2.793  -0.399  0.00  0.00    -0.219 NA
ATOM     11  C   UNL     1      -1.272   1.499  -0.160  0.00  0.00    +0.134 A 
ATOM     12  N   UNL     1      -0.011   0.966   0.007  0.00  0.00    -0.299 N 
ATOM     13  H   UNL     1       0.102   0.006   0.094  0.00  0.00    +0.154 HD
ENDROOT
BRANCH  12  14
ATOM     14  C   UNL     1       1.106   1.809   0.046  0.00  0.00    +0.036 A 
ATOM     15  C   UNL     1       2.324   1.371  -0.455  0.00  0.00    +0.027 A 
ATOM     16  C   UNL     1       3.426   2.204  -0.421  0.00  0.00    +0.051 A 
ATOM     17  C   UNL     1       3.321   3.474   0.121  0.00  0.00    +0.166 A 
ATOM     18  C   UNL     1       2.102   3.915   0.629  0.00  0.00    +0.168 A 
ATOM     19  C   UNL     1       0.996   3.081   0.590  0.00  0.00    +0.072 A 
ATOM     20  O   UNL     1       2.259   5.186   1.100  0.00  0.00    -0.453 OA
ATOM     21  C   UNL     1       3.679   5.369   1.248  0.00  0.00    +0.466 C 
ATOM     22  O   UNL     1       4.243   4.471   0.274  0.00  0.00    -0.453 OA
ENDBRANCH  12  14
BRANCH   9  23
ATOM     23  C   UNL     1      -2.755   4.795  -0.829  0.00  0.00    -0.001 C 
BRANCH  23  29
ATOM     24  C   UNL     1      -1.403   4.671  -2.834  0.00  0.00    -0.078 C 
ATOM     25  C   UNL     1      -1.442   4.794  -4.359  0.00  0.00    -0.012 C 
ATOM     26  C   UNL     1      -1.797   6.234  -4.740  0.00  0.00    +0.019 C 
ATOM     27  C   UNL     1      -3.143   6.603  -4.109  0.00  0.00    -0.012 C 
ATOM     28  C   UNL     1      -3.054   6.428  -2.592  0.00  0.00    -0.078 C 
ATOM     29  N   UNL     1      -2.734   5.016  -2.290  0.00  0.00    +0.384 N 
ATOM     30  H   UNL     1      -3.439   4.413  -2.729  0.00  0.00    -0.081 HD
BRANCH  26  31
ATOM     31  C   UNL     1      -1.897   6.349  -6.263  0.00  0.00    +0.154 C 
BRANCH  31  32
ATOM     32  C   UNL     1      -0.573   5.985  -6.882  0.00  0.00    +0.018 A 
ATOM     33  C   UNL     1      -0.189   4.816  -7.450  0.00  0.00    +0.014 A 
ATOM     34  C   UNL     1       1.090   4.708  -7.964  0.00  0.00    +0.008 A 
ATOM     35  C   UNL     1       1.926   5.772  -7.875  0.00  0.00    +0.045 A 
ATOM     36  S   UNL     1       0.900   6.979  -7.052  0.00  0.00    -0.099 S 
ENDBRANCH  31  32
BRANCH  31  37
ATOM     37  O   UNL     1      -2.236   7.691  -6.617  0.00  0.00    -0.386 OA
ATOM     38  H   UNL     1      -1.593   8.350  -6.323  0.00  0.00    +0.210 HD
ENDBRANCH  31  37
ENDBRANCH  26  31
ENDBRANCH  23  29
ENDBRANCH   9  23
TORSDOF 6
