REMARK  Name = ZINC40947119
REMARK  10 active torsions:
REMARK  status: ('A' for Active; 'I' for Inactive)
REMARK    1  A    between atoms: C_1  and  O_2
REMARK    2  A    between atoms: O_2  and  C_3
REMARK    3  A    between atoms: C_5  and  C_18
REMARK    4  A    between atoms: C_8  and  O_9
REMARK    5  A    between atoms: O_9  and  C_10
REMARK    6  A    between atoms: C_10  and  C_11
REMARK    7  A    between atoms: N_19  and  N_20
REMARK    8  A    between atoms: C_21  and  C_23
REMARK    9  A    between atoms: C_23  and  S_24
REMARK   10  A    between atoms: S_24  and  C_25
REMARK                            x       y       z     vdW  Elec       q    Type
REMARK                         _______ _______ _______ _____ _____    ______ ____
ROOT
ATOM      1  C   UNL     1      -1.239  -0.584  -0.608  0.00  0.00    +0.162 A 
ATOM      2  C   UNL     1      -2.376   0.051  -0.146  0.00  0.00    +0.059 A 
ATOM      3  C   UNL     1      -3.637  -0.448  -0.483  0.00  0.00    -0.002 A 
ATOM      4  C   UNL     1      -3.742  -1.586  -1.286  0.00  0.00    +0.013 A 
ATOM      5  C   UNL     1      -2.603  -2.215  -1.744  0.00  0.00    +0.050 A 
ATOM      6  C   UNL     1      -1.351  -1.716  -1.413  0.00  0.00    +0.162 A 
ENDROOT
BRANCH   1   8
ATOM      7  C   UNL     1       0.031   1.062   0.546  0.00  0.00    +0.277 C 
ATOM      8  O   UNL     1      -0.010  -0.101  -0.282  0.00  0.00    -0.491 OA
ENDBRANCH   1   8
BRANCH   3   9
ATOM      9  C   UNL     1      -4.853   0.226   0.008  0.00  0.00    +0.138 C 
ATOM     10  N   UNL     1      -6.000  -0.380  -0.053  0.00  0.00    -0.188 NA
BRANCH  10  11
ATOM     11  N   UNL     1      -6.053  -1.780  -0.055  0.00  0.00    -0.206 N 
ATOM     12  C   UNL     1      -7.228  -2.410  -0.251  0.00  0.00    +0.242 C 
ATOM     13  O   UNL     1      -8.241  -1.764  -0.424  0.00  0.00    -0.273 OA
ATOM     14  H   UNL     1      -5.243  -2.297   0.084  0.00  0.00    +0.177 HD
BRANCH  12  15
ATOM     15  C   UNL     1      -7.285  -3.916  -0.253  0.00  0.00    +0.173 C 
BRANCH  15  16
ATOM     16  S   UNL     1      -8.993  -4.455  -0.538  0.00  0.00    -0.088 S 
BRANCH  16  17
ATOM     17  C   UNL     1      -8.895  -6.215  -0.513  0.00  0.00    +0.160 A 
ATOM     18  N   UNL     1      -7.844  -6.990  -0.327  0.00  0.00    -0.133 NA
ATOM     19  N   UNL     1      -7.991  -8.358  -0.346  0.00  0.00    -0.125 NA
ATOM     20  C   UNL     1      -9.181  -8.887  -0.551  0.00  0.00    +0.180 A 
ATOM     21  S   UNL     1     -10.191  -7.425  -0.726  0.00  0.00    -0.025 S 
ATOM     22  N   UNL     1      -9.552 -10.226  -0.609  0.00  0.00    -0.336 N 
ATOM     23  H   UNL     1      -8.884 -10.919  -0.489  0.00  0.00    +0.144 HD
ATOM     24  H   UNL     1     -10.477 -10.466  -0.769  0.00  0.00    +0.144 HD
ENDBRANCH  16  17
ENDBRANCH  15  16
ENDBRANCH  12  15
ENDBRANCH  10  11
ENDBRANCH   3   9
BRANCH   6  25
ATOM     25  O   UNL     1      -0.232  -2.336  -1.871  0.00  0.00    -0.484 OA
BRANCH  25  26
ATOM     26  C   UNL     1      -0.420  -3.491  -2.692  0.00  0.00    +0.264 C 
BRANCH  26  27
ATOM     27  C   UNL     1       0.923  -4.039  -3.102  0.00  0.00    -0.010 A 
ATOM     28  C   UNL     1       1.526  -3.591  -4.263  0.00  0.00    +0.008 A 
ATOM     29  C   UNL     1       2.758  -4.094  -4.639  0.00  0.00    +0.015 A 
ATOM     30  C   UNL     1       3.386  -5.044  -3.855  0.00  0.00    +0.018 A 
ATOM     31  C   UNL     1       2.782  -5.492  -2.694  0.00  0.00    +0.015 A 
ATOM     32  C   UNL     1       1.553  -4.985  -2.315  0.00  0.00    +0.008 A 
ATOM     33 BR   UNL     1       5.071  -5.732  -4.370  0.00  0.00    -0.050 Br
ENDBRANCH  26  27
ENDBRANCH  25  26
ENDBRANCH   6  25
TORSDOF 9
