REMARK  Name = ZINC12852738
REMARK  8 active torsions:
REMARK  status: ('A' for Active; 'I' for Inactive)
REMARK    1  A    between atoms: C_1  and  C_2
REMARK    2  A    between atoms: C_7  and  C_9
REMARK    3  A    between atoms: C_7  and  C_10
REMARK    4  A    between atoms: N_13  and  C_17
REMARK    5  A    between atoms: C_17  and  C_18
REMARK    6  A    between atoms: N_20  and  C_21
REMARK    7  A    between atoms: N_20  and  C_28
REMARK    8  A    between atoms: C_21  and  C_22
REMARK                            x       y       z     vdW  Elec       q    Type
REMARK                         _______ _______ _______ _____ _____    ______ ____
ROOT
ATOM      1  C   UNL     1      -1.960  -3.954  -3.002  0.00  0.00    +0.214 C 
ENDROOT
BRANCH   1  13
ATOM      2  C   UNL     1      -2.434   1.749   0.567  0.00  0.00    +0.007 C 
ATOM      3  C   UNL     1      -2.142   0.245   0.580  0.00  0.00    -0.011 C 
ATOM      4  C   UNL     1      -1.017  -0.059  -0.412  0.00  0.00    +0.038 C 
ATOM      5  C   UNL     1      -0.751  -1.558  -0.443  0.00  0.00    +0.113 C 
ATOM      6  C   UNL     1      -0.476  -2.137   0.930  0.00  0.00    +0.041 C 
ATOM      7  C   UNL     1      -1.402  -1.666   2.038  0.00  0.00    -0.032 C 
ATOM      8  C   UNL     1      -1.682  -0.169   1.976  0.00  0.00    +0.009 C 
ATOM      9  C   UNL     1      -0.717  -1.960   3.390  0.00  0.00    +0.011 C 
ATOM     10  C   UNL     1      -2.719  -2.447   2.013  0.00  0.00    +0.011 C 
ATOM     11  C   UNL     1      -1.863  -2.287  -1.157  0.00  0.00    +0.247 C 
ATOM     12  O   UNL     1      -3.053  -2.246  -0.931  0.00  0.00    -0.273 OA
ATOM     13  N   UNL     1      -1.265  -2.995  -2.140  0.00  0.00    -0.215 N 
ATOM     14  C   UNL     1       0.039  -2.710  -2.225  0.00  0.00    +0.310 C 
ATOM     15  O   UNL     1       0.788  -3.210  -3.042  0.00  0.00    -0.252 OA
ATOM     16  N   UNL     1       0.426  -1.812  -1.304  0.00  0.00    -0.285 N 
ATOM     17  H   UNL     1       1.298  -1.402  -1.210  0.00  0.00    +0.151 HD
ENDBRANCH   1  13
BRANCH   1  18
ATOM     18  C   UNL     1      -2.487  -3.243  -4.222  0.00  0.00    +0.238 C 
ATOM     19  O   UNL     1      -2.221  -2.074  -4.404  0.00  0.00    -0.273 OA
ATOM     20  N   UNL     1      -3.253  -3.906  -5.110  0.00  0.00    -0.266 N 
BRANCH  20  21
ATOM     21  C   UNL     1      -3.651  -5.221  -4.846  0.00  0.00    +0.037 A 
ATOM     22  C   UNL     1      -4.990  -5.511  -4.617  0.00  0.00    +0.023 A 
ATOM     23  C   UNL     1      -5.379  -6.810  -4.356  0.00  0.00    +0.002 A 
ATOM     24  C   UNL     1      -4.438  -7.822  -4.324  0.00  0.00    +0.000 A 
ATOM     25  C   UNL     1      -3.104  -7.537  -4.551  0.00  0.00    +0.002 A 
ATOM     26  C   UNL     1      -2.709  -6.241  -4.818  0.00  0.00    +0.023 A 
ENDBRANCH  20  21
BRANCH  20  27
ATOM     27  C   UNL     1      -3.670  -3.250  -6.352  0.00  0.00    +0.148 C 
BRANCH  27  28
ATOM     28  C   UNL     1      -2.645  -3.508  -7.425  0.00  0.00    -0.030 A 
ATOM     29  C   UNL     1      -1.582  -2.640  -7.589  0.00  0.00    +0.005 A 
ATOM     30  C   UNL     1      -0.641  -2.877  -8.574  0.00  0.00    +0.000 A 
ATOM     31  C   UNL     1      -0.763  -3.982  -9.395  0.00  0.00    +0.000 A 
ATOM     32  C   UNL     1      -1.826  -4.851  -9.230  0.00  0.00    +0.000 A 
ATOM     33  C   UNL     1      -2.764  -4.617  -8.243  0.00  0.00    +0.005 A 
ENDBRANCH  27  28
ENDBRANCH  20  27
ENDBRANCH   1  18
TORSDOF 5
