REMARK  Name = ZINC00884703
REMARK  7 active torsions:
REMARK  status: ('A' for Active; 'I' for Inactive)
REMARK    1  A    between atoms: C_1  and  C_2
REMARK    2  A    between atoms: C_3  and  C_8
REMARK    3  A    between atoms: N_5  and  C_7
REMARK    4  A    between atoms: C_8  and  N_9
REMARK    5  A    between atoms: C_10  and  C_12
REMARK    6  A    between atoms: C_17  and  C_29
REMARK    7  A    between atoms: C_20  and  C_23
REMARK                            x       y       z     vdW  Elec       q    Type
REMARK                         _______ _______ _______ _____ _____    ______ ____
ROOT
ATOM      1  C   UNL     1       2.940   0.924  -4.604  0.00  0.00    +0.149 A 
ATOM      2  C   UNL     1       3.320   1.428  -5.868  0.00  0.00    +0.078 A 
ATOM      3  C   UNL     1       4.643   1.677  -5.827  0.00  0.00    +0.119 A 
ATOM      4  N   UNL     1       5.100   1.343  -4.583  0.00  0.00    -0.238 N 
ATOM      5  N   UNL     1       4.016   0.883  -3.837  0.00  0.00    -0.164 NA
ATOM      6  C   UNL     1       6.500   1.475  -4.168  0.00  0.00    +0.215 C 
ATOM      7  C   UNL     1       7.382   1.556  -5.419  0.00  0.00    +0.063 C 
ATOM      8  C   UNL     1       6.826   2.611  -6.382  0.00  0.00    +0.104 C 
ATOM      9  N   UNL     1       5.483   2.184  -6.822  0.00  0.00    -0.322 N 
ATOM     10  H   UNL     1       5.200   2.252  -7.747  0.00  0.00    +0.148 HD
ENDROOT
BRANCH   8  11
ATOM     11  C   UNL     1       7.738   2.737  -7.576  0.00  0.00    -0.027 A 
ATOM     12  C   UNL     1       7.660   1.818  -8.605  0.00  0.00    +0.005 A 
ATOM     13  C   UNL     1       8.496   1.933  -9.700  0.00  0.00    +0.000 A 
ATOM     14  C   UNL     1       9.409   2.969  -9.766  0.00  0.00    +0.000 A 
ATOM     15  C   UNL     1       9.486   3.889  -8.737  0.00  0.00    +0.000 A 
ATOM     16  C   UNL     1       8.647   3.776  -7.644  0.00  0.00    +0.005 A 
ENDBRANCH   8  11
BRANCH   1  18
ATOM     17  N   UNL     1       1.347   0.058  -2.960  0.00  0.00    -0.306 N 
ATOM     18  C   UNL     1       1.576   0.520  -4.206  0.00  0.00    +0.264 C 
ATOM     19  O   UNL     1       0.661   0.603  -5.001  0.00  0.00    -0.268 OA
ATOM     20  H   UNL     1       2.077  -0.009  -2.325  0.00  0.00    +0.149 HD
BRANCH  17  21
ATOM     21  C   UNL     1      -0.006  -0.343  -2.566  0.00  0.00    +0.143 C 
BRANCH  21  24
ATOM     22  C   UNL     1      -0.018   1.503   0.010  0.00  0.00    +0.068 C 
ATOM     23  C   UNL     1       0.002  -0.004   0.002  0.00  0.00    +0.065 A 
ATOM     24  C   UNL     1       0.008  -0.818  -1.135  0.00  0.00    +0.010 A 
ATOM     25  C   UNL     1       0.028  -2.107  -0.725  0.00  0.00    +0.113 A 
ATOM     26  N   UNL     1       0.034  -2.109   0.625  0.00  0.00    -0.274 N 
ATOM     27  N   UNL     1       0.023  -0.777   1.058  0.00  0.00    -0.176 NA
ATOM     28  C   UNL     1       0.055  -3.295   1.485  0.00  0.00    +0.172 C 
ENDBRANCH  21  24
ENDBRANCH  17  21
ENDBRANCH   1  18
BRANCH   6  29
ATOM     29  C   UNL     1       6.903   0.259  -3.332  0.00  0.00    +0.412 C 
ATOM     30  F   UNL     1       6.751  -0.903  -4.096  0.00  0.00    -0.168 F 
ATOM     31  F   UNL     1       8.239   0.387  -2.938  0.00  0.00    -0.168 F 
ATOM     32  F   UNL     1       6.087   0.181  -2.198  0.00  0.00    -0.168 F 
ENDBRANCH   6  29
TORSDOF 5
