REMARK  Name = ZINC07424331
REMARK  6 active torsions:
REMARK  status: ('A' for Active; 'I' for Inactive)
REMARK    1  A    between atoms: C_1  and  C_2
REMARK    2  A    between atoms: C_5  and  C_10
REMARK    3  A    between atoms: C_10  and  C_11
REMARK    4  A    between atoms: C_10  and  C_18
REMARK    5  A    between atoms: C_11  and  C_12
REMARK    6  A    between atoms: C_21  and  C_26
REMARK                            x       y       z     vdW  Elec       q    Type
REMARK                         _______ _______ _______ _____ _____    ______ ____
ROOT
ATOM      1  C   UNL     1       0.060  -4.261   0.036  0.00  0.00    +0.071 C 
ENDROOT
BRANCH   1   6
ATOM      2  C   UNL     1      -0.146   1.494  -0.208  0.00  0.00    +0.063 C 
ATOM      3  C   UNL     1      -0.081  -0.009  -0.135  0.00  0.00    +0.020 A 
ATOM      4  C   UNL     1       0.863  -0.598   0.631  0.00  0.00    +0.072 A 
ATOM      5  C   UNL     1       0.928  -2.004   0.704  0.00  0.00    +0.189 A 
ATOM      6  C   UNL     1       0.019  -2.755  -0.017  0.00  0.00    +0.071 A 
ATOM      7  C   UNL     1      -0.941  -2.099  -0.797  0.00  0.00    +0.256 A 
ATOM      8  O   UNL     1      -1.751  -2.748  -1.439  0.00  0.00    -0.267 OA
ATOM      9  N   UNL     1      -0.975  -0.754  -0.836  0.00  0.00    -0.326 N 
ATOM     10  H   UNL     1      -1.646  -0.310  -1.377  0.00  0.00    +0.169 HD
ATOM     11  O   UNL     1       1.869  -2.610   1.467  0.00  0.00    -0.287 OA
ENDBRANCH   1   6
BRANCH   1  12
ATOM     12  C   UNL     1      -1.094  -4.766   0.865  0.00  0.00    +0.071 A 
ATOM     13  C   UNL     1      -1.996  -5.669   0.333  0.00  0.00    +0.189 A 
ATOM     14  C   UNL     1      -3.062  -6.121   1.135  0.00  0.00    +0.072 A 
ATOM     15  C   UNL     1      -3.188  -5.669   2.401  0.00  0.00    +0.020 A 
ATOM     16  N   UNL     1      -2.298  -4.781   2.917  0.00  0.00    -0.326 N 
ATOM     17  H   UNL     1      -2.408  -4.471   3.829  0.00  0.00    +0.169 HD
ATOM     18  C   UNL     1      -1.262  -4.331   2.184  0.00  0.00    +0.256 A 
ATOM     19  O   UNL     1      -0.471  -3.538   2.671  0.00  0.00    -0.267 OA
ATOM     20  C   UNL     1      -4.332  -6.155   3.254  0.00  0.00    +0.063 C 
ATOM     21  O   UNL     1      -1.856  -6.112  -0.939  0.00  0.00    -0.287 OA
ENDBRANCH   1  12
BRANCH   1  22
ATOM     22  C   UNL     1       1.378  -4.713   0.668  0.00  0.00    +0.048 C 
BRANCH  22  23
ATOM     23  C   UNL     1       1.473  -6.216   0.610  0.00  0.00    -0.046 A 
ATOM     24  C   UNL     1       0.974  -6.981   1.648  0.00  0.00    +0.003 A 
ATOM     25  C   UNL     1       1.062  -8.360   1.594  0.00  0.00    +0.000 A 
ATOM     26  C   UNL     1       1.647  -8.973   0.503  0.00  0.00    +0.000 A 
ATOM     27  C   UNL     1       2.145  -8.209  -0.536  0.00  0.00    +0.000 A 
ATOM     28  C   UNL     1       2.054  -6.830  -0.484  0.00  0.00    +0.003 A 
ENDBRANCH  22  23
ENDBRANCH   1  22
TORSDOF 4
