REMARK  Name = ZINC01898461
REMARK  11 active torsions:
REMARK  status: ('A' for Active; 'I' for Inactive)
REMARK    1  A    between atoms: C_1  and  O_2
REMARK    2  A    between atoms: O_2  and  C_3
REMARK    3  A    between atoms: C_6  and  C_11
REMARK    4  A    between atoms: C_8  and  O_9
REMARK    5  A    between atoms: O_9  and  C_10
REMARK    6  A    between atoms: C_14  and  S_22
REMARK    7  A    between atoms: N_15  and  C_16
REMARK    8  A    between atoms: S_22  and  C_23
REMARK    9  A    between atoms: C_23  and  C_24
REMARK   10  A    between atoms: N_26  and  N_27
REMARK   11  A    between atoms: C_28  and  C_29
REMARK                            x       y       z     vdW  Elec       q    Type
REMARK                         _______ _______ _______ _____ _____    ______ ____
ROOT
ATOM      1  C   UNL     1      -5.308  -9.587  -0.037  0.00  0.00    +0.169 A 
ATOM      2  N   UNL     1      -5.873  -8.413   0.131  0.00  0.00    -0.128 NA
ATOM      3  N   UNL     1      -4.980  -7.490   0.121  0.00  0.00    -0.122 NA
ATOM      4  C   UNL     1      -3.788  -8.014  -0.053  0.00  0.00    +0.197 A 
ATOM      5  N   UNL     1      -3.954  -9.368  -0.166  0.00  0.00    -0.270 N 
ENDROOT
BRANCH   1   9
ATOM      6  C   UNL     1      -7.281 -13.351  -0.175  0.00  0.00    +0.162 A 
ATOM      7  C   UNL     1      -5.914 -13.292   0.056  0.00  0.00    +0.050 A 
ATOM      8  C   UNL     1      -5.271 -12.073   0.101  0.00  0.00    +0.015 A 
ATOM      9  C   UNL     1      -5.996 -10.894  -0.085  0.00  0.00    +0.023 A 
ATOM     10  C   UNL     1      -7.372 -10.953  -0.312  0.00  0.00    +0.061 A 
ATOM     11  C   UNL     1      -8.009 -12.179  -0.362  0.00  0.00    +0.162 A 
BRANCH   6  13
ATOM     12  C   UNL     1      -7.102 -15.717  -0.018  0.00  0.00    +0.277 C 
ATOM     13  O   UNL     1      -7.910 -14.555  -0.218  0.00  0.00    -0.491 OA
ENDBRANCH   6  13
BRANCH  11  14
ATOM     14  O   UNL     1      -9.349 -12.240  -0.589  0.00  0.00    -0.491 OA
ATOM     15  C   UNL     1     -10.033 -10.999  -0.772  0.00  0.00    +0.277 C 
ENDBRANCH  11  14
ENDBRANCH   1   9
BRANCH   5  16
ATOM     16  C   UNL     1      -2.955 -10.331  -0.368  0.00  0.00    +0.051 A 
ATOM     17  C   UNL     1      -2.895 -11.030  -1.566  0.00  0.00    +0.026 A 
ATOM     18  C   UNL     1      -1.906 -11.974  -1.764  0.00  0.00    +0.002 A 
ATOM     19  C   UNL     1      -0.984 -12.231  -0.766  0.00  0.00    +0.000 A 
ATOM     20  C   UNL     1      -1.045 -11.540   0.431  0.00  0.00    +0.002 A 
ATOM     21  C   UNL     1      -2.028 -10.591   0.632  0.00  0.00    +0.026 A 
ENDBRANCH   5  16
BRANCH   4  22
ATOM     22  S   UNL     1      -2.261  -7.138  -0.134  0.00  0.00    -0.076 S 
BRANCH  22  23
ATOM     23  C   UNL     1      -2.860  -5.444   0.087  0.00  0.00    +0.174 C 
BRANCH  23  24
ATOM     24  C   UNL     1      -1.693  -4.490   0.051  0.00  0.00    +0.242 C 
ATOM     25  O   UNL     1      -0.568  -4.915  -0.107  0.00  0.00    -0.273 OA
ATOM     26  N   UNL     1      -1.900  -3.166   0.196  0.00  0.00    -0.206 N 
ATOM     27  H   UNL     1      -2.921  -2.782   0.340  0.00  0.00    +0.177 HD
BRANCH  26  28
ATOM     28  N   UNL     1      -0.816  -2.280   0.163  0.00  0.00    -0.187 NA
ATOM     29  C   UNL     1      -1.016  -1.002   0.302  0.00  0.00    +0.145 C 
BRANCH  29  30
ATOM     30  C   UNL     1       0.119  -0.075   0.268  0.00  0.00    +0.033 A 
ATOM     31  C   UNL     1       0.124   1.304   0.395  0.00  0.00    +0.018 A 
ATOM     32  C   UNL     1       1.329   1.962   0.328  0.00  0.00    +0.023 A 
ATOM     33  C   UNL     1       2.469   1.245   0.141  0.00  0.00    +0.055 A 
ATOM     34  S   UNL     1       1.856  -0.428   0.051  0.00  0.00    -0.080 S 
ATOM     35 BR   UNL     1       4.252   1.864   0.008  0.00  0.00    -0.043 Br
ENDBRANCH  29  30
ENDBRANCH  26  28
ENDBRANCH  23  24
ENDBRANCH  22  23
ENDBRANCH   4  22
TORSDOF 9
