REMARK  Name = ZINC20764886
REMARK  10 active torsions:
REMARK  status: ('A' for Active; 'I' for Inactive)
REMARK    1  A    between atoms: C_1  and  C_2
REMARK    2  A    between atoms: C_2  and  O_3
REMARK    3  A    between atoms: O_3  and  C_4
REMARK    4  A    between atoms: C_8  and  C_11
REMARK    5  A    between atoms: C_9  and  O_10
REMARK    6  A    between atoms: C_14  and  C_29
REMARK    7  A    between atoms: C_16  and  C_19
REMARK    8  A    between atoms: C_23  and  N_25
REMARK    9  A    between atoms: C_33  and  O_35
REMARK   10  A    between atoms: O_35  and  C_36
REMARK                            x       y       z     vdW  Elec       q    Type
REMARK                         _______ _______ _______ _____ _____    ______ ____
ROOT
ATOM      1  C   UNL     1       3.670   2.198  -0.021  0.00  0.00    -0.028 C 
ATOM      2  C   UNL     1       4.239   2.269   1.400  0.00  0.00    +0.044 C 
ATOM      3  C   UNL     1       5.336   3.296   1.449  0.00  0.00    +0.040 C 
ATOM      4  N   UNL     1       5.512   4.175   0.537  0.00  0.00    -0.299 NA
ATOM      5  C   UNL     1       4.688   4.289  -0.660  0.00  0.00    +0.081 C 
ATOM      6  N   UNL     1       3.419   3.573  -0.485  0.00  0.00    +0.401 N 
ATOM      7  H   UNL     1       2.887   3.543  -1.448  0.00  0.00    -0.081 HD
ATOM      8  H   UNL     1       2.805   4.104   0.257  0.00  0.00    -0.081 HD
ENDROOT
BRANCH   5   9
ATOM      9  C   UNL     1       5.432   3.702  -1.832  0.00  0.00    -0.038 A 
ATOM     10  C   UNL     1       4.731   3.145  -2.886  0.00  0.00    +0.005 A 
ATOM     11  C   UNL     1       5.412   2.607  -3.962  0.00  0.00    +0.022 A 
ATOM     12  C   UNL     1       6.796   2.624  -3.983  0.00  0.00    +0.071 A 
ATOM     13  C   UNL     1       7.496   3.181  -2.928  0.00  0.00    +0.145 A 
ATOM     14  C   UNL     1       6.814   3.725  -1.855  0.00  0.00    +0.038 A 
ATOM     15 CL   UNL     1       7.652   1.948  -5.333  0.00  0.00    -0.081 Cl
BRANCH  13  16
ATOM     16  N   UNL     1       8.976   3.201  -2.950  0.00  0.00    +0.058 N 
ATOM     17  O   UNL     1       9.592   3.691  -2.021  0.00  0.00    -0.126 OA
ATOM     18  O   UNL     1       9.577   2.727  -3.897  0.00  0.00    -0.126 OA
ENDBRANCH  13  16
ENDBRANCH   5   9
BRANCH   1  23
ATOM     19  C   UNL     1       1.211  -0.680  -0.013  0.00  0.00    +0.162 A 
ATOM     20  C   UNL     1       0.002  -0.004   0.002  0.00  0.00    +0.049 A 
ATOM     21  C   UNL     1      -0.017   1.378   0.010  0.00  0.00    +0.004 A 
ATOM     22  C   UNL     1       1.169   2.089   0.002  0.00  0.00    +0.006 A 
ATOM     23  C   UNL     1       2.379   1.420  -0.013  0.00  0.00    -0.016 A 
ATOM     24  C   UNL     1       2.405   0.035  -0.021  0.00  0.00    +0.160 A 
BRANCH  24  25
ATOM     25  O   UNL     1       3.594  -0.625  -0.035  0.00  0.00    -0.503 OA
ATOM     26  H   UNL     1       4.537  -0.058  -0.041  0.00  0.00    +0.292 HD
ENDBRANCH  24  25
BRANCH  19  27
ATOM     27  O   UNL     1       1.232  -2.040  -0.020  0.00  0.00    -0.489 OA
BRANCH  27  29
ATOM     28  C   UNL     1       0.191  -4.221  -0.021  0.00  0.00    +0.048 C 
ATOM     29  C   UNL     1      -0.032  -2.708  -0.011  0.00  0.00    +0.226 C 
ENDBRANCH  27  29
ENDBRANCH  19  27
ENDBRANCH   1  23
BRANCH   3  30
ATOM     30  C   UNL     1       6.254   3.289   2.606  0.00  0.00    -0.001 A 
ATOM     31  C   UNL     1       6.090   2.348   3.624  0.00  0.00    +0.010 A 
ATOM     32  C   UNL     1       6.953   2.341   4.701  0.00  0.00    +0.004 A 
ATOM     33  C   UNL     1       7.974   3.270   4.780  0.00  0.00    +0.045 A 
ATOM     34  C   UNL     1       8.142   4.212   3.775  0.00  0.00    +0.121 A 
ATOM     35  C   UNL     1       7.285   4.225   2.687  0.00  0.00    +0.055 A 
BRANCH  34  36
ATOM     36  O   UNL     1       9.148   5.123   3.858  0.00  0.00    -0.495 OA
ATOM     37  C   UNL     1       9.994   5.051   5.008  0.00  0.00    +0.277 C 
ENDBRANCH  34  36
ENDBRANCH   3  30
TORSDOF 8
