REMARK  Name = ZINC15778269
REMARK  4 active torsions:
REMARK  status: ('A' for Active; 'I' for Inactive)
REMARK    1  A    between atoms: C_1  and  C_2
REMARK    2  A    between atoms: C_5  and  C_10
REMARK    3  A    between atoms: C_10  and  C_12
REMARK    4  A    between atoms: C_13  and  C_14
REMARK                            x       y       z     vdW  Elec       q    Type
REMARK                         _______ _______ _______ _____ _____    ______ ____
ROOT
ATOM      1  C   UNL     1      -1.139  -6.454  -0.448  0.00  0.00    +0.063 C 
ATOM      2  C   UNL     1      -1.179  -4.952  -0.329  0.00  0.00    +0.019 A 
ATOM      3  C   UNL     1      -2.387  -4.318  -0.322  0.00  0.00    -0.024 A 
ATOM      4  C   UNL     1      -2.437  -2.936  -0.201  0.00  0.00    -0.027 A 
ATOM      5  C   UNL     1      -1.240  -2.220  -0.109  0.00  0.00    +0.089 A 
ATOM      6  C   UNL     1      -0.010  -2.926  -0.126  0.00  0.00    +0.260 A 
ATOM      7  O   UNL     1       1.045  -2.322  -0.045  0.00  0.00    -0.267 OA
ATOM      8  N   UNL     1      -0.017  -4.268  -0.232  0.00  0.00    -0.326 N 
ATOM      9  H   UNL     1       0.824  -4.752  -0.239  0.00  0.00    +0.169 HD
ATOM     10  C   UNL     1      -3.731  -2.170  -0.165  0.00  0.00    +0.036 C 
ATOM     11  C   UNL     1      -4.876  -3.028  -0.703  0.00  0.00    +0.005 C 
ATOM     12  C   UNL     1      -4.856  -4.376   0.026  0.00  0.00    +0.005 C 
ATOM     13  C   UNL     1      -3.630  -5.160  -0.449  0.00  0.00    +0.037 C 
ENDROOT
BRANCH   5  14
ATOM     14  C   UNL     1      -1.256  -0.753   0.010  0.00  0.00    +0.192 C 
ATOM     15  O   UNL     1      -2.312  -0.166   0.163  0.00  0.00    -0.287 OA
BRANCH  14  16
ATOM     16  C   UNL     1      -0.002   0.000  -0.056  0.00  0.00    +0.052 C 
ATOM     17  C   UNL     1      -0.002   1.331   0.169  0.00  0.00    +0.012 C 
BRANCH  17  18
ATOM     18  C   UNL     1       1.258   2.088   0.103  0.00  0.00    -0.025 A 
ATOM     19  C   UNL     1       2.458   1.431  -0.186  0.00  0.00    +0.009 A 
ATOM     20  C   UNL     1       3.634   2.148  -0.251  0.00  0.00    +0.015 A 
ATOM     21  C   UNL     1       3.630   3.513  -0.020  0.00  0.00    +0.013 A 
ATOM     22  C   UNL     1       2.446   4.170   0.272  0.00  0.00    +0.015 A 
ATOM     23  C   UNL     1       1.262   3.467   0.336  0.00  0.00    +0.009 A 
ATOM     24  I   UNL     1       5.424   4.591  -0.113  0.00  0.00    -0.044 I 
ENDBRANCH  17  18
ENDBRANCH  14  16
ENDBRANCH   5  14
TORSDOF 3
