REMARK  Name = ZINC09478126
REMARK  7 active torsions:
REMARK  status: ('A' for Active; 'I' for Inactive)
REMARK    1  A    between atoms: C_3  and  C_6
REMARK    2  A    between atoms: C_6  and  C_8
REMARK    3  A    between atoms: C_6  and  N_15
REMARK    4  A    between atoms: C_16  and  C_18
REMARK    5  A    between atoms: C_18  and  N_54
REMARK    6  A    between atoms: N_21  and  C_24
REMARK    7  A    between atoms: C_27  and  O_30
REMARK                            x       y       z     vdW  Elec       q    Type
REMARK                         _______ _______ _______ _____ _____    ______ ____
ROOT
ATOM      1  N   UNL     1       5.185  -0.213   3.273  0.00  0.00    -0.306 N 
ATOM      2  C   UNL     1       4.255   0.181   2.380  0.00  0.00    +0.197 C 
ATOM      3  O   UNL     1       4.505   1.075   1.600  0.00  0.00    -0.278 OA
ATOM      4  H   UNL     1       4.985  -0.928   3.897  0.00  0.00    +0.150 HD
ENDROOT
BRANCH   1   5
ATOM      5  C   UNL     1       6.497   0.437   3.300  0.00  0.00    +0.140 C 
BRANCH   5   6
ATOM      6  C   UNL     1       7.099   0.297   4.674  0.00  0.00    -0.022 A 
ATOM      7  C   UNL     1       6.960  -0.888   5.372  0.00  0.00    +0.008 A 
ATOM      8  C   UNL     1       7.516  -1.020   6.630  0.00  0.00    +0.038 A 
ATOM      9  C   UNL     1       8.203   0.040   7.197  0.00  0.00    +0.123 A 
ATOM     10  C   UNL     1       8.337   1.229   6.500  0.00  0.00    +0.038 A 
ATOM     11  C   UNL     1       7.785   1.356   5.239  0.00  0.00    +0.008 A 
ATOM     12  F   UNL     1       8.742  -0.086   8.429  0.00  0.00    -0.205 F 
ENDBRANCH   5   6
BRANCH   5  15
ATOM     13  C   UNL     1       9.030  -0.444   0.594  0.00  0.00    +0.008 A 
ATOM     14  C   UNL     1       8.297   0.361   1.446  0.00  0.00    +0.013 A 
ATOM     15  C   UNL     1       7.402  -0.214   2.286  0.00  0.00    +0.014 A 
ATOM     16  S   UNL     1       7.568  -1.944   1.875  0.00  0.00    -0.099 S 
ATOM     17  C   UNL     1       8.824  -1.784   0.616  0.00  0.00    +0.045 A 
ENDBRANCH   5  15
ENDBRANCH   1   5
BRANCH   2  18
ATOM     18  C   UNL     1       2.905  -0.488   2.352  0.00  0.00    +0.019 C 
BRANCH  18  24
ATOM     19  C   UNL     1       2.749  -0.403  -0.063  0.00  0.00    -0.059 C 
ATOM     20  C   UNL     1       1.964   0.203  -1.229  0.00  0.00    +0.086 C 
ATOM     21  N   UNL     1       0.565  -0.240  -1.156  0.00  0.00    -0.333 N 
ATOM     22  C   UNL     1      -0.050   0.175   0.113  0.00  0.00    +0.086 C 
ATOM     23  C   UNL     1       0.735  -0.430   1.279  0.00  0.00    -0.059 C 
ATOM     24  N   UNL     1       2.135   0.040   1.206  0.00  0.00    +0.387 N 
ATOM     25  H   UNL     1       2.144   1.066   1.242  0.00  0.00    -0.081 HD
BRANCH  21  26
ATOM     26  C   UNL     1      -0.170   0.236  -2.248  0.00  0.00    +0.030 A 
ATOM     27  C   UNL     1       0.449   1.022  -3.211  0.00  0.00    +0.026 A 
ATOM     28  C   UNL     1      -0.275   1.486  -4.292  0.00  0.00    +0.047 A 
ATOM     29  C   UNL     1      -1.622   1.179  -4.408  0.00  0.00    +0.117 A 
ATOM     30  C   UNL     1      -2.242   0.398  -3.444  0.00  0.00    +0.047 A 
ATOM     31  C   UNL     1      -1.518  -0.072  -2.365  0.00  0.00    +0.026 A 
BRANCH  29  32
ATOM     32  O   UNL     1      -2.336   1.641  -5.470  0.00  0.00    -0.507 OA
ATOM     33  H   UNL     1      -2.748   2.503  -5.320  0.00  0.00    +0.292 HD
ENDBRANCH  29  32
ENDBRANCH  21  26
ENDBRANCH  18  24
ENDBRANCH   2  18
TORSDOF 7
