REMARK  Name = ZINC52015736
REMARK  5 active torsions:
REMARK  status: ('A' for Active; 'I' for Inactive)
REMARK    1  A    between atoms: C_3  and  N_20
REMARK    2  A    between atoms: C_6  and  S_7
REMARK    3  A    between atoms: S_7  and  N_10
REMARK    4  A    between atoms: N_10  and  C_11
REMARK    5  A    between atoms: C_17  and  O_19
REMARK                            x       y       z     vdW  Elec       q    Type
REMARK                         _______ _______ _______ _____ _____    ______ ____
ROOT
ATOM      1  S   UNL     1      -1.506  -0.915   0.012  0.00  0.00    +0.060 S 
ATOM      2  O   UNL     1      -1.205  -2.194   0.553  0.00  0.00    -0.153 OA
ATOM      3  O   UNL     1      -2.492  -0.061   0.577  0.00  0.00    -0.153 OA
ENDROOT
BRANCH   1   9
ATOM      4  C   UNL     1      -0.017   1.384   0.010  0.00  0.00    +0.033 A 
ATOM      5  C   UNL     1       1.190   2.061   0.002  0.00  0.00    +0.045 A 
ATOM      6  C   UNL     1       2.374   1.332  -0.013  0.00  0.00    +0.116 A 
ATOM      7  N   UNL     1       2.350   0.008  -0.020  0.00  0.00    -0.239 NA
ATOM      8  C   UNL     1       1.215  -0.664  -0.013  0.00  0.00    +0.141 A 
ATOM      9  C   UNL     1       0.002  -0.004   0.002  0.00  0.00    +0.123 A 
BRANCH   6  10
ATOM     10  N   UNL     1       3.594   1.999  -0.022  0.00  0.00    -0.343 N 
ATOM     11  H   UNL     1       3.616   2.969  -0.017  0.00  0.00    +0.144 HD
ATOM     12  H   UNL     1       4.422   1.495  -0.033  0.00  0.00    +0.144 HD
ENDBRANCH   6  10
ENDBRANCH   1   9
BRANCH   1  13
ATOM     13  N   UNL     1      -1.941  -1.159  -1.567  0.00  0.00    -0.184 NA
ATOM     14  H   UNL     1      -2.751  -0.755  -1.915  0.00  0.00    +0.148 HD
BRANCH  13  15
ATOM     15  C   UNL     1      -1.103  -1.986  -2.438  0.00  0.00    +0.105 C 
ATOM     16  C   UNL     1      -0.143  -1.090  -3.223  0.00  0.00    +0.023 C 
ATOM     17  C   UNL     1      -0.946  -0.104  -4.074  0.00  0.00    +0.002 C 
ATOM     18  C   UNL     1      -1.833  -0.879  -5.050  0.00  0.00    +0.003 C 
ATOM     19  C   UNL     1      -2.793  -1.776  -4.266  0.00  0.00    +0.033 C 
ATOM     20  C   UNL     1      -1.990  -2.761  -3.414  0.00  0.00    +0.133 C 
BRANCH  20  21
ATOM     21  O   UNL     1      -2.886  -3.599  -2.681  0.00  0.00    -0.390 OA
ATOM     22  H   UNL     1      -3.481  -4.121  -3.238  0.00  0.00    +0.210 HD
ENDBRANCH  20  21
ENDBRANCH  13  15
ENDBRANCH   1  13
TORSDOF 5
