REMARK  Name = ZINC13422592
REMARK  8 active torsions:
REMARK  status: ('A' for Active; 'I' for Inactive)
REMARK    1  A    between atoms: C_1  and  C_2
REMARK    2  A    between atoms: C_2  and  C_4
REMARK    3  A    between atoms: C_2  and  N_9
REMARK    4  A    between atoms: C_10  and  C_12
REMARK    5  A    between atoms: C_12  and  O_13
REMARK    6  A    between atoms: O_13  and  C_14
REMARK    7  A    between atoms: C_17  and  C_22
REMARK    8  A    between atoms: C_19  and  C_20
REMARK                            x       y       z     vdW  Elec       q    Type
REMARK                         _______ _______ _______ _____ _____    ______ ____
ROOT
ATOM      1  O   UNL     1      -2.858   5.681  -0.133  0.00  0.00    -0.482 OA
ENDROOT
BRANCH   1   2
ATOM      2  C   UNL     1      -3.022   7.022  -0.226  0.00  0.00    +0.135 A 
ATOM      3  C   UNL     1      -2.125   7.877   0.402  0.00  0.00    +0.047 A 
ATOM      4  C   UNL     1      -2.288   9.241   0.311  0.00  0.00    +0.019 A 
ATOM      5  C   UNL     1      -3.358   9.777  -0.416  0.00  0.00    +0.064 A 
ATOM      6  C   UNL     1      -4.264   8.929  -1.049  0.00  0.00    +0.034 A 
ATOM      7  C   UNL     1      -4.096   7.548  -0.962  0.00  0.00    +0.105 A 
BRANCH   7   8
ATOM      8  C   UNL     1      -5.046   6.644  -1.635  0.00  0.00    +0.390 C 
ATOM      9  O   UNL     1      -4.901   5.440  -1.553  0.00  0.00    -0.240 OA
ATOM     10  O   UNL     1      -6.076   7.151  -2.340  0.00  0.00    -0.240 OA
ENDBRANCH   7   8
BRANCH   5  11
ATOM     11  C   UNL     1      -3.527  11.239  -0.510  0.00  0.00    +0.387 C 
ATOM     12  O   UNL     1      -4.456  11.704  -1.140  0.00  0.00    -0.241 OA
ATOM     13  O   UNL     1      -2.651  12.059   0.103  0.00  0.00    -0.241 OA
ENDBRANCH   5  11
ENDBRANCH   1   2
BRANCH   1  14
ATOM     14  C   UNL     1      -1.741   5.215   0.626  0.00  0.00    +0.324 C 
BRANCH  14  16
ATOM     15  N   UNL     1      -0.749   3.044   1.275  0.00  0.00    -0.303 N 
ATOM     16  C   UNL     1      -1.720   3.708   0.618  0.00  0.00    +0.251 C 
ATOM     17  O   UNL     1      -2.578   3.094   0.021  0.00  0.00    -0.272 OA
ATOM     18  H   UNL     1      -0.063   3.536   1.753  0.00  0.00    +0.149 HD
BRANCH  15  20
ATOM     19  C   UNL     1      -0.013   1.086   0.008  0.00  0.00    +0.036 C 
ATOM     20  C   UNL     1      -0.729   1.579   1.267  0.00  0.00    +0.136 C 
BRANCH  20  21
ATOM     21  C   UNL     1       0.000   1.080   2.488  0.00  0.00    +0.125 A 
ATOM     22  C   UNL     1      -0.354   0.021   3.237  0.00  0.00    +0.046 A 
ATOM     23  C   UNL     1       0.602  -0.086   4.273  0.00  0.00    +0.041 A 
ATOM     24  C   UNL     1       1.483   0.914   4.095  0.00  0.00    +0.195 A 
ATOM     25  O   UNL     1       1.117   1.614   3.009  0.00  0.00    -0.466 OA
ENDBRANCH  20  21
ENDBRANCH  15  20
ENDBRANCH  14  16
ENDBRANCH   1  14
TORSDOF 7
