REMARK  Name = ZINC63634386
REMARK  6 active torsions:
REMARK  status: ('A' for Active; 'I' for Inactive)
REMARK    1  A    between atoms: C_7  and  S_16
REMARK    2  A    between atoms: S_16  and  N_19
REMARK    3  A    between atoms: C_22  and  C_25
REMARK    4  A    between atoms: N_27  and  C_28
REMARK    5  A    between atoms: C_28  and  C_29
REMARK    6  A    between atoms: C_29  and  C_30
REMARK                            x       y       z     vdW  Elec       q    Type
REMARK                         _______ _______ _______ _____ _____    ______ ____
ROOT
ATOM      1  N   UNL     1       8.412   1.889  -2.089  0.00  0.00    -0.177 NA
ATOM      2  C   UNL     1       8.073   3.297  -1.838  0.00  0.00    +0.110 C 
ATOM      3  C   UNL     1       9.321   4.154  -2.074  0.00  0.00    +0.030 C 
ATOM      4  C   UNL     1      10.470   3.621  -1.215  0.00  0.00    +0.077 C 
ATOM      5  C   UNL     1      10.789   2.181  -1.622  0.00  0.00    +0.030 C 
ATOM      6  C   UNL     1       9.554   1.300  -1.377  0.00  0.00    +0.110 C 
ENDROOT
BRANCH   4   7
ATOM      7  C   UNL     1      11.690   4.482  -1.418  0.00  0.00    +0.216 C 
ATOM      8  O   UNL     1      11.645   5.428  -2.176  0.00  0.00    -0.276 OA
ATOM      9  N   UNL     1      12.831   4.201  -0.759  0.00  0.00    -0.315 N 
ATOM     10  H   UNL     1      12.867   3.444  -0.153  0.00  0.00    +0.149 HD
BRANCH   9  11
ATOM     11  C   UNL     1      14.017   5.038  -0.957  0.00  0.00    +0.108 C 
BRANCH  11  12
ATOM     12  C   UNL     1      15.166   4.506  -0.098  0.00  0.00    +0.049 C 
BRANCH  12  13
ATOM     13  C   UNL     1      16.386   5.367  -0.301  0.00  0.00    -0.072 C 
ATOM     14  C   UNL     1      16.600   6.326   0.542  0.00  0.00    -0.028 C 
ATOM     15  C   UNL     1      17.763   7.270   0.464  0.00  0.00    +0.027 C 
ATOM     16  C   UNL     1      18.847   6.697  -0.452  0.00  0.00    +0.004 C 
ATOM     17  C   UNL     1      18.189   6.253  -1.764  0.00  0.00    +0.005 C 
ATOM     18  C   UNL     1      17.280   5.057  -1.466  0.00  0.00    +0.030 C 
ENDBRANCH  12  13
ENDBRANCH  11  12
ENDBRANCH   9  11
ENDBRANCH   4   7
BRANCH   1  19
ATOM     19  S   UNL     1       7.518   0.982  -3.147  0.00  0.00    +0.061 S 
ATOM     20  O   UNL     1       8.361  -0.074  -3.589  0.00  0.00    -0.153 OA
ATOM     21  O   UNL     1       6.905   1.895  -4.048  0.00  0.00    -0.153 OA
BRANCH  19  28
ATOM     22  C   UNL     1      -0.019   1.520   0.010  0.00  0.00    +0.001 C 
ATOM     23  C   UNL     1       1.397   2.085  -0.000  0.00  0.00    +0.005 C 
ATOM     24  C   UNL     1       2.114   1.670  -1.285  0.00  0.00    +0.037 C 
ATOM     25  C   UNL     1       2.812   0.346  -1.065  0.00  0.00    -0.021 C 
ATOM     26  C   UNL     1       3.963  -0.038  -1.638  0.00  0.00    -0.013 C 
ATOM     27  C   UNL     1       4.926   0.645  -2.407  0.00  0.00    +0.035 C 
ATOM     28  C   UNL     1       6.217   0.235  -2.224  0.00  0.00    +0.106 C 
ATOM     29  C   UNL     1       6.517  -0.822  -1.263  0.00  0.00    +0.027 C 
ATOM     30  C   UNL     1       5.580  -1.633  -0.760  0.00  0.00    +0.006 C 
ATOM     31  C   UNL     1       4.160  -1.490  -1.227  0.00  0.00    +0.159 C 
ATOM     32  N   UNL     1       3.166  -1.699  -0.183  0.00  0.00    -0.276 NA
ATOM     33  C   UNL     1       2.398  -0.643  -0.138  0.00  0.00    +0.040 C 
ATOM     34  C   UNL     1       1.210  -0.513   0.790  0.00  0.00    +0.055 C 
ATOM     35  C   UNL     1       0.002  -0.004   0.002  0.00  0.00    +0.006 C 
ENDBRANCH  19  28
ENDBRANCH   1  19
TORSDOF 6
