REMARK  Name = ZINC15958582
REMARK  11 active torsions:
REMARK  status: ('A' for Active; 'I' for Inactive)
REMARK    1  A    between atoms: C_1  and  C_2
REMARK    2  A    between atoms: N_6  and  O_7
REMARK    3  A    between atoms: O_7  and  C_8
REMARK    4  A    between atoms: C_8  and  C_9
REMARK    5  A    between atoms: N_11  and  C_12
REMARK    6  A    between atoms: C_12  and  C_13
REMARK    7  A    between atoms: C_16  and  O_19
REMARK    8  A    between atoms: O_19  and  C_20
REMARK    9  A    between atoms: C_31  and  C_40
REMARK   10  A    between atoms: C_36  and  C_37
REMARK   11  A    between atoms: C_36  and  O_39
REMARK                            x       y       z     vdW  Elec       q    Type
REMARK                         _______ _______ _______ _____ _____    ______ ____
ROOT
ATOM      1  C   UNL     1      -0.019   1.532   0.011  0.00  0.00    +0.016 C 
ATOM      2  C   UNL     1       0.002  -0.004   0.002  0.00  0.00    -0.007 C 
ATOM      3  C   UNL     1      -1.460  -0.381  -0.021  0.00  0.00    +0.017 C 
ATOM      4  C   UNL     1      -1.739  -1.699   0.697  0.00  0.00    +0.059 C 
ATOM      5  C   UNL     1      -1.155  -1.626   2.093  0.00  0.00    +0.080 C 
ATOM      6  N   UNL     1      -1.833  -2.012   3.131  0.00  0.00    -0.089 NA
ATOM      7  C   UNL     1       0.214  -1.096   2.223  0.00  0.00    +0.026 C 
ATOM      8  C   UNL     1       0.739  -0.382   1.241  0.00  0.00    -0.062 C 
ATOM      9  C   UNL     1       2.185   0.067   1.340  0.00  0.00    +0.031 C 
ATOM     10  C   UNL     1       2.922  -0.472   0.124  0.00  0.00    +0.008 C 
ATOM     11  C   UNL     1       2.256  -0.172  -1.207  0.00  0.00    -0.003 C 
ATOM     12  C   UNL     1       0.755  -0.360  -1.248  0.00  0.00    +0.002 C 
ATOM     13  C   UNL     1       0.383  -1.728  -1.810  0.00  0.00    +0.005 C 
ATOM     14  C   UNL     1       0.715  -1.773  -3.313  0.00  0.00    +0.011 C 
ATOM     15  C   UNL     1       2.055  -1.123  -3.546  0.00  0.00    +0.011 C 
ATOM     16  C   UNL     1       2.883  -1.100  -2.245  0.00  0.00    +0.002 C 
ATOM     17  C   UNL     1       4.261  -0.628  -2.739  0.00  0.00    +0.008 C 
ATOM     18  C   UNL     1       4.397  -1.244  -4.155  0.00  0.00    +0.049 C 
ATOM     19  C   UNL     1       3.011  -1.847  -4.506  0.00  0.00    +0.132 C 
ATOM     20  C   UNL     1       1.856   0.299  -4.091  0.00  0.00    +0.015 C 
ENDROOT
BRANCH  19  21
ATOM     21  C   UNL     1       3.032  -3.297  -4.287  0.00  0.00    -0.070 C 
ATOM     22  C   UNL     1       3.049  -4.457  -4.112  0.00  0.00    +0.007 C 
ENDBRANCH  19  21
BRANCH  19  23
ATOM     23  O   UNL     1       2.670  -1.542  -5.858  0.00  0.00    -0.376 OA
ATOM     24  H   UNL     1       3.239  -1.970  -6.513  0.00  0.00    +0.211 HD
ENDBRANCH  19  23
BRANCH   6  25
ATOM     25  O   UNL     1      -3.147  -2.515   2.971  0.00  0.00    -0.384 OA
BRANCH  25  26
ATOM     26  C   UNL     1      -3.774  -2.902   4.196  0.00  0.00    +0.358 C 
BRANCH  26  27
ATOM     27  C   UNL     1      -5.160  -3.419   3.909  0.00  0.00    +0.254 C 
ATOM     28  O   UNL     1      -5.571  -3.452   2.768  0.00  0.00    -0.272 OA
ATOM     29  N   UNL     1      -5.944  -3.844   4.920  0.00  0.00    -0.308 N 
ATOM     30  H   UNL     1      -5.615  -3.817   5.832  0.00  0.00    +0.149 HD
BRANCH  29  31
ATOM     31  C   UNL     1      -7.292  -4.346   4.641  0.00  0.00    +0.139 C 
BRANCH  31  32
ATOM     32  C   UNL     1      -7.953  -4.754   5.932  0.00  0.00    -0.030 A 
ATOM     33  C   UNL     1      -7.812  -6.047   6.401  0.00  0.00    +0.009 A 
ATOM     34  C   UNL     1      -8.418  -6.424   7.584  0.00  0.00    +0.046 A 
ATOM     35  C   UNL     1      -9.167  -5.504   8.302  0.00  0.00    +0.120 A 
ATOM     36  C   UNL     1      -9.306  -4.207   7.830  0.00  0.00    +0.046 A 
ATOM     37  C   UNL     1      -8.694  -3.833   6.649  0.00  0.00    +0.009 A 
BRANCH  35  38
ATOM     38  O   UNL     1      -9.764  -5.872   9.466  0.00  0.00    -0.495 OA
ATOM     39  C   UNL     1     -10.520  -4.873  10.152  0.00  0.00    +0.277 C 
ENDBRANCH  35  38
ENDBRANCH  31  32
ENDBRANCH  29  31
ENDBRANCH  26  27
ENDBRANCH  25  26
ENDBRANCH   6  25
TORSDOF 8
