REMARK  Name = ZINC20504563
REMARK  13 active torsions:
REMARK  status: ('A' for Active; 'I' for Inactive)
REMARK    1  A    between atoms: C_1  and  C_2
REMARK    2  A    between atoms: C_10  and  C_12
REMARK    3  A    between atoms: C_12  and  N_13
REMARK    4  A    between atoms: N_13  and  C_14
REMARK    5  A    between atoms: N_13  and  C_15
REMARK    6  A    between atoms: C_17  and  C_41
REMARK    7  A    between atoms: C_20  and  O_40
REMARK    8  A    between atoms: C_22  and  C_26
REMARK    9  A    between atoms: C_26  and  C_28
REMARK   10  A    between atoms: C_26  and  C_29
REMARK   11  A    between atoms: N_31  and  C_32
REMARK   12  A    between atoms: C_32  and  C_33
REMARK   13  A    between atoms: C_33  and  N_34
REMARK                            x       y       z     vdW  Elec       q    Type
REMARK                         _______ _______ _______ _____ _____    ______ ____
ROOT
ATOM      1  C   UNL     1       0.457   1.425  -0.379  0.00  0.00    +0.014 C 
ATOM      2  C   UNL     1       0.525  -0.103  -0.372  0.00  0.00    +0.042 C 
ATOM      3  C   UNL     1      -0.881  -0.673  -0.442  0.00  0.00    +0.057 A 
ATOM      4  C   UNL     1      -1.227  -1.744   0.317  0.00  0.00    +0.015 A 
ATOM      5  S   UNL     1      -2.922  -2.002  -0.129  0.00  0.00    -0.057 S 
ATOM      6  C   UNL     1      -3.052  -0.738  -1.236  0.00  0.00    +0.165 A 
ATOM      7  N   UNL     1      -1.853  -0.200  -1.217  0.00  0.00    -0.229 NA
ATOM      8  N   UNL     1      -4.159  -0.357  -1.986  0.00  0.00    -0.266 N 
ATOM      9  C   UNL     1      -5.317  -1.036  -1.871  0.00  0.00    +0.202 C 
ATOM     10  O   UNL     1      -5.394  -1.979  -1.112  0.00  0.00    -0.277 OA
ATOM     11  C   UNL     1      -0.370  -2.488   1.278  0.00  0.00    +0.051 C 
ATOM     12  C   UNL     1       1.103  -2.101   1.040  0.00  0.00    -0.022 C 
ATOM     13  C   UNL     1       1.206  -0.579   0.919  0.00  0.00    +0.033 C 
ATOM     14  C   UNL     1       2.676  -0.153   0.847  0.00  0.00    +0.123 C 
ATOM     15  C   UNL     1       3.430  -0.637   2.084  0.00  0.00    +0.029 C 
ATOM     16  C   UNL     1       3.363  -2.166   2.134  0.00  0.00    +0.007 C 
ATOM     17  C   UNL     1       1.901  -2.590   2.253  0.00  0.00    +0.008 C 
ATOM     18  C   UNL     1       1.622  -2.775  -0.232  0.00  0.00    +0.012 C 
ATOM     19  H   UNL     1      -4.097   0.398  -2.592  0.00  0.00    +0.157 HD
ENDROOT
BRANCH  15  20
ATOM     20  C   UNL     1       2.785  -0.051   3.341  0.00  0.00    +0.077 C 
ATOM     21  C   UNL     1       2.758   1.476   3.236  0.00  0.00    +0.017 C 
BRANCH  20  22
ATOM     22  C   UNL     1       3.584  -0.457   4.552  0.00  0.00    +0.216 C 
ATOM     23  O   UNL     1       4.572  -1.148   4.423  0.00  0.00    -0.276 OA
ATOM     24  N   UNL     1       3.200  -0.053   5.779  0.00  0.00    -0.314 N 
ATOM     25  H   UNL     1       2.410   0.499   5.883  0.00  0.00    +0.149 HD
BRANCH  24  26
ATOM     26  C   UNL     1       3.977  -0.449   6.957  0.00  0.00    +0.119 C 
BRANCH  26  27
ATOM     27  C   UNL     1       3.332   0.138   8.214  0.00  0.00    +0.103 C 
BRANCH  27  28
ATOM     28  N   UNL     1       4.111  -0.259   9.395  0.00  0.00    -0.297 NA
ATOM     29  C   UNL     1       4.033  -1.710   9.614  0.00  0.00    +0.112 C 
ATOM     30  C   UNL     1       4.905  -2.087  10.815  0.00  0.00    +0.175 C 
ATOM     31  O   UNL     1       4.478  -1.343  11.960  0.00  0.00    -0.377 OA
ATOM     32  C   UNL     1       4.542   0.075  11.781  0.00  0.00    +0.175 C 
ATOM     33  C   UNL     1       3.666   0.473  10.589  0.00  0.00    +0.112 C 
ENDBRANCH  27  28
ENDBRANCH  26  27
ENDBRANCH  24  26
ENDBRANCH  20  22
ENDBRANCH  15  20
BRANCH  14  34
ATOM     34  O   UNL     1       2.752   1.273   0.779  0.00  0.00    -0.391 OA
ATOM     35  H   UNL     1       3.655   1.616   0.732  0.00  0.00    +0.210 HD
ENDBRANCH  14  34
BRANCH   9  36
ATOM     36  C   UNL     1      -6.517  -0.623  -2.684  0.00  0.00    +0.018 C 
BRANCH  36  37
ATOM     37  N   UNL     1      -7.645  -1.514  -2.380  0.00  0.00    +0.382 N 
ATOM     38  C   UNL     1      -8.846  -1.040  -3.080  0.00  0.00    -0.096 C 
ATOM     39  C   UNL     1      -7.325  -2.877  -2.823  0.00  0.00    -0.096 C 
ATOM     40  H   UNL     1      -7.814  -1.515  -1.385  0.00  0.00    -0.082 HD
ENDBRANCH  36  37
ENDBRANCH   9  36
TORSDOF 8
