REMARK  Name = ZINC13691935
REMARK  3 active torsions:
REMARK  status: ('A' for Active; 'I' for Inactive)
REMARK    1  A    between atoms: C_8  and  C_11
REMARK    2  A    between atoms: N_15  and  N_19
REMARK    3  A    between atoms: C_20  and  C_22
REMARK                            x       y       z     vdW  Elec       q    Type
REMARK                         _______ _______ _______ _____ _____    ______ ____
ROOT
ATOM      1  C   UNL     1       1.182   7.344  -0.301  0.00  0.00    +0.027 C 
ATOM      2  C   UNL     1       2.373   7.967  -0.545  0.00  0.00    +0.078 C 
ATOM      3  C   UNL     1       3.673   7.391  -0.929  0.00  0.00    +0.275 C 
ATOM      4  O   UNL     1       3.820   6.191  -1.080  0.00  0.00    -0.267 OA
ATOM      5  N   UNL     1       4.670   8.240  -1.107  0.00  0.00    -0.169 N 
ATOM      6  C   UNL     1       4.505   9.567  -0.933  0.00  0.00    +0.138 C 
ATOM      7  S   UNL     1       5.663  10.816  -1.106  0.00  0.00    -0.026 S 
ATOM      8  S   UNL     1       2.784   9.706  -0.478  0.00  0.00    -0.060 S 
ENDROOT
BRANCH   1  16
ATOM      9  C   UNL     1       2.205   1.580   1.425  0.00  0.00    +0.001 A 
ATOM     10  C   UNL     1       1.585   1.000   0.331  0.00  0.00    +0.004 A 
ATOM     11  C   UNL     1       1.069   1.783  -0.686  0.00  0.00    +0.046 A 
ATOM     12  C   UNL     1       1.177   3.160  -0.616  0.00  0.00    +0.128 A 
ATOM     13  C   UNL     1       1.811   3.752   0.491  0.00  0.00    +0.017 A 
ATOM     14  C   UNL     1       2.327   2.952   1.510  0.00  0.00    +0.011 A 
ATOM     15  C   UNL     1       1.912   5.218   0.540  0.00  0.00    +0.018 C 
ATOM     16  C   UNL     1       1.112   5.939  -0.293  0.00  0.00    -0.009 C 
ATOM     17  C   UNL     1       0.152   5.223  -1.207  0.00  0.00    +0.264 C 
ATOM     18  O   UNL     1       0.683   3.956  -1.596  0.00  0.00    -0.487 OA
ENDBRANCH   1  16
BRANCH   5  19
ATOM     19  N   UNL     1       5.929   7.750  -1.479  0.00  0.00    -0.222 N 
ATOM     20  C   UNL     1       6.923   7.688  -0.571  0.00  0.00    +0.262 C 
ATOM     21  O   UNL     1       6.728   8.056   0.571  0.00  0.00    -0.269 OA
ATOM     22  H   UNL     1       6.085   7.455  -2.389  0.00  0.00    +0.174 HD
BRANCH  20  23
ATOM     23  C   UNL     1       8.251   7.170  -0.963  0.00  0.00    +0.056 A 
ATOM     24  C   UNL     1       9.294   7.106  -0.030  0.00  0.00    +0.016 A 
ATOM     25  C   UNL     1      10.517   6.609  -0.447  0.00  0.00    +0.020 A 
ATOM     26  C   UNL     1      10.671   6.206  -1.762  0.00  0.00    +0.111 A 
ATOM     27  N   UNL     1       9.672   6.283  -2.620  0.00  0.00    -0.263 NA
ATOM     28  C   UNL     1       8.489   6.744  -2.270  0.00  0.00    +0.123 A 
ENDBRANCH  20  23
ENDBRANCH   5  19
TORSDOF 3
