REMARK  Name = ZINC20907619
REMARK  9 active torsions:
REMARK  status: ('A' for Active; 'I' for Inactive)
REMARK    1  A    between atoms: C_9  and  O_37
REMARK    2  A    between atoms: C_10  and  C_11
REMARK    3  A    between atoms: N_12  and  N_13
REMARK    4  A    between atoms: C_16  and  S_19
REMARK    5  A    between atoms: S_19  and  C_20
REMARK    6  A    between atoms: C_20  and  C_21
REMARK    7  A    between atoms: C_21  and  C_22
REMARK    8  A    between atoms: N_24  and  C_25
REMARK    9  A    between atoms: C_29  and  N_31
REMARK                            x       y       z     vdW  Elec       q    Type
REMARK                         _______ _______ _______ _____ _____    ______ ____
ROOT
ATOM      1  N   UNL     1      -2.461   8.116  -0.969  0.00  0.00    -0.205 N 
ATOM      2  C   UNL     1      -2.466   9.496  -0.834  0.00  0.00    +0.232 A 
ATOM      3  N   UNL     1      -3.569  10.280  -0.634  0.00  0.00    -0.186 NA
ATOM      4  C   UNL     1      -3.155  11.579  -0.555  0.00  0.00    +0.210 A 
ATOM      5  N   UNL     1      -1.851  11.598  -0.699  0.00  0.00    -0.144 NA
ATOM      6  N   UNL     1      -1.414  10.278  -0.870  0.00  0.00    -0.245 N 
ATOM      7  H   UNL     1      -3.405   7.554  -0.917  0.00  0.00    +0.177 HD
ATOM      8  H   UNL     1      -0.413   9.847  -1.016  0.00  0.00    +0.192 HD
ENDROOT
BRANCH   1  10
ATOM      9  C   UNL     1      -1.247   6.142  -1.296  0.00  0.00    +0.142 C 
ATOM     10  N   UNL     1      -1.252   7.436  -1.170  0.00  0.00    -0.187 NA
BRANCH   9  20
ATOM     11  C   UNL     1       0.157   1.221  -1.932  0.00  0.00    +0.001 A 
ATOM     12  C   UNL     1      -1.064   1.862  -1.738  0.00  0.00    +0.001 A 
ATOM     13  C   UNL     1      -1.130   3.216  -1.594  0.00  0.00    +0.009 A 
ATOM     14  C   UNL     1       0.045   3.975  -1.652  0.00  0.00    -0.006 A 
ATOM     15  C   UNL     1       1.289   3.328  -1.854  0.00  0.00    -0.017 A 
ATOM     16  C   UNL     1       1.319   1.929  -1.994  0.00  0.00    +0.008 A 
ATOM     17  C   UNL     1       2.467   4.092  -1.913  0.00  0.00    +0.012 A 
ATOM     18  C   UNL     1       2.426   5.445  -1.777  0.00  0.00    +0.046 A 
ATOM     19  C   UNL     1       1.228   6.127  -1.576  0.00  0.00    +0.126 A 
ATOM     20  C   UNL     1       0.021   5.429  -1.508  0.00  0.00    +0.044 A 
BRANCH  19  21
ATOM     21  O   UNL     1       1.234   7.478  -1.445  0.00  0.00    -0.506 OA
ATOM     22  H   UNL     1       0.290   8.020  -1.286  0.00  0.00    +0.292 HD
ENDBRANCH  19  21
ENDBRANCH   9  20
ENDBRANCH   1  10
BRANCH   4  23
ATOM     23  S   UNL     1      -4.190  12.982  -0.302  0.00  0.00    -0.084 S 
BRANCH  23  24
ATOM     24  C   UNL     1      -3.036  14.383  -0.296  0.00  0.00    +0.086 C 
BRANCH  24  25
ATOM     25  C   UNL     1      -3.814  15.683  -0.082  0.00  0.00    +0.107 C 
BRANCH  25  26
ATOM     26  C   UNL     1      -2.856  16.846  -0.077  0.00  0.00    +0.218 C 
ATOM     27  O   UNL     1      -1.668  16.654  -0.229  0.00  0.00    -0.275 OA
ATOM     28  N   UNL     1      -3.320  18.100   0.097  0.00  0.00    -0.285 N 
ATOM     29  H   UNL     1      -4.403  18.284   0.147  0.00  0.00    +0.155 HD
BRANCH  28  30
ATOM     30  C   UNL     1      -2.422  19.168   0.213  0.00  0.00    +0.035 A 
ATOM     31  C   UNL     1      -1.190  18.977   0.825  0.00  0.00    +0.023 A 
ATOM     32  C   UNL     1      -0.302  20.029   0.936  0.00  0.00    +0.004 A 
ATOM     33  C   UNL     1      -0.640  21.277   0.448  0.00  0.00    +0.023 A 
ATOM     34  C   UNL     1      -1.873  21.475  -0.161  0.00  0.00    +0.038 A 
ATOM     35  C   UNL     1      -2.765  20.419  -0.279  0.00  0.00    +0.046 A 
BRANCH  34  36
ATOM     36  N   UNL     1      -2.215  22.739  -0.655  0.00  0.00    -0.271 N 
ATOM     37  C   UNL     1      -1.303  23.889  -0.690  0.00  0.00    +0.114 C 
ATOM     38  C   UNL     1      -2.207  25.125  -0.889  0.00  0.00    +0.029 C 
ATOM     39  C   UNL     1      -3.440  24.506  -1.588  0.00  0.00    +0.098 C 
ATOM     40  C   UNL     1      -3.418  23.054  -1.164  0.00  0.00    +0.220 C 
ATOM     41  O   UNL     1      -4.352  22.287  -1.265  0.00  0.00    -0.275 OA
ENDBRANCH  34  36
ENDBRANCH  28  30
ENDBRANCH  25  26
ENDBRANCH  24  25
ENDBRANCH  23  24
ENDBRANCH   4  23
TORSDOF 9
