REMARK  Name = ZINC67288119
REMARK  8 active torsions:
REMARK  status: ('A' for Active; 'I' for Inactive)
REMARK    1  A    between atoms: C_1  and  C_2
REMARK    2  A    between atoms: C_5  and  C_7
REMARK    3  A    between atoms: C_7  and  C_8
REMARK    4  A    between atoms: C_7  and  C_22
REMARK    5  A    between atoms: C_7  and  O_26
REMARK    6  A    between atoms: C_8  and  C_9
REMARK    7  A    between atoms: N_11  and  C_12
REMARK    8  A    between atoms: C_12  and  C_13
REMARK                            x       y       z     vdW  Elec       q    Type
REMARK                         _______ _______ _______ _____ _____    ______ ____
ROOT
ATOM      1  C   UNL     1       0.014  -4.412   1.747  0.00  0.00    +0.146 C 
ENDROOT
BRANCH   1   2
ATOM      2  C   UNL     1       0.158  -5.369   2.903  0.00  0.00    +0.217 C 
ATOM      3  O   UNL     1       0.189  -4.947   4.039  0.00  0.00    -0.276 OA
ATOM      4  N   UNL     1       0.251  -6.694   2.673  0.00  0.00    -0.310 N 
ATOM      5  H   UNL     1       0.226  -7.031   1.764  0.00  0.00    +0.149 HD
BRANCH   4   6
ATOM      6  C   UNL     1       0.390  -7.624   3.796  0.00  0.00    +0.161 C 
BRANCH   6   7
ATOM      7  C   UNL     1       0.474  -9.035   3.273  0.00  0.00    +0.077 A 
ATOM      8  C   UNL     1       1.613  -9.720   3.031  0.00  0.00    +0.117 A 
ATOM      9  N   UNL     1       1.251 -10.956   2.569  0.00  0.00    -0.306 N 
ATOM     10  C   UNL     1       1.976 -12.042   2.174  0.00  0.00    +0.092 A 
ATOM     11  C   UNL     1       1.358 -13.165   1.751  0.00  0.00    +0.018 A 
ATOM     12  C   UNL     1      -0.045 -13.228   1.712  0.00  0.00    +0.005 A 
ATOM     13  C   UNL     1      -0.780 -12.152   2.102  0.00  0.00    +0.047 A 
ATOM     14  C   UNL     1      -0.119 -10.988   2.542  0.00  0.00    +0.138 A 
ATOM     15  N   UNL     1      -0.566  -9.818   2.976  0.00  0.00    -0.231 NA
ENDBRANCH   6   7
ENDBRANCH   4   6
ENDBRANCH   1   2
BRANCH   1  16
ATOM     16  C   UNL     1       0.066  -2.974   2.266  0.00  0.00    +0.217 C 
BRANCH  16  21
ATOM     17  C   UNL     1      -2.839  -0.315   5.354  0.00  0.00    +0.066 C 
ATOM     18  C   UNL     1      -2.475  -1.575   4.611  0.00  0.00    +0.046 A 
ATOM     19  C   UNL     1      -3.228  -2.700   4.711  0.00  0.00    +0.070 A 
ATOM     20  S   UNL     1      -2.318  -3.801   3.639  0.00  0.00    -0.077 S 
ATOM     21  C   UNL     1      -1.100  -2.730   3.188  0.00  0.00    +0.119 A 
ATOM     22  N   UNL     1      -1.415  -1.633   3.829  0.00  0.00    -0.246 NA
ENDBRANCH  16  21
BRANCH  16  23
ATOM     23  C   UNL     1      -0.005  -2.003   1.086  0.00  0.00    +0.425 C 
ATOM     24  F   UNL     1       0.105  -0.690   1.556  0.00  0.00    -0.167 F 
ATOM     25  F   UNL     1       1.043  -2.270   0.199  0.00  0.00    -0.167 F 
ATOM     26  F   UNL     1      -1.228  -2.161   0.425  0.00  0.00    -0.167 F 
ENDBRANCH  16  23
BRANCH  16  27
ATOM     27  O   UNL     1       1.288  -2.769   2.979  0.00  0.00    -0.374 OA
ATOM     28  H   UNL     1       1.401  -3.352   3.742  0.00  0.00    +0.211 HD
ENDBRANCH  16  27
ENDBRANCH   1  16
TORSDOF 7
