REMARK  Name = ZINC64538822
REMARK  10 active torsions:
REMARK  status: ('A' for Active; 'I' for Inactive)
REMARK    1  A    between atoms: C_1  and  C_2
REMARK    2  A    between atoms: C_5  and  N_8
REMARK    3  A    between atoms: C_9  and  C_11
REMARK    4  A    between atoms: C_15  and  C_18
REMARK    5  A    between atoms: C_18  and  O_19
REMARK    6  A    between atoms: O_19  and  C_20
REMARK    7  A    between atoms: C_20  and  C_21
REMARK    8  A    between atoms: N_23  and  C_24
REMARK    9  A    between atoms: C_24  and  C_25
REMARK   10  A    between atoms: C_25  and  C_26
REMARK                            x       y       z     vdW  Elec       q    Type
REMARK                         _______ _______ _______ _____ _____    ______ ____
ROOT
ATOM      1  O   UNL     1       1.820  -9.639   2.834  0.00  0.00    -0.368 OA
ENDROOT
BRANCH   1   2
ATOM      2  C   UNL     1       2.488  -8.602   3.556  0.00  0.00    +0.200 C 
BRANCH   2   6
ATOM      3  C   UNL     1       0.309  -6.349   1.121  0.00  0.00    +0.272 C 
ATOM      4  N   UNL     1       1.668  -6.766   0.707  0.00  0.00    -0.167 NA
ATOM      5  N   UNL     1       2.472  -7.164   1.527  0.00  0.00    -0.174 NA
ATOM      6  C   UNL     1       2.112  -7.243   2.961  0.00  0.00    +0.213 C 
ATOM      7  S   UNL     1       0.277  -7.047   2.833  0.00  0.00    -0.093 S 
BRANCH   3   9
ATOM      8  N   UNL     1       0.059  -4.170  -0.021  0.00  0.00    -0.283 N 
ATOM      9  C   UNL     1       0.175  -4.848   1.138  0.00  0.00    +0.254 C 
ATOM     10  O   UNL     1       0.173  -4.251   2.193  0.00  0.00    -0.272 OA
ATOM     11  H   UNL     1      -0.017  -4.651  -0.860  0.00  0.00    +0.155 HD
BRANCH   8  16
ATOM     12  C   UNL     1       0.008   1.503   0.007  0.00  0.00    +0.044 C 
ATOM     13  C   UNL     1       0.022  -0.004  -0.001  0.00  0.00    -0.050 A 
ATOM     14  C   UNL     1       0.777  -0.692   0.931  0.00  0.00    +0.005 A 
ATOM     15  C   UNL     1       0.791  -2.073   0.927  0.00  0.00    +0.023 A 
ATOM     16  C   UNL     1       0.046  -2.771  -0.014  0.00  0.00    +0.033 A 
ATOM     17  C   UNL     1      -0.712  -2.077  -0.948  0.00  0.00    +0.023 A 
ATOM     18  C   UNL     1      -0.726  -0.696  -0.936  0.00  0.00    +0.005 A 
ENDBRANCH   8  16
ENDBRANCH   3   9
ENDBRANCH   2   6
ENDBRANCH   1   2
BRANCH   1  19
ATOM     19  C   UNL     1       2.105 -10.955   3.312  0.00  0.00    +0.255 C 
BRANCH  19  20
ATOM     20  C   UNL     1       1.352 -11.964   2.484  0.00  0.00    +0.239 C 
ATOM     21  O   UNL     1       0.642 -11.592   1.573  0.00  0.00    -0.273 OA
ATOM     22  N   UNL     1       1.468 -13.279   2.754  0.00  0.00    -0.313 N 
ATOM     23  H   UNL     1       2.035 -13.577   3.482  0.00  0.00    +0.149 HD
BRANCH  22  24
ATOM     24  C   UNL     1       0.736 -14.260   1.948  0.00  0.00    +0.108 C 
BRANCH  24  25
ATOM     25  C   UNL     1       1.040 -15.669   2.460  0.00  0.00    +0.052 C 
BRANCH  25  26
ATOM     26  C   UNL     1       0.287 -16.678   1.631  0.00  0.00    -0.040 C 
ATOM     27  C   UNL     1       0.753 -17.362   0.561  0.00  0.00    +0.000 A 
ATOM     28  C   UNL     1       2.050 -17.370  -0.125  0.00  0.00    +0.030 A 
ATOM     29  C   UNL     1       2.221 -18.180  -1.195  0.00  0.00    +0.042 A 
ATOM     30  C   UNL     1       1.192 -19.010  -1.664  0.00  0.00    +0.022 A 
ATOM     31  C   UNL     1      -0.027 -19.057  -1.086  0.00  0.00    +0.027 A 
ATOM     32  C   UNL     1      -0.317 -18.247   0.047  0.00  0.00    +0.043 A 
ATOM     33  N   UNL     1      -1.402 -18.115   0.771  0.00  0.00    -0.380 N 
ATOM     34  C   UNL     1      -1.141 -17.135   1.831  0.00  0.00    +0.144 C 
ATOM     35 CL   UNL     1       3.754 -18.193  -2.010  0.00  0.00    -0.084 Cl
ATOM     36  H   UNL     1      -2.236 -18.589   0.631  0.00  0.00    +0.160 HD
ENDBRANCH  25  26
ENDBRANCH  24  25
ENDBRANCH  22  24
ENDBRANCH  19  20
ENDBRANCH   1  19
TORSDOF 9
