REMARK  Name = ZINC12164211
REMARK  10 active torsions:
REMARK  status: ('A' for Active; 'I' for Inactive)
REMARK    1  A    between atoms: C_1  and  C_2
REMARK    2  A    between atoms: C_2  and  C_3
REMARK    3  A    between atoms: C_6  and  C_9
REMARK    4  A    between atoms: C_9  and  N_65
REMARK    5  A    between atoms: C_11  and  S_27
REMARK    6  A    between atoms: C_14  and  C_16
REMARK    7  A    between atoms: N_18  and  C_19
REMARK    8  A    between atoms: S_27  and  C_28
REMARK    9  A    between atoms: C_31  and  O_34
REMARK   10  A    between atoms: O_34  and  C_35
REMARK                            x       y       z     vdW  Elec       q    Type
REMARK                         _______ _______ _______ _____ _____    ______ ____
ROOT
ATOM      1  C   UNL     1      -0.265  -2.996   1.316  0.00  0.00    -0.063 C 
ATOM      2  C   UNL     1      -0.987  -2.643  -0.002  0.00  0.00    +0.034 C 
ATOM      3  C   UNL     1      -2.216  -3.574  -0.048  0.00  0.00    +0.006 C 
ATOM      4  C   UNL     1      -2.134  -4.411   1.247  0.00  0.00    +0.021 C 
ATOM      5  N   UNL     1      -0.716  -4.364   1.597  0.00  0.00    +0.391 N 
ATOM      6  H   UNL     1      -0.191  -5.032   1.021  0.00  0.00    -0.080 HD
ENDROOT
BRANCH   4   7
ATOM      7  C   UNL     1      -2.585  -5.825   0.988  0.00  0.00    +0.200 C 
ATOM      8  O   UNL     1      -1.799  -6.742   1.096  0.00  0.00    -0.278 OA
ATOM      9  N   UNL     1      -3.863  -6.071   0.635  0.00  0.00    -0.312 N 
ATOM     10  H   UNL     1      -4.492  -5.337   0.548  0.00  0.00    +0.149 HD
BRANCH   9  11
ATOM     11  C   UNL     1      -4.302  -7.446   0.383  0.00  0.00    +0.095 C 
ATOM     12  C   UNL     1      -5.514  -7.429  -0.562  0.00  0.00    +0.046 C 
ATOM     13  C   UNL     1      -6.147  -8.850  -0.562  0.00  0.00    +0.168 C 
ATOM     14  S   UNL     1      -6.027  -9.274   1.227  0.00  0.00    -0.029 S 
ATOM     15  O   UNL     1      -7.232  -8.891   1.875  0.00  0.00    -0.174 OA
ATOM     16  O   UNL     1      -5.557 -10.608   1.356  0.00  0.00    -0.174 OA
ATOM     17  C   UNL     1      -4.686  -8.116   1.724  0.00  0.00    +0.188 C 
ENDBRANCH   9  11
ENDBRANCH   4   7
BRANCH   5  18
ATOM     18  C   UNL     1      -0.514  -4.695   3.042  0.00  0.00    -0.042 C 
BRANCH  18  22
ATOM     19  C   UNL     1      -3.342  -2.479   5.353  0.00  0.00    -0.048 A 
ATOM     20  C   UNL     1      -3.668  -3.738   4.883  0.00  0.00    +0.004 A 
ATOM     21  C   UNL     1      -2.753  -4.455   4.136  0.00  0.00    +0.002 A 
ATOM     22  C   UNL     1      -1.512  -3.913   3.857  0.00  0.00    -0.064 A 
ATOM     23  C   UNL     1      -1.184  -2.657   4.332  0.00  0.00    +0.002 A 
ATOM     24  C   UNL     1      -2.101  -1.938   5.075  0.00  0.00    +0.004 A 
BRANCH  19  26
ATOM     25  C   UNL     1      -4.151  -2.019   7.652  0.00  0.00    +0.009 C 
ATOM     26  C   UNL     1      -4.340  -1.697   6.168  0.00  0.00    +0.032 C 
ENDBRANCH  19  26
ENDBRANCH  18  22
ENDBRANCH   5  18
BRANCH   2  27
ATOM     27  S   UNL     1      -1.511  -0.906   0.012  0.00  0.00    -0.124 S 
BRANCH  27  28
ATOM     28  C   UNL     1       0.002  -0.004   0.002  0.00  0.00    +0.008 A 
ATOM     29  C   UNL     1      -0.017   1.385   0.010  0.00  0.00    +0.018 A 
ATOM     30  C   UNL     1       1.170   2.091   0.002  0.00  0.00    +0.047 A 
ATOM     31  C   UNL     1       2.380   1.414  -0.013  0.00  0.00    +0.120 A 
ATOM     32  C   UNL     1       2.400   0.027  -0.021  0.00  0.00    +0.047 A 
ATOM     33  C   UNL     1       1.215  -0.681  -0.013  0.00  0.00    +0.018 A 
BRANCH  31  34
ATOM     34  O   UNL     1       3.549   2.111  -0.021  0.00  0.00    -0.495 OA
ATOM     35  C   UNL     1       3.454   3.536  -0.012  0.00  0.00    +0.277 C 
ENDBRANCH  31  34
ENDBRANCH  27  28
ENDBRANCH   2  27
TORSDOF 8
