REMARK  Name = ZINC28054959
REMARK  5 active torsions:
REMARK  status: ('A' for Active; 'I' for Inactive)
REMARK    1  A    between atoms: C_1  and  C_2
REMARK    2  A    between atoms: C_10  and  C_18
REMARK    3  A    between atoms: C_25  and  C_28
REMARK    4  A    between atoms: C_32  and  O_34
REMARK    5  A    between atoms: O_34  and  C_35
REMARK                            x       y       z     vdW  Elec       q    Type
REMARK                         _______ _______ _______ _____ _____    ______ ____
ROOT
ATOM      1  C   UNL     1      -1.748  11.127   1.168  0.00  0.00    +0.044 C 
ATOM      2  C   UNL     1      -1.679   9.881   2.013  0.00  0.00    -0.050 A 
ATOM      3  C   UNL     1      -0.519   9.582   2.705  0.00  0.00    +0.007 A 
ATOM      4  C   UNL     1      -0.440   8.441   3.484  0.00  0.00    +0.046 A 
ATOM      5  C   UNL     1      -1.528   7.593   3.573  0.00  0.00    +0.131 A 
ATOM      6  C   UNL     1      -2.704   7.896   2.874  0.00  0.00    +0.038 A 
ATOM      7  C   UNL     1      -2.776   9.043   2.094  0.00  0.00    +0.016 A 
ATOM      8  C   UNL     1      -3.853   6.967   2.992  0.00  0.00    +0.050 C 
ATOM      9  C   UNL     1      -3.632   5.741   3.472  0.00  0.00    +0.025 C 
ATOM     10  C   UNL     1      -4.742   4.737   3.663  0.00  0.00    +0.174 C 
ATOM     11  N   UNL     1      -5.946   5.184   2.977  0.00  0.00    -0.201 N 
ATOM     12  C   UNL     1      -6.119   6.441   2.492  0.00  0.00    +0.240 A 
ATOM     13  N   UNL     1      -7.303   6.490   1.953  0.00  0.00    -0.092 NA
ATOM     14  N   UNL     1      -7.889   5.347   2.059  0.00  0.00    -0.021 NA
ATOM     15  N   UNL     1      -7.123   4.502   2.670  0.00  0.00    -0.042 NA
ATOM     16  N   UNL     1      -5.128   7.402   2.611  0.00  0.00    -0.282 N 
ATOM     17  C   UNL     1      -2.223   5.338   3.843  0.00  0.00    +0.234 C 
ATOM     18  O   UNL     1      -1.489   6.464   4.324  0.00  0.00    -0.479 OA
ATOM     19  H   UNL     1      -5.310   8.470   2.418  0.00  0.00    +0.155 HD
ENDROOT
BRANCH  10  20
ATOM     20  C   UNL     1      -5.032   4.587   5.134  0.00  0.00    -0.019 A 
ATOM     21  C   UNL     1      -5.434   5.684   5.874  0.00  0.00    +0.009 A 
ATOM     22  C   UNL     1      -5.707   5.547   7.222  0.00  0.00    +0.039 A 
ATOM     23  C   UNL     1      -5.565   4.313   7.834  0.00  0.00    +0.123 A 
ATOM     24  C   UNL     1      -5.157   3.217   7.094  0.00  0.00    +0.039 A 
ATOM     25  C   UNL     1      -4.891   3.355   5.745  0.00  0.00    +0.009 A 
ATOM     26  F   UNL     1      -5.825   4.179   9.153  0.00  0.00    -0.205 F 
ENDBRANCH  10  20
BRANCH  17  27
ATOM     27  C   UNL     1      -1.531   4.776   2.628  0.00  0.00    +0.000 A 
ATOM     28  C   UNL     1      -1.348   3.411   2.507  0.00  0.00    +0.008 A 
ATOM     29  C   UNL     1      -0.714   2.892   1.393  0.00  0.00    +0.004 A 
ATOM     30  C   UNL     1      -0.266   3.737   0.396  0.00  0.00    +0.045 A 
ATOM     31  C   UNL     1      -0.443   5.107   0.517  0.00  0.00    +0.120 A 
ATOM     32  C   UNL     1      -1.080   5.625   1.636  0.00  0.00    +0.053 A 
BRANCH  31  33
ATOM     33  O   UNL     1       0.001   5.940  -0.460  0.00  0.00    -0.495 OA
ATOM     34  C   UNL     1       0.648   5.337  -1.582  0.00  0.00    +0.277 C 
ENDBRANCH  31  33
ENDBRANCH  17  27
TORSDOF 3
