REMARK  Name = ZINC01306184
REMARK  14 active torsions:
REMARK  status: ('A' for Active; 'I' for Inactive)
REMARK    1  A    between atoms: C_1  and  C_2
REMARK    2  A    between atoms: C_2  and  C_3
REMARK    3  A    between atoms: C_3  and  N_4
REMARK    4  A    between atoms: C_11  and  C_23
REMARK    5  A    between atoms: C_13  and  C_19
REMARK    6  A    between atoms: C_13  and  C_21
REMARK    7  A    between atoms: C_14  and  N_18
REMARK    8  A    between atoms: C_15  and  C_16
REMARK    9  A    between atoms: C_26  and  O_31
REMARK   10  A    between atoms: C_27  and  O_29
REMARK   11  A    between atoms: O_29  and  C_30
REMARK   12  A    between atoms: O_31  and  C_32
REMARK   13  A    between atoms: C_32  and  C_33
REMARK   14  A    between atoms: C_32  and  C_34
REMARK                            x       y       z     vdW  Elec       q    Type
REMARK                         _______ _______ _______ _____ _____    ______ ____
ROOT
ATOM      1  N   UNL     1       0.754  -2.000  -1.225  0.00  0.00    -0.298 NA
ATOM      2  C   UNL     1       1.593  -2.545  -0.143  0.00  0.00    +0.112 C 
ATOM      3  C   UNL     1       1.408  -4.042  -0.132  0.00  0.00    -0.007 C 
ATOM      4  C   UNL     1       1.193  -4.688  -1.263  0.00  0.00    -0.026 C 
ATOM      5  C   UNL     1       1.173  -4.007  -2.602  0.00  0.00    +0.044 C 
ATOM      6  C   UNL     1       1.217  -2.498  -2.523  0.00  0.00    +0.093 C 
ATOM      7  C   UNL     1      -0.049  -4.509  -3.372  0.00  0.00    +0.068 C 
ATOM      8  C   UNL     1       0.100  -6.011  -3.613  0.00  0.00    +0.188 C 
ATOM      9  C   UNL     1       0.430  -6.749  -2.350  0.00  0.00    +0.054 C 
ATOM     10  C   UNL     1       0.951  -6.152  -1.248  0.00  0.00    +0.074 C 
ENDROOT
BRANCH   7  11
ATOM     11  C   UNL     1      -1.296  -4.246  -2.568  0.00  0.00    -0.037 A 
ATOM     12  C   UNL     1      -1.928  -3.019  -2.656  0.00  0.00    +0.008 A 
ATOM     13  C   UNL     1      -3.072  -2.773  -1.920  0.00  0.00    +0.050 A 
ATOM     14  C   UNL     1      -3.588  -3.757  -1.092  0.00  0.00    +0.162 A 
ATOM     15  C   UNL     1      -2.952  -4.991  -1.003  0.00  0.00    +0.162 A 
ATOM     16  C   UNL     1      -1.808  -5.233  -1.747  0.00  0.00    +0.053 A 
BRANCH  15  17
ATOM     17  O   UNL     1      -3.454  -5.960  -0.191  0.00  0.00    -0.491 OA
ATOM     18  C   UNL     1      -2.749  -7.202  -0.150  0.00  0.00    +0.277 C 
ENDBRANCH  15  17
BRANCH  14  19
ATOM     19  O   UNL     1      -4.713  -3.516  -0.366  0.00  0.00    -0.486 OA
BRANCH  19  20
ATOM     20  C   UNL     1      -5.379  -2.273  -0.596  0.00  0.00    +0.167 C 
ATOM     21  C   UNL     1      -6.857  -2.410  -0.224  0.00  0.00    +0.051 C 
ATOM     22  C   UNL     1      -4.735  -1.183   0.263  0.00  0.00    +0.051 C 
ENDBRANCH  19  20
ENDBRANCH  14  19
ENDBRANCH   7  11
BRANCH   9  23
ATOM     23  N   UNL     1       0.193  -8.094  -2.307  0.00  0.00    -0.358 N 
ATOM     24  H   UNL     1      -0.179  -8.546  -3.080  0.00  0.00    +0.142 HD
ATOM     25  H   UNL     1       0.396  -8.596  -1.502  0.00  0.00    +0.142 HD
ENDBRANCH   9  23
BRANCH  10  26
ATOM     26  C   UNL     1       1.264  -6.927  -0.085  0.00  0.00    +0.101 C 
ATOM     27  N   UNL     1       1.513  -7.541   0.838  0.00  0.00    -0.191 NA
ENDBRANCH  10  26
BRANCH   8  28
ATOM     28  C   UNL     1       1.175  -6.235  -4.593  0.00  0.00    +0.091 C 
ATOM     29  N   UNL     1       2.005  -6.408  -5.350  0.00  0.00    -0.194 NA
ENDBRANCH   8  28
BRANCH   8  30
ATOM     30  C   UNL     1      -1.161  -6.537  -4.160  0.00  0.00    +0.091 C 
ATOM     31  N   UNL     1      -2.135  -6.943  -4.582  0.00  0.00    -0.194 NA
ENDBRANCH   8  30
BRANCH   1  32
ATOM     32  C   UNL     1       0.747  -0.532  -1.197  0.00  0.00    +0.084 C 
BRANCH  32  34
ATOM     33  C   UNL     1       0.022   1.480   0.095  0.00  0.00    +0.005 C 
ATOM     34  C   UNL     1       0.030  -0.049   0.066  0.00  0.00    +0.012 C 
ENDBRANCH  32  34
ENDBRANCH   1  32
TORSDOF 10
