REMARK  Name = ZINC39781168
REMARK  7 active torsions:
REMARK  status: ('A' for Active; 'I' for Inactive)
REMARK    1  A    between atoms: C_1  and  C_2
REMARK    2  A    between atoms: C_5  and  C_16
REMARK    3  A    between atoms: C_6  and  C_15
REMARK    4  A    between atoms: N_7  and  C_8
REMARK    5  A    between atoms: C_8  and  C_9
REMARK    6  A    between atoms: C_22  and  C_24
REMARK    7  A    between atoms: C_27  and  C_29
REMARK                            x       y       z     vdW  Elec       q    Type
REMARK                         _______ _______ _______ _____ _____    ______ ____
ROOT
ATOM      1  C   UNL     1       2.760  -1.904  -1.710  0.00  0.00    +0.078 A 
ATOM      2  C   UNL     1       2.512  -1.868  -3.056  0.00  0.00    +0.076 A 
ATOM      3  S   UNL     1       3.917  -2.781  -3.677  0.00  0.00    -0.060 S 
ATOM      4  C   UNL     1       4.684  -3.115  -2.097  0.00  0.00    +0.165 A 
ATOM      5  N   UNL     1       3.844  -2.524  -1.267  0.00  0.00    -0.225 NA
ATOM      6  N   UNL     1       5.853  -3.807  -1.818  0.00  0.00    -0.260 N 
ATOM      7  C   UNL     1       6.578  -4.338  -2.822  0.00  0.00    +0.266 C 
ATOM      8  O   UNL     1       6.208  -4.209  -3.974  0.00  0.00    -0.268 OA
ATOM      9  H   UNL     1       6.148  -3.910  -0.900  0.00  0.00    +0.157 HD
ENDROOT
BRANCH   1  13
ATOM     10  C   UNL     1       0.036   1.525   0.350  0.00  0.00    +0.028 C 
ATOM     11  C   UNL     1       0.026   0.001   0.213  0.00  0.00    +0.075 C 
ATOM     12  C   UNL     1       0.627  -0.423  -1.141  0.00  0.00    +0.061 C 
ATOM     13  C   UNL     1       1.832  -1.255  -0.762  0.00  0.00    -0.003 C 
ATOM     14  C   UNL     1       1.918  -1.307   0.562  0.00  0.00    +0.009 C 
ATOM     15  N   UNL     1       0.916  -0.611   1.211  0.00  0.00    -0.327 N 
ATOM     16  C   UNL     1       3.005  -2.056   1.289  0.00  0.00    +0.061 C 
BRANCH  15  17
ATOM     17  C   UNL     1       0.762  -0.498   2.663  0.00  0.00    +0.136 C 
BRANCH  17  18
ATOM     18  C   UNL     1      -0.113  -1.645   3.174  0.00  0.00    +0.135 C 
ATOM     19  C   UNL     1      -0.380  -1.468   4.684  0.00  0.00    +0.035 C 
ATOM     20  C   UNL     1      -0.294  -2.927   5.208  0.00  0.00    +0.031 C 
ATOM     21  C   UNL     1       0.798  -3.510   4.275  0.00  0.00    +0.160 C 
ATOM     22  O   UNL     1       0.569  -2.892   2.997  0.00  0.00    -0.375 OA
ENDBRANCH  17  18
ENDBRANCH  15  17
ENDBRANCH   1  13
BRANCH   7  23
ATOM     23  C   UNL     1       7.818  -5.071  -2.526  0.00  0.00    +0.131 C 
ATOM     24  N   UNL     1       8.346  -5.302  -1.357  0.00  0.00    -0.149 NA
ATOM     25  N   UNL     1       9.433  -5.968  -1.392  0.00  0.00    -0.158 NA
ATOM     26  C   UNL     1       9.823  -6.301  -2.585  0.00  0.00    +0.050 C 
ATOM     27  C   UNL     1       8.763  -5.734  -3.515  0.00  0.00    +0.115 C 
BRANCH  26  28
ATOM     28  C   UNL     1      11.054  -7.083  -2.964  0.00  0.00    +0.036 C 
ATOM     29  C   UNL     1      11.149  -8.531  -2.478  0.00  0.00    +0.010 C 
ATOM     30  C   UNL     1      12.029  -7.452  -1.844  0.00  0.00    +0.010 C 
ENDBRANCH  26  28
ENDBRANCH   7  23
TORSDOF 5
