REMARK  Name = ZINC04750465
REMARK  4 active torsions:
REMARK  status: ('A' for Active; 'I' for Inactive)
REMARK    1  A    between atoms: C_7  and  N_14
REMARK    2  A    between atoms: C_10  and  N_11
REMARK    3  A    between atoms: N_14  and  N_15
REMARK    4  A    between atoms: C_16  and  C_18
REMARK                            x       y       z     vdW  Elec       q    Type
REMARK                         _______ _______ _______ _____ _____    ______ ____
ROOT
ATOM      1  N   UNL     1       4.256  -1.602  -0.049  0.00  0.00    -0.259 N 
ATOM      2  H   UNL     1       5.210  -1.746  -0.147  0.00  0.00    +0.170 HD
ENDROOT
BRANCH   1   9
ATOM      3  C   UNL     1       0.050   1.396   0.645  0.00  0.00    +0.034 A 
ATOM      4  C   UNL     1       1.201   2.117   0.372  0.00  0.00    +0.026 A 
ATOM      5  C   UNL     1       2.408   1.454   0.162  0.00  0.00    +0.043 A 
ATOM      6  N   UNL     1       3.659   1.919  -0.118  0.00  0.00    -0.280 N 
ATOM      7  C   UNL     1       4.521   0.925  -0.240  0.00  0.00    +0.264 C 
ATOM      8  O   UNL     1       5.709   1.030  -0.487  0.00  0.00    -0.268 OA
ATOM      9  C   UNL     1       3.769  -0.359  -0.017  0.00  0.00    +0.116 C 
ATOM     10  C   UNL     1       2.433   0.037   0.234  0.00  0.00    +0.026 A 
ATOM     11  C   UNL     1       1.259  -0.673   0.512  0.00  0.00    +0.044 A 
ATOM     12  C   UNL     1       0.077   0.012   0.715  0.00  0.00    +0.127 A 
ATOM     13  H   UNL     1       3.886   2.856  -0.215  0.00  0.00    +0.155 HD
BRANCH  12  14
ATOM     14  N   UNL     1      -1.167  -0.735   1.009  0.00  0.00    +0.056 N 
ATOM     15  O   UNL     1      -2.203  -0.138   1.187  0.00  0.00    -0.126 OA
ATOM     16  O   UNL     1      -1.146  -1.942   1.070  0.00  0.00    -0.126 OA
ENDBRANCH  12  14
ENDBRANCH   1   9
BRANCH   1  17
ATOM     17  N   UNL     1       3.389  -2.697   0.059  0.00  0.00    -0.231 N 
ATOM     18  C   UNL     1       3.889  -3.946   0.148  0.00  0.00    +0.280 C 
ATOM     19  O   UNL     1       5.091  -4.122   0.136  0.00  0.00    -0.267 OA
ATOM     20  H   UNL     1       2.429  -2.556   0.070  0.00  0.00    +0.173 HD
BRANCH  18  21
ATOM     21  C   UNL     1       2.974  -5.100   0.262  0.00  0.00    +0.152 A 
ATOM     22  C   UNL     1       3.344  -6.460   0.369  0.00  0.00    +0.005 A 
ATOM     23  C   UNL     1       2.186  -7.151   0.449  0.00  0.00    +0.040 A 
ATOM     24  N   UNL     1       1.181  -6.248   0.392  0.00  0.00    -0.281 N 
ATOM     25  H   UNL     1       0.236  -6.466   0.429  0.00  0.00    +0.189 HD
ATOM     26  N   UNL     1       1.657  -5.059   0.289  0.00  0.00    -0.169 NA
ATOM     27  C   UNL     1       2.470  -8.631   0.569  0.00  0.00    +0.055 C 
ATOM     28  C   UNL     1       3.939  -8.796   0.122  0.00  0.00    +0.011 C 
ATOM     29  C   UNL     1       4.525  -7.399   0.425  0.00  0.00    +0.039 C 
ENDBRANCH  18  21
ENDBRANCH   1  17
TORSDOF 4
