REMARK  Name = ZINC12803289
REMARK  8 active torsions:
REMARK  status: ('A' for Active; 'I' for Inactive)
REMARK    1  A    between atoms: C_1  and  C_2
REMARK    2  A    between atoms: C_7  and  C_8
REMARK    3  A    between atoms: C_13  and  C_16
REMARK    4  A    between atoms: C_16  and  O_18
REMARK    5  A    between atoms: O_18  and  C_19
REMARK    6  A    between atoms: C_19  and  C_21
REMARK    7  A    between atoms: C_19  and  C_22
REMARK    8  A    between atoms: C_32  and  C_34
REMARK                            x       y       z     vdW  Elec       q    Type
REMARK                         _______ _______ _______ _____ _____    ______ ____
ROOT
ATOM      1  C   UNL     1       3.892   8.198  -0.131  0.00  0.00    +0.311 C 
ATOM      2  O   UNL     1       4.204   7.052  -0.355  0.00  0.00    -0.251 OA
ENDROOT
BRANCH   1   8
ATOM      3  C   UNL     1       6.617  11.217  -3.730  0.00  0.00    +0.247 C 
ATOM      4  O   UNL     1       7.598  10.685  -4.212  0.00  0.00    -0.270 OA
ATOM      5  N   UNL     1       6.182  10.848  -2.509  0.00  0.00    -0.297 N 
ATOM      6  C   UNL     1       6.948   9.892  -1.698  0.00  0.00    +0.109 C 
ATOM      7  C   UNL     1       6.021   8.747  -1.279  0.00  0.00    +0.033 C 
ATOM      8  C   UNL     1       4.790   9.324  -0.575  0.00  0.00    +0.101 C 
ATOM      9  C   UNL     1       4.028  10.234  -1.541  0.00  0.00    +0.033 C 
ATOM     10  C   UNL     1       4.933  11.396  -1.963  0.00  0.00    +0.109 C 
BRANCH   3  17
ATOM     11  C   UNL     1       5.747  10.694  -6.440  0.00  0.00    +0.044 C 
ATOM     12  C   UNL     1       5.477  12.027  -5.792  0.00  0.00    -0.038 A 
ATOM     13  C   UNL     1       4.809  13.012  -6.489  0.00  0.00    +0.004 A 
ATOM     14  C   UNL     1       4.559  14.236  -5.895  0.00  0.00    +0.000 A 
ATOM     15  C   UNL     1       4.976  14.482  -4.599  0.00  0.00    +0.001 A 
ATOM     16  C   UNL     1       5.641  13.504  -3.889  0.00  0.00    +0.013 A 
ATOM     17  C   UNL     1       5.901  12.268  -4.484  0.00  0.00    +0.040 A 
ENDBRANCH   3  17
ENDBRANCH   1   8
BRANCH   1  18
ATOM     18  O   UNL     1       2.746   8.468   0.513  0.00  0.00    -0.452 OA
BRANCH  18  19
ATOM     19  C   UNL     1       1.931   7.334   0.911  0.00  0.00    +0.259 C 
ATOM     20  C   UNL     1       2.340   6.879   2.313  0.00  0.00    +0.062 C 
BRANCH  19  21
ATOM     21  C   UNL     1       0.479   7.738   0.917  0.00  0.00    +0.261 C 
ATOM     22  O   UNL     1       0.170   8.896   0.733  0.00  0.00    -0.271 OA
ATOM     23  N   UNL     1      -0.477   6.811   1.129  0.00  0.00    -0.265 N 
ATOM     24  C   UNL     1      -1.842   7.083   1.260  0.00  0.00    +0.040 A 
ATOM     25  C   UNL     1      -2.510   8.309   1.208  0.00  0.00    +0.024 A 
ATOM     26  C   UNL     1      -3.878   8.362   1.363  0.00  0.00    +0.002 A 
ATOM     27  C   UNL     1      -4.601   7.202   1.572  0.00  0.00    +0.000 A 
ATOM     28  C   UNL     1      -3.947   5.986   1.630  0.00  0.00    +0.005 A 
ATOM     29  C   UNL     1      -2.576   5.926   1.470  0.00  0.00    -0.024 A 
ATOM     30  C   UNL     1      -1.626   4.750   1.483  0.00  0.00    +0.059 C 
ATOM     31  C   UNL     1      -0.238   5.371   1.254  0.00  0.00    +0.083 C 
ATOM     32  C   UNL     1       0.383   4.822  -0.032  0.00  0.00    +0.029 C 
ENDBRANCH  19  21
ENDBRANCH  18  19
ENDBRANCH   1  18
TORSDOF 5
