REMARK  Name = ZINC59041876
REMARK  9 active torsions:
REMARK  status: ('A' for Active; 'I' for Inactive)
REMARK    1  A    between atoms: C_1  and  C_2
REMARK    2  A    between atoms: C_2  and  O_3
REMARK    3  A    between atoms: O_3  and  C_4
REMARK    4  A    between atoms: C_4  and  C_6
REMARK    5  A    between atoms: C_10  and  N_11
REMARK    6  A    between atoms: C_12  and  C_14
REMARK    7  A    between atoms: C_14  and  S_15
REMARK    8  A    between atoms: S_15  and  C_16
REMARK    9  A    between atoms: C_22  and  C_24
REMARK                            x       y       z     vdW  Elec       q    Type
REMARK                         _______ _______ _______ _____ _____    ______ ____
ROOT
ATOM      1  N   UNL     1      -0.604  -2.455  -3.925  0.00  0.00    -0.279 N 
ATOM      2  C   UNL     1      -1.119  -2.783  -5.126  0.00  0.00    +0.228 C 
ATOM      3  O   UNL     1      -0.397  -3.225  -5.995  0.00  0.00    -0.275 OA
ATOM      4  H   UNL     1      -1.181  -2.102  -3.230  0.00  0.00    +0.155 HD
ENDROOT
BRANCH   1   9
ATOM      5  C   UNL     1       1.449  -2.344  -2.516  0.00  0.00    +0.091 A 
ATOM      6  C   UNL     1       2.876  -2.619  -2.515  0.00  0.00    -0.021 A 
ATOM      7  C   UNL     1       3.343  -3.117  -3.680  0.00  0.00    -0.004 A 
ATOM      8  S   UNL     1       1.922  -3.212  -4.730  0.00  0.00    -0.077 S 
ATOM      9  C   UNL     1       0.750  -2.624  -3.681  0.00  0.00    +0.086 A 
ATOM     10  C   UNL     1       4.757  -3.498  -3.993  0.00  0.00    +0.043 C 
ATOM     11  C   UNL     1       5.669  -2.887  -2.920  0.00  0.00    +0.005 C 
ATOM     12  C   UNL     1       5.082  -3.191  -1.538  0.00  0.00    +0.005 C 
ATOM     13  C   UNL     1       3.799  -2.383  -1.329  0.00  0.00    +0.037 C 
BRANCH   5  14
ATOM     14  C   UNL     1       0.776  -1.800  -1.335  0.00  0.00    +0.342 C 
ATOM     15  O   UNL     1       0.312  -2.552  -0.499  0.00  0.00    -0.245 OA
BRANCH  14  16
ATOM     16  O   UNL     1       0.671  -0.465  -1.174  0.00  0.00    -0.461 OA
BRANCH  16  18
ATOM     17  C   UNL     1      -0.019   1.526   0.010  0.00  0.00    +0.048 C 
ATOM     18  C   UNL     1       0.002  -0.004   0.002  0.00  0.00    +0.229 C 
ENDBRANCH  16  18
ENDBRANCH  14  16
ENDBRANCH   5  14
ENDBRANCH   1   9
BRANCH   2  19
ATOM     19  C   UNL     1      -2.591  -2.599  -5.391  0.00  0.00    +0.172 C 
BRANCH  19  20
ATOM     20  S   UNL     1      -2.971  -3.126  -7.085  0.00  0.00    -0.088 S 
BRANCH  20  21
ATOM     21  C   UNL     1      -4.705  -2.853  -7.236  0.00  0.00    +0.160 A 
ATOM     22  N   UNL     1      -5.572  -2.374  -6.357  0.00  0.00    -0.133 NA
ATOM     23  N   UNL     1      -6.796  -2.242  -6.631  0.00  0.00    -0.125 NA
ATOM     24  C   UNL     1      -7.290  -2.573  -7.813  0.00  0.00    +0.189 A 
ATOM     25  S   UNL     1      -5.798  -3.138  -8.626  0.00  0.00    -0.024 S 
ATOM     26  N   UNL     1      -8.596  -2.499  -8.290  0.00  0.00    -0.256 N 
ATOM     27  C   UNL     1      -9.578  -2.029  -7.496  0.00  0.00    +0.323 C 
ATOM     28  O   UNL     1      -9.324  -1.670  -6.366  0.00  0.00    -0.266 OA
ATOM     29  H   UNL     1      -8.799  -2.786  -9.194  0.00  0.00    +0.157 HD
BRANCH  27  30
ATOM     30  C   UNL     1     -10.992  -1.948  -8.013  0.00  0.00    +0.470 C 
ATOM     31  F   UNL     1     -11.824  -1.432  -7.014  0.00  0.00    -0.162 F 
ATOM     32  F   UNL     1     -11.032  -1.111  -9.133  0.00  0.00    -0.162 F 
ATOM     33  F   UNL     1     -11.431  -3.227  -8.371  0.00  0.00    -0.162 F 
ENDBRANCH  27  30
ENDBRANCH  20  21
ENDBRANCH  19  20
ENDBRANCH   2  19
TORSDOF 8
