REMARK  Name = ZINC39290022
REMARK  4 active torsions:
REMARK  status: ('A' for Active; 'I' for Inactive)
REMARK    1  A    between atoms: C_1  and  N_2
REMARK    2  A    between atoms: C_3  and  C_9
REMARK    3  A    between atoms: N_12  and  C_16
REMARK    4  A    between atoms: C_13  and  N_15
REMARK                            x       y       z     vdW  Elec       q    Type
REMARK                         _______ _______ _______ _____ _____    ______ ____
ROOT
ATOM      1  C   UNL     1      -1.982  -0.735   1.245  0.00  0.00    -0.007 C 
ATOM      2  C   UNL     1      -1.748   0.126   2.213  0.00  0.00    +0.090 C 
ATOM      3  N   UNL     1      -2.700   0.049   3.211  0.00  0.00    -0.272 N 
ATOM      4  N   UNL     1      -3.651  -0.934   2.902  0.00  0.00    -0.264 N 
ATOM      5  C   UNL     1      -3.240  -1.493   1.603  0.00  0.00    +0.066 C 
ATOM      6  H   UNL     1      -2.709   0.596   4.012  0.00  0.00    +0.169 HD
ENDROOT
BRANCH   1   9
ATOM      7  C   UNL     1      -0.018   1.461   0.010  0.00  0.00    +0.133 C 
ATOM      8  N   UNL     1       0.002  -0.004   0.002  0.00  0.00    -0.286 N 
ATOM      9  C   UNL     1      -1.151  -0.925   0.002  0.00  0.00    +0.241 C 
ATOM     10  N   UNL     1      -0.525  -2.257  -0.009  0.00  0.00    -0.169 NA
ATOM     11  N   UNL     1       0.698  -2.101  -0.013  0.00  0.00    -0.098 NA
ATOM     12  C   UNL     1       1.080  -0.818  -0.013  0.00  0.00    +0.179 C 
ATOM     13  S   UNL     1       2.707  -0.284  -0.027  0.00  0.00    -0.015 S 
ENDBRANCH   1   9
BRANCH   4  14
ATOM     14  C   UNL     1      -4.761  -1.303   3.666  0.00  0.00    +0.046 A 
ATOM     15  C   UNL     1      -5.610  -2.307   3.220  0.00  0.00    +0.024 A 
ATOM     16  C   UNL     1      -6.707  -2.670   3.978  0.00  0.00    +0.002 A 
ATOM     17  C   UNL     1      -6.960  -2.033   5.179  0.00  0.00    +0.000 A 
ATOM     18  C   UNL     1      -6.117  -1.032   5.626  0.00  0.00    +0.002 A 
ATOM     19  C   UNL     1      -5.015  -0.669   4.876  0.00  0.00    +0.024 A 
ENDBRANCH   4  14
BRANCH   5  20
ATOM     20  N   UNL     1      -2.954  -2.928   1.734  0.00  0.00    +0.394 N 
ATOM     21  H   UNL     1      -2.268  -3.070   2.459  0.00  0.00    -0.087 HD
ATOM     22  H   UNL     1      -3.802  -3.420   1.973  0.00  0.00    -0.087 HD
ATOM     23  H   UNL     1      -2.597  -3.281   0.859  0.00  0.00    -0.087 HD
ENDBRANCH   5  20
TORSDOF 3
