REMARK  Name = ZINC40986333
REMARK  10 active torsions:
REMARK  status: ('A' for Active; 'I' for Inactive)
REMARK    1  A    between atoms: C_1  and  C_2
REMARK    2  A    between atoms: C_2  and  C_3
REMARK    3  A    between atoms: C_6  and  C_9
REMARK    4  A    between atoms: C_9  and  C_11
REMARK    5  A    between atoms: C_9  and  N_32
REMARK    6  A    between atoms: C_11  and  N_12
REMARK    7  A    between atoms: C_13  and  C_15
REMARK    8  A    between atoms: C_18  and  S_22
REMARK    9  A    between atoms: S_22  and  C_25
REMARK   10  A    between atoms: C_25  and  C_26
REMARK                            x       y       z     vdW  Elec       q    Type
REMARK                         _______ _______ _______ _____ _____    ______ ____
ROOT
ATOM      1  N   UNL     1       2.339   0.259  -5.870  0.00  0.00    -0.312 N 
ATOM      2  C   UNL     1       2.707   1.391  -6.501  0.00  0.00    +0.248 C 
ATOM      3  O   UNL     1       3.884   1.685  -6.585  0.00  0.00    -0.270 OA
ATOM      4  H   UNL     1       1.400   0.024  -5.803  0.00  0.00    +0.149 HD
ENDROOT
BRANCH   2   5
ATOM      5  C   UNL     1       1.681   2.275  -7.092  0.00  0.00    +0.092 A 
ATOM      6  C   UNL     1       0.321   1.958  -7.002  0.00  0.00    +0.130 A 
ATOM      7  N   UNL     1      -0.563   2.777  -7.545  0.00  0.00    -0.219 NA
ATOM      8  C   UNL     1      -0.180   3.878  -8.163  0.00  0.00    +0.272 A 
ATOM      9  N   UNL     1       1.089   4.215  -8.271  0.00  0.00    -0.199 NA
ATOM     10  C   UNL     1       2.041   3.457  -7.753  0.00  0.00    +0.146 A 
ATOM     11 CL   UNL     1       3.710   3.914  -7.896  0.00  0.00    -0.061 Cl
BRANCH   8  12
ATOM     12  S   UNL     1      -1.406   4.931  -8.867  0.00  0.00    +0.036 S 
ATOM     13  O   UNL     1      -0.737   5.612  -9.919  0.00  0.00    -0.166 OA
ATOM     14  O   UNL     1      -2.505   4.074  -9.142  0.00  0.00    -0.166 OA
BRANCH  12  15
ATOM     15  C   UNL     1      -1.837   6.094  -7.543  0.00  0.00    +0.210 C 
BRANCH  15  16
ATOM     16  C   UNL     1      -2.889   7.052  -8.040  0.00  0.00    -0.026 A 
ATOM     17  C   UNL     1      -2.514   8.235  -8.649  0.00  0.00    +0.005 A 
ATOM     18  C   UNL     1      -3.479   9.114  -9.105  0.00  0.00    +0.000 A 
ATOM     19  C   UNL     1      -4.818   8.810  -8.951  0.00  0.00    +0.000 A 
ATOM     20  C   UNL     1      -5.193   7.627  -8.343  0.00  0.00    +0.000 A 
ATOM     21  C   UNL     1      -4.228   6.746  -7.891  0.00  0.00    +0.005 A 
ENDBRANCH  15  16
ENDBRANCH  12  15
ENDBRANCH   8  12
ENDBRANCH   2   5
BRANCH   1  22
ATOM     22  C   UNL     1       3.356  -0.617  -5.284  0.00  0.00    +0.094 C 
BRANCH  22  23
ATOM     23  C   UNL     1       2.673  -1.753  -4.520  0.00  0.00    -0.020 C 
BRANCH  23  24
ATOM     24  N   UNL     1       3.691  -2.675  -4.000  0.00  0.00    +0.385 N 
ATOM     25  C   UNL     1       4.431  -3.268  -5.120  0.00  0.00    -0.078 C 
ATOM     26  C   UNL     1       5.546  -4.167  -4.582  0.00  0.00    -0.019 C 
ATOM     27  C   UNL     1       4.929  -5.280  -3.730  0.00  0.00    -0.004 C 
ATOM     28  C   UNL     1       4.099  -4.651  -2.608  0.00  0.00    -0.019 C 
ATOM     29  C   UNL     1       3.038  -3.733  -3.220  0.00  0.00    -0.078 C 
ATOM     30  H   UNL     1       4.331  -2.168  -3.407  0.00  0.00    -0.081 HD
ENDBRANCH  23  24
BRANCH  23  34
ATOM     31  C   UNL     1       0.425  -0.134  -1.268  0.00  0.00    -0.048 A 
ATOM     32  C   UNL     1      -0.214  -0.490  -2.441  0.00  0.00    +0.004 A 
ATOM     33  C   UNL     1       0.513  -1.014  -3.493  0.00  0.00    +0.002 A 
ATOM     34  C   UNL     1       1.880  -1.181  -3.373  0.00  0.00    -0.059 A 
ATOM     35  C   UNL     1       2.520  -0.825  -2.201  0.00  0.00    +0.002 A 
ATOM     36  C   UNL     1       1.793  -0.297  -1.150  0.00  0.00    +0.004 A 
BRANCH  31  38
ATOM     37  C   UNL     1      -0.433   1.959  -0.254  0.00  0.00    +0.009 C 
ATOM     38  C   UNL     1      -0.368   0.436  -0.121  0.00  0.00    +0.032 C 
ENDBRANCH  31  38
ENDBRANCH  23  34
ENDBRANCH  22  23
ENDBRANCH   1  22
TORSDOF 9
