REMARK  Name = ZINC43199442
REMARK  5 active torsions:
REMARK  status: ('A' for Active; 'I' for Inactive)
REMARK    1  A    between atoms: C_1  and  C_2
REMARK    2  A    between atoms: C_7  and  O_27
REMARK    3  A    between atoms: C_9  and  O_26
REMARK    4  A    between atoms: C_17  and  O_25
REMARK    5  A    between atoms: C_19  and  O_24
REMARK                            x       y       z     vdW  Elec       q    Type
REMARK                         _______ _______ _______ _____ _____    ______ ____
ROOT
ATOM      1  C   UNL     1      -0.019   1.526   0.010  0.00  0.00    +0.052 C 
ATOM      2  C   UNL     1       0.002  -0.004   0.002  0.00  0.00    +0.177 C 
ATOM      3  C   UNL     1      -1.433  -0.536   0.019  0.00  0.00    +0.071 C 
ATOM      4  C   UNL     1      -1.724  -1.261  -1.267  0.00  0.00    -0.025 C 
ATOM      5  C   UNL     1      -2.747  -2.073  -1.353  0.00  0.00    +0.002 C 
ATOM      6  C   UNL     1      -3.646  -2.294  -0.164  0.00  0.00    +0.166 C 
ATOM      7  C   UNL     1      -3.268  -3.602   0.532  0.00  0.00    +0.147 C 
ATOM      8  C   UNL     1      -4.257  -3.881   1.666  0.00  0.00    +0.038 C 
ATOM      9  C   UNL     1      -3.597  -4.777   2.719  0.00  0.00    +0.030 C 
ATOM     10  C   UNL     1      -2.723  -3.932   3.612  0.00  0.00    -0.026 C 
ATOM     11  C   UNL     1      -1.663  -3.327   3.098  0.00  0.00    +0.005 C 
ATOM     12  C   UNL     1      -0.780  -2.485   3.925  0.00  0.00    -0.004 A 
ATOM     13  C   UNL     1      -0.785  -2.580   5.309  0.00  0.00    +0.054 A 
ATOM     14  C   UNL     1       0.065  -1.780   6.064  0.00  0.00    +0.121 A 
ATOM     15  C   UNL     1       0.920  -0.880   5.441  0.00  0.00    +0.091 A 
ATOM     16  C   UNL     1       0.937  -0.769   4.061  0.00  0.00    +0.135 A 
ATOM     17  C   UNL     1       0.090  -1.570   3.287  0.00  0.00    +0.108 A 
ATOM     18  C   UNL     1       0.081  -1.486   1.826  0.00  0.00    +0.344 C 
ATOM     19  O   UNL     1      -0.491  -2.348   1.189  0.00  0.00    -0.245 OA
ATOM     20  O   UNL     1       0.691  -0.482   1.166  0.00  0.00    -0.458 OA
ENDROOT
BRANCH  16  21
ATOM     21  O   UNL     1       1.772   0.116   3.461  0.00  0.00    -0.506 OA
ATOM     22  H   UNL     1       2.641  -0.249   3.244  0.00  0.00    +0.292 HD
ENDBRANCH  16  21
BRANCH  14  23
ATOM     23  O   UNL     1       0.059  -1.877   7.418  0.00  0.00    -0.507 OA
ATOM     24  H   UNL     1       0.681  -2.529   7.768  0.00  0.00    +0.292 HD
ENDBRANCH  14  23
BRANCH   7  25
ATOM     25  O   UNL     1      -3.311  -4.674  -0.413  0.00  0.00    -0.389 OA
ATOM     26  H   UNL     1      -2.708  -4.564  -1.161  0.00  0.00    +0.210 HD
ENDBRANCH   7  25
BRANCH   6  27
ATOM     27  O   UNL     1      -3.497  -1.208   0.753  0.00  0.00    -0.385 OA
ATOM     28  H   UNL     1      -3.723  -0.345   0.380  0.00  0.00    +0.210 HD
ENDBRANCH   6  27
TORSDOF 4
