REMARK  Name = ZINC67169320
REMARK  7 active torsions:
REMARK  status: ('A' for Active; 'I' for Inactive)
REMARK    1  A    between atoms: C_1  and  C_2
REMARK    2  A    between atoms: C_2  and  C_3
REMARK    3  A    between atoms: C_3  and  C_5
REMARK    4  A    between atoms: C_3  and  C_6
REMARK    5  A    between atoms: C_12  and  C_15
REMARK    6  A    between atoms: N_17  and  C_18
REMARK    7  A    between atoms: C_23  and  N_24
REMARK                            x       y       z     vdW  Elec       q    Type
REMARK                         _______ _______ _______ _____ _____    ______ ____
ROOT
ATOM      1  C   UNL     1       2.317  -5.935  -2.681  0.00  0.00    +0.222 C 
ATOM      2  O   UNL     1       1.224  -6.420  -2.881  0.00  0.00    -0.275 OA
ATOM      3  N   UNL     1       3.415  -6.715  -2.708  0.00  0.00    -0.283 N 
ATOM      4  H   UNL     1       4.295  -6.318  -2.613  0.00  0.00    +0.155 HD
ENDROOT
BRANCH   1  11
ATOM      5  C   UNL     1       0.549  -1.683  -1.331  0.00  0.00    +0.218 C 
ATOM      6  O   UNL     1      -0.114  -2.289  -0.517  0.00  0.00    -0.275 OA
ATOM      7  N   UNL     1       1.219  -2.355  -2.289  0.00  0.00    -0.301 N 
ATOM      8  C   UNL     1       2.120  -1.647  -3.209  0.00  0.00    +0.108 C 
ATOM      9  C   UNL     1       3.494  -2.323  -3.170  0.00  0.00    +0.020 C 
ATOM     10  C   UNL     1       3.333  -3.814  -3.471  0.00  0.00    +0.016 C 
ATOM     11  C   UNL     1       2.447  -4.460  -2.402  0.00  0.00    +0.093 C 
ATOM     12  C   UNL     1       1.066  -3.809  -2.429  0.00  0.00    +0.120 C 
BRANCH   5  13
ATOM     13  C   UNL     1       0.625  -0.179  -1.272  0.00  0.00    +0.072 C 
ATOM     14  C   UNL     1       1.868   0.238  -0.484  0.00  0.00    +0.017 C 
BRANCH  13  16
ATOM     15  C   UNL     1      -0.608   1.897  -0.631  0.00  0.00    +0.004 C 
ATOM     16  C   UNL     1      -0.625   0.368  -0.580  0.00  0.00    +0.009 C 
ENDBRANCH  13  16
ENDBRANCH   5  13
ENDBRANCH   1  11
BRANCH   3  17
ATOM     17  C   UNL     1       3.287  -8.095  -2.871  0.00  0.00    +0.067 A 
ATOM     18  C   UNL     1       2.283  -8.629  -3.678  0.00  0.00    +0.045 A 
ATOM     19  C   UNL     1       2.190  -9.999  -3.814  0.00  0.00    +0.112 A 
ATOM     20  N   UNL     1       3.035 -10.799  -3.192  0.00  0.00    -0.261 NA
ATOM     21  C   UNL     1       3.998 -10.333  -2.420  0.00  0.00    +0.145 A 
ATOM     22  C   UNL     1       4.162  -8.975  -2.237  0.00  0.00    +0.165 A 
BRANCH  22  23
ATOM     23  N   UNL     1       5.249  -8.460  -1.374  0.00  0.00    +0.060 N 
ATOM     24  O   UNL     1       6.061  -9.223  -0.905  0.00  0.00    -0.126 OA
ATOM     25  O   UNL     1       5.325  -7.277  -1.139  0.00  0.00    -0.126 OA
ENDBRANCH  22  23
ENDBRANCH   3  17
TORSDOF 5
