REMARK  Name = ZINC02468584
REMARK  5 active torsions:
REMARK  status: ('A' for Active; 'I' for Inactive)
REMARK    1  A    between atoms: C_1  and  C_2
REMARK    2  A    between atoms: C_8  and  N_13
REMARK    3  A    between atoms: N_19  and  C_20
REMARK    4  A    between atoms: C_25  and  S_26
REMARK    5  A    between atoms: S_26  and  C_27
REMARK                            x       y       z     vdW  Elec       q    Type
REMARK                         _______ _______ _______ _____ _____    ______ ____
ROOT
ATOM      1  C   UNL     1      -6.325   5.878  -0.155  0.00  0.00    +0.079 C 
ATOM      2  C   UNL     1      -4.971   5.322   0.290  0.00  0.00    +0.185 C 
ATOM      3  C   UNL     1      -3.857   6.006  -0.516  0.00  0.00    +0.096 C 
ATOM      4  C   UNL     1      -2.521   5.508   0.059  0.00  0.00    +0.114 C 
ATOM      5  C   UNL     1      -2.531   3.996   0.038  0.00  0.00    +0.017 A 
ATOM      6  C   UNL     1      -1.326   3.318   0.032  0.00  0.00    +0.041 A 
ATOM      7  C   UNL     1      -1.306   1.936   0.019  0.00  0.00    +0.127 A 
ATOM      8  C   UNL     1      -2.495   1.229   0.021  0.00  0.00    +0.036 A 
ATOM      9  C   UNL     1      -3.699   1.902   0.027  0.00  0.00    +0.048 A 
ATOM     10  C   UNL     1      -3.723   3.294   0.035  0.00  0.00    +0.128 A 
ATOM     11  O   UNL     1      -4.927   3.922   0.032  0.00  0.00    -0.468 OA
ATOM     12  N   UNL     1      -2.461   5.928   1.469  0.00  0.00    -0.292 N 
ATOM     13  C   UNL     1      -3.577   5.916   2.217  0.00  0.00    +0.310 C 
ATOM     14  O   UNL     1      -3.495   6.205   3.395  0.00  0.00    -0.252 OA
ATOM     15  N   UNL     1      -4.778   5.596   1.711  0.00  0.00    -0.215 N 
ATOM     16  H   UNL     1      -1.618   6.213   1.856  0.00  0.00    +0.151 HD
ENDROOT
BRANCH  15  17
ATOM     17  C   UNL     1      -5.881   5.524   2.573  0.00  0.00    +0.055 A 
ATOM     18  C   UNL     1      -6.201   4.327   3.194  0.00  0.00    +0.025 A 
ATOM     19  C   UNL     1      -7.289   4.258   4.044  0.00  0.00    +0.002 A 
ATOM     20  C   UNL     1      -8.062   5.381   4.278  0.00  0.00    +0.001 A 
ATOM     21  C   UNL     1      -7.750   6.579   3.664  0.00  0.00    +0.016 A 
ATOM     22  C   UNL     1      -6.656   6.659   2.814  0.00  0.00    +0.029 A 
BRANCH  22  23
ATOM     23  S   UNL     1      -6.252   8.187   2.035  0.00  0.00    -0.127 S 
ATOM     24  C   UNL     1      -7.516   9.337   2.642  0.00  0.00    +0.090 C 
ENDBRANCH  22  23
ENDBRANCH  15  17
BRANCH   7  25
ATOM     25  N   UNL     1      -0.014   1.214   0.009  0.00  0.00    +0.056 N 
ATOM     26  O   UNL     1       0.002  -0.004   0.002  0.00  0.00    -0.126 OA
ATOM     27  O   UNL     1       1.032   1.837   0.002  0.00  0.00    -0.126 OA
ENDBRANCH   7  25
TORSDOF 3
