REMARK  Name = ZINC57420396
REMARK  8 active torsions:
REMARK  status: ('A' for Active; 'I' for Inactive)
REMARK    1  A    between atoms: C_1  and  C_2
REMARK    2  A    between atoms: C_2  and  C_3
REMARK    3  A    between atoms: C_2  and  N_4
REMARK    4  A    between atoms: C_13  and  C_15
REMARK    5  A    between atoms: N_17  and  N_18
REMARK    6  A    between atoms: C_19  and  C_20
REMARK    7  A    between atoms: C_19  and  C_21
REMARK    8  A    between atoms: C_24  and  C_27
REMARK                            x       y       z     vdW  Elec       q    Type
REMARK                         _______ _______ _______ _____ _____    ______ ____
ROOT
ATOM      1  C   UNL     1       4.075  -0.051   2.469  0.00  0.00    +0.284 C 
ATOM      2  O   UNL     1       4.758  -0.394   3.415  0.00  0.00    -0.267 OA
ATOM      3  N   UNL     1       4.596   0.744   1.513  0.00  0.00    -0.201 N 
ATOM      4  H   UNL     1       4.051   1.017   0.759  0.00  0.00    +0.178 HD
ENDROOT
BRANCH   1  14
ATOM      5  N   UNL     1       0.711  -0.489   1.189  0.00  0.00    -0.226 N 
ATOM      6  C   UNL     1       0.042  -1.281   2.053  0.00  0.00    +0.275 A 
ATOM      7  O   UNL     1      -1.120  -1.583   1.849  0.00  0.00    -0.266 OA
ATOM      8  C   UNL     1       0.748  -1.770   3.245  0.00  0.00    +0.050 A 
ATOM      9  C   UNL     1       0.148  -2.590   4.195  0.00  0.00    +0.014 A 
ATOM     10  C   UNL     1       0.879  -3.006   5.287  0.00  0.00    +0.001 A 
ATOM     11  C   UNL     1       2.203  -2.616   5.445  0.00  0.00    +0.001 A 
ATOM     12  C   UNL     1       2.816  -1.804   4.514  0.00  0.00    +0.011 A 
ATOM     13  C   UNL     1       2.095  -1.373   3.405  0.00  0.00    +0.020 A 
ATOM     14  C   UNL     1       2.674  -0.505   2.367  0.00  0.00    +0.155 A 
ATOM     15  N   UNL     1       1.932  -0.144   1.348  0.00  0.00    -0.163 NA
BRANCH   5  17
ATOM     16  C   UNL     1      -0.019   1.526   0.010  0.00  0.00    +0.032 C 
ATOM     17  C   UNL     1       0.002  -0.004   0.002  0.00  0.00    +0.105 C 
ATOM     18  C   UNL     1       0.718  -0.497  -1.257  0.00  0.00    +0.032 C 
ENDBRANCH   5  17
ENDBRANCH   1  14
BRANCH   3  19
ATOM     19  N   UNL     1       5.926   1.175   1.610  0.00  0.00    -0.184 NA
ATOM     20  C   UNL     1       6.429   1.940   0.689  0.00  0.00    +0.063 C 
ATOM     21  C   UNL     1       5.582   2.365  -0.483  0.00  0.00    +0.068 C 
BRANCH  20  22
ATOM     22  C   UNL     1       7.827   2.393   0.791  0.00  0.00    -0.002 A 
ATOM     23  C   UNL     1       8.367   3.223  -0.198  0.00  0.00    +0.011 A 
ATOM     24  C   UNL     1       9.663   3.643  -0.103  0.00  0.00    +0.019 A 
ATOM     25  C   UNL     1      10.450   3.245   0.982  0.00  0.00    +0.052 A 
ATOM     26  C   UNL     1       9.910   2.416   1.970  0.00  0.00    +0.019 A 
ATOM     27  C   UNL     1       8.613   1.999   1.879  0.00  0.00    +0.011 A 
BRANCH  25  28
ATOM     28  C   UNL     1      11.809   3.685   1.080  0.00  0.00    +0.099 C 
ATOM     29  N   UNL     1      12.887   4.035   1.159  0.00  0.00    -0.191 NA
ENDBRANCH  25  28
ENDBRANCH  20  22
ENDBRANCH   3  19
TORSDOF 5
