REMARK  Name = ZINC67128275
REMARK  9 active torsions:
REMARK  status: ('A' for Active; 'I' for Inactive)
REMARK    1  A    between atoms: C_1  and  C_2
REMARK    2  A    between atoms: C_6  and  O_9
REMARK    3  A    between atoms: C_7  and  C_8
REMARK    4  A    between atoms: O_9  and  C_10
REMARK    5  A    between atoms: C_10  and  C_12
REMARK    6  A    between atoms: C_10  and  C_13
REMARK    7  A    between atoms: N_15  and  N_16
REMARK    8  A    between atoms: C_17  and  C_19
REMARK    9  A    between atoms: C_22  and  C_24
REMARK                            x       y       z     vdW  Elec       q    Type
REMARK                         _______ _______ _______ _____ _____    ______ ____
ROOT
ATOM      1  C   UNL     1      -0.835  -4.719   3.448  0.00  0.00    +0.270 C 
ATOM      2  O   UNL     1      -1.277  -3.947   4.272  0.00  0.00    -0.270 OA
ATOM      3  N   UNL     1      -1.053  -6.043   3.580  0.00  0.00    -0.231 N 
ATOM      4  H   UNL     1      -0.699  -6.660   2.922  0.00  0.00    +0.173 HD
ENDROOT
BRANCH   3   5
ATOM      5  N   UNL     1      -1.790  -6.526   4.670  0.00  0.00    -0.234 N 
ATOM      6  C   UNL     1      -2.007  -7.850   4.802  0.00  0.00    +0.233 C 
ATOM      7  O   UNL     1      -1.565  -8.622   3.978  0.00  0.00    -0.274 OA
ATOM      8  H   UNL     1      -2.143  -5.908   5.328  0.00  0.00    +0.173 HD
BRANCH   6   9
ATOM      9  C   UNL     1      -2.800  -8.370   5.973  0.00  0.00    +0.084 C 
ATOM     10  C   UNL     1      -2.048  -9.181   7.030  0.00  0.00    +0.022 C 
ATOM     11  C   UNL     1      -3.010  -9.882   6.068  0.00  0.00    +0.032 C 
BRANCH  11  12
ATOM     12  C   UNL     1      -2.409 -10.738   4.983  0.00  0.00    -0.041 A 
ATOM     13  C   UNL     1      -1.042 -10.731   4.775  0.00  0.00    +0.004 A 
ATOM     14  C   UNL     1      -0.489 -11.515   3.780  0.00  0.00    +0.003 A 
ATOM     15  C   UNL     1      -1.303 -12.307   2.991  0.00  0.00    +0.038 A 
ATOM     16  C   UNL     1      -2.671 -12.315   3.199  0.00  0.00    +0.124 A 
ATOM     17  C   UNL     1      -3.224 -11.533   4.200  0.00  0.00    +0.042 A 
ATOM     18  F   UNL     1      -3.468 -13.088   2.428  0.00  0.00    -0.205 F 
ENDBRANCH  11  12
ENDBRANCH   6   9
ENDBRANCH   3   5
BRANCH   1  19
ATOM     19  C   UNL     1      -0.043  -4.199   2.277  0.00  0.00    +0.257 C 
ATOM     20  C   UNL     1       1.363  -4.804   2.303  0.00  0.00    +0.062 C 
BRANCH  19  21
ATOM     21  O   UNL     1       0.050  -2.776   2.358  0.00  0.00    -0.480 OA
BRANCH  21  27
ATOM     22  C   UNL     1       0.424   1.474  -0.013  0.00  0.00    +0.044 C 
ATOM     23  C   UNL     1       0.438  -0.033  -0.000  0.00  0.00    -0.044 A 
ATOM     24  C   UNL     1       0.653  -0.732  -1.174  0.00  0.00    +0.004 A 
ATOM     25  C   UNL     1       0.667  -2.114  -1.165  0.00  0.00    +0.004 A 
ATOM     26  C   UNL     1       0.465  -2.801   0.016  0.00  0.00    +0.046 A 
ATOM     27  C   UNL     1       0.249  -2.102   1.195  0.00  0.00    +0.125 A 
ATOM     28  C   UNL     1       0.242  -0.715   1.185  0.00  0.00    -0.006 A 
ATOM     29  C   UNL     1       0.014   0.048   2.465  0.00  0.00    +0.048 C 
ENDBRANCH  21  27
ENDBRANCH  19  21
ENDBRANCH   1  19
TORSDOF 6
