REMARK  Name = ZINC03580075
REMARK  8 active torsions:
REMARK  status: ('A' for Active; 'I' for Inactive)
REMARK    1  A    between atoms: C_1  and  C_2
REMARK    2  A    between atoms: C_7  and  N_8
REMARK    3  A    between atoms: C_9  and  C_27
REMARK    4  A    between atoms: C_12  and  S_13
REMARK    5  A    between atoms: S_13  and  C_14
REMARK    6  A    between atoms: C_14  and  C_15
REMARK    7  A    between atoms: N_17  and  C_18
REMARK    8  A    between atoms: C_24  and  C_26
REMARK                            x       y       z     vdW  Elec       q    Type
REMARK                         _______ _______ _______ _____ _____    ______ ____
ROOT
ATOM      1  N   UNL     1      -5.584   0.632  -5.454  0.00  0.00    -0.270 N 
ATOM      2  C   UNL     1      -5.727   1.569  -6.454  0.00  0.00    +0.171 A 
ATOM      3  N   UNL     1      -4.786   2.468  -6.277  0.00  0.00    -0.128 NA
ATOM      4  N   UNL     1      -4.078   2.167  -5.248  0.00  0.00    -0.122 NA
ATOM      5  C   UNL     1      -4.516   1.051  -4.708  0.00  0.00    +0.197 A 
ENDROOT
BRANCH   1  12
ATOM      6  C   UNL     1      -4.792  -1.792  -6.717  0.00  0.00    +0.046 C 
ATOM      7  C   UNL     1      -6.016  -1.714  -5.843  0.00  0.00    -0.026 A 
ATOM      8  C   UNL     1      -6.791  -2.839  -5.635  0.00  0.00    +0.005 A 
ATOM      9  C   UNL     1      -7.914  -2.768  -4.832  0.00  0.00    +0.000 A 
ATOM     10  C   UNL     1      -8.267  -1.571  -4.236  0.00  0.00    +0.002 A 
ATOM     11  C   UNL     1      -7.493  -0.444  -4.435  0.00  0.00    +0.026 A 
ATOM     12  C   UNL     1      -6.367  -0.511  -5.245  0.00  0.00    +0.053 A 
ENDBRANCH   1  12
BRANCH   2  13
ATOM     13  C   UNL     1      -6.747   1.563  -7.524  0.00  0.00    +0.038 A 
ATOM     14  C   UNL     1      -6.987   2.714  -8.285  0.00  0.00    +0.014 A 
ATOM     15  C   UNL     1      -7.952   2.656  -9.275  0.00  0.00    +0.020 A 
ATOM     16  C   UNL     1      -8.643   1.475  -9.479  0.00  0.00    +0.111 A 
ATOM     17  N   UNL     1      -8.396   0.406  -8.746  0.00  0.00    -0.263 NA
ATOM     18  C   UNL     1      -7.483   0.409  -7.796  0.00  0.00    +0.122 A 
ENDBRANCH   2  13
BRANCH   5  19
ATOM     19  S   UNL     1      -3.856   0.249  -3.285  0.00  0.00    -0.076 S 
BRANCH  19  20
ATOM     20  C   UNL     1      -2.502   1.382  -2.885  0.00  0.00    +0.173 C 
BRANCH  20  21
ATOM     21  C   UNL     1      -1.773   0.883  -1.664  0.00  0.00    +0.224 C 
ATOM     22  O   UNL     1      -2.134  -0.139  -1.118  0.00  0.00    -0.275 OA
ATOM     23  N   UNL     1      -0.721   1.571  -1.179  0.00  0.00    -0.312 N 
ATOM     24  H   UNL     1      -0.433   2.388  -1.615  0.00  0.00    +0.149 HD
BRANCH  23  25
ATOM     25  C   UNL     1      -0.013   1.086   0.008  0.00  0.00    +0.076 C 
ATOM     26  C   UNL     1      -0.729   1.579   1.267  0.00  0.00    +0.022 C 
ATOM     27  C   UNL     1       0.011   1.072   2.506  0.00  0.00    +0.002 C 
ATOM     28  C   UNL     1       1.446   1.602   2.495  0.00  0.00    +0.000 C 
ATOM     29  C   UNL     1       2.163   1.109   1.237  0.00  0.00    +0.005 C 
ATOM     30  C   UNL     1       1.423   1.615  -0.003  0.00  0.00    +0.006 C 
ATOM     31  C   UNL     1       2.139   1.122  -1.262  0.00  0.00    +0.009 C 
ENDBRANCH  23  25
ENDBRANCH  20  21
ENDBRANCH  19  20
ENDBRANCH   5  19
TORSDOF 6
