REMARK  Name = ZINC02093902
REMARK  11 active torsions:
REMARK  status: ('A' for Active; 'I' for Inactive)
REMARK    1  A    between atoms: C_1  and  C_2
REMARK    2  A    between atoms: C_2  and  O_3
REMARK    3  A    between atoms: O_3  and  C_4
REMARK    4  A    between atoms: C_6  and  C_20
REMARK    5  A    between atoms: C_9  and  O_10
REMARK    6  A    between atoms: O_10  and  C_11
REMARK    7  A    between atoms: C_11  and  C_12
REMARK    8  A    between atoms: C_20  and  N_21
REMARK    9  A    between atoms: N_21  and  C_22
REMARK   10  A    between atoms: C_24  and  C_29
REMARK   11  A    between atoms: C_27  and  C_28
REMARK                            x       y       z     vdW  Elec       q    Type
REMARK                         _______ _______ _______ _____ _____    ______ ____
ROOT
ATOM      1  C   UNL     1      -1.155   1.534   6.431  0.00  0.00    +0.163 A 
ATOM      2  C   UNL     1      -1.151   0.642   5.370  0.00  0.00    +0.054 A 
ATOM      3  C   UNL     1       0.047   0.213   4.831  0.00  0.00    -0.026 A 
ATOM      4  C   UNL     1       1.244   0.668   5.350  0.00  0.00    +0.023 A 
ATOM      5  C   UNL     1       1.248   1.563   6.404  0.00  0.00    +0.059 A 
ATOM      6  C   UNL     1       0.050   1.997   6.950  0.00  0.00    +0.175 A 
ATOM      7  I   UNL     1       3.066   2.258   7.182  0.00  0.00    -0.040 I 
ENDROOT
BRANCH   1   8
ATOM      8  O   UNL     1      -2.333   1.956   6.962  0.00  0.00    -0.489 OA
BRANCH   8  10
ATOM      9  C   UNL     1      -4.745   2.024   7.103  0.00  0.00    +0.048 C 
ATOM     10  C   UNL     1      -3.530   1.440   6.378  0.00  0.00    +0.226 C 
ENDBRANCH   8  10
ENDBRANCH   1   8
BRANCH   6  11
ATOM     11  O   UNL     1       0.052   2.873   7.990  0.00  0.00    -0.483 OA
BRANCH  11  12
ATOM     12  C   UNL     1       0.074   2.317   9.306  0.00  0.00    +0.266 C 
BRANCH  12  13
ATOM     13  C   UNL     1       0.073   3.431  10.322  0.00  0.00    +0.008 A 
ATOM     14  C   UNL     1       0.059   4.748   9.903  0.00  0.00    +0.008 A 
ATOM     15  C   UNL     1       0.053   5.769  10.835  0.00  0.00    +0.000 A 
ATOM     16  C   UNL     1       0.072   5.474  12.185  0.00  0.00    +0.001 A 
ATOM     17  C   UNL     1       0.091   4.158  12.605  0.00  0.00    +0.020 A 
ATOM     18  C   UNL     1       0.092   3.135  11.673  0.00  0.00    +0.047 A 
ATOM     19 CL   UNL     1       0.117   1.481  12.199  0.00  0.00    -0.083 Cl
ENDBRANCH  12  13
ENDBRANCH  11  12
ENDBRANCH   6  11
BRANCH   3  20
ATOM     20  C   UNL     1       0.048  -0.758   3.678  0.00  0.00    +0.137 C 
BRANCH  20  21
ATOM     21  N   UNL     1       0.026  -0.016   2.415  0.00  0.00    -0.340 N 
ATOM     22  H   UNL     1       0.014   0.954   2.422  0.00  0.00    +0.146 HD
BRANCH  21  23
ATOM     23  C   UNL     1       0.023  -0.706   1.200  0.00  0.00    +0.031 A 
ATOM     24  C   UNL     1       0.041  -2.095   1.188  0.00  0.00    +0.026 A 
ATOM     25  C   UNL     1       0.039  -2.773  -0.014  0.00  0.00    -0.049 A 
ATOM     26  C   UNL     1       0.017  -2.071  -1.206  0.00  0.00    +0.004 A 
ATOM     27  C   UNL     1      -0.006  -0.689  -1.197  0.00  0.00    +0.005 A 
ATOM     28  C   UNL     1       0.002  -0.004   0.002  0.00  0.00    -0.030 A 
ATOM     29  C   UNL     1      -0.018   1.503   0.010  0.00  0.00    +0.045 C 
ATOM     30  C   UNL     1       0.059  -4.280  -0.029  0.00  0.00    +0.044 C 
ENDBRANCH  21  23
ENDBRANCH  20  21
ENDBRANCH   3  20
TORSDOF 8
