REMARK  Name = ZINC63796339
REMARK  9 active torsions:
REMARK  status: ('A' for Active; 'I' for Inactive)
REMARK    1  A    between atoms: C_1  and  O_2
REMARK    2  A    between atoms: O_2  and  C_3
REMARK    3  A    between atoms: C_8  and  C_9
REMARK    4  A    between atoms: C_9  and  C_11
REMARK    5  A    between atoms: C_9  and  N_26
REMARK    6  A    between atoms: C_11  and  N_12
REMARK    7  A    between atoms: C_13  and  C_15
REMARK    8  A    between atoms: C_15  and  C_16
REMARK    9  A    between atoms: C_16  and  C_17
REMARK                            x       y       z     vdW  Elec       q    Type
REMARK                         _______ _______ _______ _____ _____    ______ ____
ROOT
ATOM      1  C   UNL     1       0.789  -2.824  -1.333  0.00  0.00    +0.093 C 
ENDROOT
BRANCH   1   2
ATOM      2  N   UNL     1       0.120  -3.707  -2.292  0.00  0.00    -0.317 N 
ATOM      3  C   UNL     1       0.677  -3.940  -3.496  0.00  0.00    +0.213 C 
ATOM      4  O   UNL     1       1.734  -3.419  -3.787  0.00  0.00    -0.276 OA
ATOM      5  H   UNL     1      -0.725  -4.124  -2.059  0.00  0.00    +0.149 HD
BRANCH   3   6
ATOM      6  C   UNL     1      -0.011  -4.848  -4.482  0.00  0.00    +0.100 C 
BRANCH   6   7
ATOM      7  C   UNL     1       0.826  -4.942  -5.760  0.00  0.00    +0.042 C 
BRANCH   7   8
ATOM      8  C   UNL     1       0.138  -5.850  -6.746  0.00  0.00    -0.041 C 
ATOM      9  C   UNL     1      -0.689  -5.482  -7.751  0.00  0.00    -0.001 A 
ATOM     10  C   UNL     1      -1.176  -4.175  -8.209  0.00  0.00    +0.010 A 
ATOM     11  C   UNL     1      -2.015  -4.123  -9.269  0.00  0.00    +0.001 A 
ATOM     12  C   UNL     1      -2.430  -5.282  -9.938  0.00  0.00    +0.002 A 
ATOM     13  C   UNL     1      -2.026  -6.518  -9.576  0.00  0.00    +0.026 A 
ATOM     14  C   UNL     1      -1.142  -6.691  -8.475  0.00  0.00    +0.043 A 
ATOM     15  N   UNL     1      -0.616  -7.765  -7.938  0.00  0.00    -0.380 N 
ATOM     16  C   UNL     1       0.236  -7.358  -6.815  0.00  0.00    +0.144 C 
ATOM     17  H   UNL     1      -0.762  -8.677  -8.236  0.00  0.00    +0.160 HD
ENDBRANCH   7   8
ENDBRANCH   6   7
ENDBRANCH   3   6
ENDBRANCH   1   2
BRANCH   1  18
ATOM     18  C   UNL     1       0.020  -2.831  -0.010  0.00  0.00    -0.017 C 
BRANCH  18  24
ATOM     19  C   UNL     1      -1.509  -0.861  -0.268  0.00  0.00    +0.122 A 
ATOM     20  C   UNL     1      -2.770  -0.317  -0.468  0.00  0.00    +0.046 A 
ATOM     21  C   UNL     1      -3.863  -1.149  -0.617  0.00  0.00    +0.004 A 
ATOM     22  C   UNL     1      -3.702  -2.521  -0.565  0.00  0.00    +0.000 A 
ATOM     23  C   UNL     1      -2.446  -3.065  -0.365  0.00  0.00    +0.005 A 
ATOM     24  C   UNL     1      -1.349  -2.238  -0.222  0.00  0.00    -0.018 A 
BRANCH  19  26
ATOM     25  C   UNL     1      -0.671   1.363  -0.180  0.00  0.00    +0.277 C 
ATOM     26  O   UNL     1      -0.432  -0.045  -0.122  0.00  0.00    -0.495 OA
ENDBRANCH  19  26
ENDBRANCH  18  24
BRANCH  18  27
ATOM     27  N   UNL     1      -0.114  -4.213   0.471  0.00  0.00    +0.385 N 
ATOM     28  C   UNL     1       1.227  -4.826   0.648  0.00  0.00    -0.078 C 
ATOM     29  C   UNL     1       0.960  -5.981   1.646  0.00  0.00    -0.020 C 
ATOM     30  C   UNL     1      -0.093  -5.375   2.603  0.00  0.00    -0.020 C 
ATOM     31  C   UNL     1      -0.745  -4.227   1.809  0.00  0.00    -0.078 C 
ATOM     32  H   UNL     1      -0.663  -4.756  -0.178  0.00  0.00    -0.081 HD
ENDBRANCH  18  27
ENDBRANCH   1  18
TORSDOF 8
