REMARK  Name = ZINC36156667
REMARK  13 active torsions:
REMARK  status: ('A' for Active; 'I' for Inactive)
REMARK    1  A    between atoms: C_1  and  C_2
REMARK    2  A    between atoms: C_2  and  C_3
REMARK    3  A    between atoms: C_3  and  C_4
REMARK    4  A    between atoms: C_4  and  O_6
REMARK    5  A    between atoms: O_6  and  C_7
REMARK    6  A    between atoms: C_7  and  C_8
REMARK    7  A    between atoms: C_8  and  C_10
REMARK    8  A    between atoms: C_8  and  O_35
REMARK    9  A    between atoms: C_10  and  N_11
REMARK   10  A    between atoms: N_11  and  C_12
REMARK   11  A    between atoms: N_11  and  C_19
REMARK   12  A    between atoms: C_12  and  C_13
REMARK   13  A    between atoms: C_19  and  C_20
REMARK                            x       y       z     vdW  Elec       q    Type
REMARK                         _______ _______ _______ _____ _____    ______ ____
ROOT
ATOM      1  N   UNL     1      -5.195  -6.972   0.286  0.00  0.00    +0.389 N 
ATOM      2  H   UNL     1      -5.767  -6.779  -0.523  0.00  0.00    -0.081 HD
ENDROOT
BRANCH   1   3
ATOM      3  C   UNL     1      -3.835  -6.467   0.057  0.00  0.00    -0.043 C 
BRANCH   3   4
ATOM      4  C   UNL     1      -3.899  -4.987  -0.327  0.00  0.00    +0.136 C 
BRANCH   4   5
ATOM      5  O   UNL     1      -4.626  -4.843  -1.549  0.00  0.00    -0.390 OA
ATOM      6  H   UNL     1      -4.236  -5.315  -2.297  0.00  0.00    +0.210 HD
ENDBRANCH   4   5
BRANCH   4   7
ATOM      7  C   UNL     1      -2.480  -4.446  -0.512  0.00  0.00    +0.261 C 
BRANCH   7   8
ATOM      8  O   UNL     1      -2.534  -3.039  -0.755  0.00  0.00    -0.462 OA
BRANCH   8   9
ATOM      9  C   UNL     1      -1.364  -2.407  -0.940  0.00  0.00    +0.307 C 
ATOM     10  O   UNL     1      -0.329  -3.028  -0.897  0.00  0.00    -0.251 OA
BRANCH   9  11
ATOM     11  C   UNL     1      -1.343  -0.923  -1.202  0.00  0.00    +0.120 C 
BRANCH  11  13
ATOM     12  C   UNL     1       0.126   1.049  -1.642  0.00  0.00    +0.004 C 
ATOM     13  C   UNL     1       0.104  -0.457  -1.376  0.00  0.00    +0.008 C 
ENDBRANCH  11  13
ENDBRANCH   9  11
ENDBRANCH   8   9
ENDBRANCH   7   8
ENDBRANCH   4   7
ENDBRANCH   3   4
ENDBRANCH   1   3
BRANCH   1  14
ATOM     14  C   UNL     1      -5.772  -6.308   1.463  0.00  0.00    -0.042 C 
BRANCH  14  15
ATOM     15  C   UNL     1      -4.895  -6.559   2.662  0.00  0.00    -0.064 A 
ATOM     16  C   UNL     1      -5.103  -7.677   3.449  0.00  0.00    +0.002 A 
ATOM     17  C   UNL     1      -4.298  -7.907   4.548  0.00  0.00    +0.000 A 
ATOM     18  C   UNL     1      -3.285  -7.021   4.862  0.00  0.00    +0.000 A 
ATOM     19  C   UNL     1      -3.076  -5.904   4.074  0.00  0.00    +0.000 A 
ATOM     20  C   UNL     1      -3.878  -5.676   2.972  0.00  0.00    +0.002 A 
ENDBRANCH  14  15
ENDBRANCH   1  14
BRANCH   1  21
ATOM     21  C   UNL     1      -5.146  -8.422   0.517  0.00  0.00    -0.003 C 
BRANCH  21  22
ATOM     22  C   UNL     1      -6.550  -8.960   0.630  0.00  0.00    +0.094 A 
ATOM     23  N   UNL     1      -6.739 -10.286   0.851  0.00  0.00    -0.312 N 
ATOM     24  H   UNL     1      -5.968 -10.869   0.933  0.00  0.00    +0.170 HD
ATOM     25  C   UNL     1      -7.975 -10.809   0.959  0.00  0.00    +0.260 A 
ATOM     26  O   UNL     1      -8.129 -12.001   1.159  0.00  0.00    -0.267 OA
ATOM     27  C   UNL     1      -9.108  -9.939   0.836  0.00  0.00    +0.075 A 
ATOM     28  C   UNL     1     -10.528 -10.279   0.917  0.00  0.00    -0.023 A 
ATOM     29  C   UNL     1     -11.409  -9.268   0.767  0.00  0.00    -0.004 A 
ATOM     30  S   UNL     1     -10.413  -7.824   0.514  0.00  0.00    -0.073 S 
ATOM     31  C   UNL     1      -8.812  -8.585   0.609  0.00  0.00    +0.116 A 
ATOM     32  N   UNL     1      -7.562  -8.142   0.519  0.00  0.00    -0.229 NA
ATOM     33  C   UNL     1     -12.904  -9.354   0.805  0.00  0.00    +0.043 C 
ATOM     34  C   UNL     1     -13.308 -10.829   0.672  0.00  0.00    +0.005 C 
ATOM     35  C   UNL     1     -12.463 -11.659   1.642  0.00  0.00    +0.005 C 
ATOM     36  C   UNL     1     -11.013 -11.706   1.158  0.00  0.00    +0.037 C 
ENDBRANCH  21  22
ENDBRANCH   1  21
TORSDOF 12
