REMARK  Name = ZINC04382024
REMARK  12 active torsions:
REMARK  status: ('A' for Active; 'I' for Inactive)
REMARK    1  A    between atoms: C_1  and  C_2
REMARK    2  A    between atoms: C_9  and  C_20
REMARK    3  A    between atoms: C_10  and  N_11
REMARK    4  A    between atoms: N_11  and  C_12
REMARK    5  A    between atoms: C_12  and  C_13
REMARK    6  A    between atoms: C_12  and  C_14
REMARK    7  A    between atoms: C_12  and  C_15
REMARK    8  A    between atoms: C_15  and  C_16
REMARK    9  A    between atoms: C_16  and  C_17
REMARK   10  A    between atoms: C_16  and  C_18
REMARK   11  A    between atoms: C_16  and  C_19
REMARK   12  A    between atoms: C_21  and  C_25
REMARK                            x       y       z     vdW  Elec       q    Type
REMARK                         _______ _______ _______ _____ _____    ______ ____
ROOT
ATOM      1  C   UNL     1       6.414  -6.591   0.639  0.00  0.00    +0.044 C 
ATOM      2  C   UNL     1       5.312  -5.565   0.590  0.00  0.00    -0.046 A 
ATOM      3  C   UNL     1       3.990  -5.962   0.322  0.00  0.00    +0.021 A 
ATOM      4  C   UNL     1       3.001  -5.047   0.276  0.00  0.00    +0.095 A 
ATOM      5  N   UNL     1       3.267  -3.721   0.489  0.00  0.00    -0.287 N 
ATOM      6  C   UNL     1       4.551  -3.303   0.754  0.00  0.00    +0.140 A 
ATOM      7  C   UNL     1       5.594  -4.252   0.803  0.00  0.00    +0.050 A 
ATOM      8  N   UNL     1       4.542  -1.990   0.920  0.00  0.00    -0.225 NA
ATOM      9  C   UNL     1       3.284  -1.533   0.772  0.00  0.00    +0.118 A 
ATOM     10  C   UNL     1       2.466  -2.613   0.505  0.00  0.00    +0.132 A 
ENDROOT
BRANCH   9  11
ATOM     11  C   UNL     1       2.854  -0.124   0.882  0.00  0.00    +0.044 A 
ATOM     12  C   UNL     1       3.606   0.990   1.148  0.00  0.00    -0.034 A 
ATOM     13  C   UNL     1       2.976   2.216   1.202  0.00  0.00    +0.011 A 
ATOM     14  C   UNL     1       1.637   2.282   0.992  0.00  0.00    +0.046 A 
ATOM     15  S   UNL     1       1.219   0.571   0.704  0.00  0.00    -0.095 S 
ATOM     16  C   UNL     1       5.091   0.878   1.376  0.00  0.00    +0.045 C 
ENDBRANCH   9  11
BRANCH  10  17
ATOM     17  N   UNL     1       1.087  -2.579   0.291  0.00  0.00    -0.323 N 
ATOM     18  H   UNL     1       0.616  -2.093   1.039  0.00  0.00    +0.148 HD
BRANCH  17  19
ATOM     19  C   UNL     1       0.547  -3.935   0.123  0.00  0.00    +0.028 C 
ATOM     20  C   UNL     1       1.115  -4.556  -1.155  0.00  0.00    +0.031 C 
ATOM     21  C   UNL     1       0.942  -4.794   1.326  0.00  0.00    +0.031 C 
BRANCH  19  22
ATOM     22  C   UNL     1      -0.978  -3.868   0.022  0.00  0.00    +0.031 C 
BRANCH  22  23
ATOM     23  C   UNL     1      -1.373  -3.109  -1.246  0.00  0.00    -0.036 C 
ATOM     24  C   UNL     1      -1.503  -4.094  -2.410  0.00  0.00    +0.010 C 
ATOM     25  C   UNL     1      -2.712  -2.404  -1.022  0.00  0.00    +0.010 C 
ATOM     26  C   UNL     1      -0.299  -2.071  -1.574  0.00  0.00    +0.010 C 
ENDBRANCH  22  23
ENDBRANCH  19  22
ENDBRANCH  17  19
ENDBRANCH  10  17
TORSDOF 5
