REMARK  Name = ZINC08805962
REMARK  8 active torsions:
REMARK  status: ('A' for Active; 'I' for Inactive)
REMARK    1  A    between atoms: C_1  and  C_2
REMARK    2  A    between atoms: C_2  and  C_4
REMARK    3  A    between atoms: C_2  and  O_15
REMARK    4  A    between atoms: N_6  and  C_7
REMARK    5  A    between atoms: C_7  and  C_13
REMARK    6  A    between atoms: O_15  and  C_16
REMARK    7  A    between atoms: C_16  and  C_18
REMARK    8  A    between atoms: C_21  and  N_24
REMARK                            x       y       z     vdW  Elec       q    Type
REMARK                         _______ _______ _______ _____ _____    ______ ____
ROOT
ATOM      1  C   UNL     1      -0.018   1.471   0.010  0.00  0.00    +0.059 A 
ATOM      2  C   UNL     1      -1.122   2.154   0.527  0.00  0.00    +0.017 A 
ATOM      3  C   UNL     1      -1.135   3.531   0.537  0.00  0.00    +0.025 A 
ATOM      4  C   UNL     1      -0.056   4.242   0.024  0.00  0.00    +0.045 A 
ATOM      5  C   UNL     1       1.043   3.566  -0.496  0.00  0.00    +0.025 A 
ATOM      6  C   UNL     1       1.065   2.189  -0.505  0.00  0.00    +0.017 A 
ENDROOT
BRANCH   4   7
ATOM      7  N   UNL     1      -0.074   5.638   0.031  0.00  0.00    -0.202 N 
ATOM      8  C   UNL     1       0.420   6.288   1.102  0.00  0.00    +0.258 C 
ATOM      9  O   UNL     1       0.871   5.655   2.038  0.00  0.00    -0.269 OA
ATOM     10  C   UNL     1       0.420   7.757   1.145  0.00  0.00    +0.046 A 
ATOM     11  C   UNL     1       0.923   8.467   2.226  0.00  0.00    +0.014 A 
ATOM     12  C   UNL     1       0.898   9.856   2.221  0.00  0.00    +0.001 A 
ATOM     13  C   UNL     1       0.385  10.559   1.169  0.00  0.00    +0.008 A 
ATOM     14  C   UNL     1      -0.134   9.878   0.054  0.00  0.00    -0.016 A 
ATOM     15  C   UNL     1      -0.114   8.468   0.046  0.00  0.00    +0.006 A 
ATOM     16  C   UNL     1      -0.630   7.754  -1.059  0.00  0.00    +0.046 A 
ATOM     17  C   UNL     1      -1.153   8.461  -2.132  0.00  0.00    +0.014 A 
ATOM     18  C   UNL     1      -1.167   9.851  -2.113  0.00  0.00    +0.001 A 
ATOM     19  C   UNL     1      -0.673  10.556  -1.053  0.00  0.00    +0.008 A 
ATOM     20  C   UNL     1      -0.592   6.285  -1.031  0.00  0.00    +0.258 C 
ATOM     21  O   UNL     1      -1.030   5.650  -1.971  0.00  0.00    -0.269 OA
ENDBRANCH   4   7
BRANCH   1  22
ATOM     22  C   UNL     1       0.002  -0.004   0.002  0.00  0.00    +0.340 C 
ATOM     23  O   UNL     1       0.961  -0.596  -0.453  0.00  0.00    -0.245 OA
BRANCH  22  24
ATOM     24  O   UNL     1      -1.043  -0.695   0.499  0.00  0.00    -0.449 OA
BRANCH  24  26
ATOM     25  C   UNL     1      -1.543  -2.653  -0.859  0.00  0.00    +0.062 C 
ATOM     26  C   UNL     1      -0.955  -2.143   0.458  0.00  0.00    +0.259 C 
BRANCH  26  27
ATOM     27  C   UNL     1      -1.729  -2.726   1.613  0.00  0.00    +0.255 C 
ATOM     28  O   UNL     1      -2.373  -2.000   2.339  0.00  0.00    -0.272 OA
ATOM     29  N   UNL     1      -1.705  -4.055   1.837  0.00  0.00    -0.294 N 
ATOM     30  H   UNL     1      -1.190  -4.636   1.256  0.00  0.00    +0.150 HD
BRANCH  29  31
ATOM     31  C   UNL     1      -2.458  -4.621   2.959  0.00  0.00    +0.121 C 
ATOM     32  C   UNL     1      -1.952  -4.016   4.270  0.00  0.00    +0.041 C 
ATOM     33  C   UNL     1      -2.737  -4.607   5.442  0.00  0.00    +0.003 C 
ATOM     34  C   UNL     1      -2.542  -6.125   5.473  0.00  0.00    +0.000 C 
ATOM     35  C   UNL     1      -3.048  -6.730   4.162  0.00  0.00    +0.003 C 
ATOM     36  C   UNL     1      -2.263  -6.139   2.990  0.00  0.00    +0.041 C 
BRANCH  31  37
ATOM     37  C   UNL     1      -3.888  -4.314   2.797  0.00  0.00    +0.088 C 
ATOM     38  N   UNL     1      -4.992  -4.076   2.671  0.00  0.00    -0.194 NA
ENDBRANCH  31  37
ENDBRANCH  29  31
ENDBRANCH  26  27
ENDBRANCH  24  26
ENDBRANCH  22  24
ENDBRANCH   1  22
TORSDOF 7
