REMARK  Name = ZINC63694206
REMARK  6 active torsions:
REMARK  status: ('A' for Active; 'I' for Inactive)
REMARK    1  A    between atoms: C_7  and  C_11
REMARK    2  A    between atoms: N_13  and  C_14
REMARK    3  A    between atoms: C_17  and  C_20
REMARK    4  A    between atoms: N_22  and  C_23
REMARK    5  A    between atoms: C_23  and  C_24
REMARK    6  A    between atoms: C_24  and  C_25
REMARK                            x       y       z     vdW  Elec       q    Type
REMARK                         _______ _______ _______ _____ _____    ______ ____
ROOT
ATOM      1  C   UNL     1      -0.177  -3.404   3.219  0.00  0.00    +0.033 A 
ATOM      2  C   UNL     1       0.914  -3.667   4.041  0.00  0.00    +0.024 A 
ATOM      3  C   UNL     1       0.721  -4.194   5.298  0.00  0.00    +0.015 A 
ATOM      4  C   UNL     1      -0.574  -4.465   5.748  0.00  0.00    +0.037 A 
ATOM      5  C   UNL     1      -1.669  -4.199   4.920  0.00  0.00    +0.015 A 
ATOM      6  C   UNL     1      -1.468  -3.668   3.667  0.00  0.00    +0.024 A 
ENDROOT
BRANCH   1   9
ATOM      7  C   UNL     1       1.101  -3.234   1.224  0.00  0.00    +0.240 C 
ATOM      8  O   UNL     1       1.940  -3.961   1.713  0.00  0.00    -0.273 OA
ATOM      9  N   UNL     1       0.022  -2.870   1.946  0.00  0.00    -0.284 N 
ATOM     10  H   UNL     1      -0.615  -2.237   1.581  0.00  0.00    +0.155 HD
BRANCH   7  17
ATOM     11  C   UNL     1       1.739   1.065   0.121  0.00  0.00    +0.000 A 
ATOM     12  C   UNL     1       3.105   1.150  -0.082  0.00  0.00    +0.001 A 
ATOM     13  C   UNL     1       3.823  -0.006  -0.331  0.00  0.00    +0.016 A 
ATOM     14  C   UNL     1       3.172  -1.222  -0.369  0.00  0.00    +0.028 A 
ATOM     15  C   UNL     1       1.799  -1.331  -0.152  0.00  0.00    -0.006 A 
ATOM     16  C   UNL     1       1.093  -0.152   0.086  0.00  0.00    +0.007 A 
ATOM     17  C   UNL     1       1.263  -2.739  -0.189  0.00  0.00    +0.182 C 
ATOM     18  N   UNL     1       2.150  -3.672  -0.921  0.00  0.00    -0.243 NA
ATOM     19  S   UNL     1       3.736  -2.880  -0.672  0.00  0.00    -0.043 S 
ATOM     20  H   UNL     1       1.912  -3.705  -1.901  0.00  0.00    +0.137 HD
ENDBRANCH   7  17
ENDBRANCH   1   9
BRANCH   4  21
ATOM     21  C   UNL     1      -0.786  -5.030   7.095  0.00  0.00    +0.244 C 
ATOM     22  O   UNL     1       0.167  -5.261   7.814  0.00  0.00    -0.270 OA
ATOM     23  N   UNL     1      -2.035  -5.291   7.528  0.00  0.00    -0.311 N 
ATOM     24  H   UNL     1      -2.795  -5.107   6.955  0.00  0.00    +0.149 HD
BRANCH  23  25
ATOM     25  C   UNL     1      -2.245  -5.852   8.865  0.00  0.00    +0.109 C 
BRANCH  25  26
ATOM     26  C   UNL     1      -3.743  -6.051   9.105  0.00  0.00    +0.052 C 
BRANCH  26  27
ATOM     27  C   UNL     1      -3.958  -6.628  10.480  0.00  0.00    -0.040 C 
ATOM     28  C   UNL     1      -4.240  -5.946  11.614  0.00  0.00    -0.001 A 
ATOM     29  C   UNL     1      -4.421  -4.517  11.896  0.00  0.00    +0.010 A 
ATOM     30  C   UNL     1      -4.700  -4.128  13.160  0.00  0.00    +0.001 A 
ATOM     31  C   UNL     1      -4.821  -5.052  14.206  0.00  0.00    +0.002 A 
ATOM     32  C   UNL     1      -4.669  -6.381  14.026  0.00  0.00    +0.026 A 
ATOM     33  C   UNL     1      -4.373  -6.902  12.736  0.00  0.00    +0.043 A 
ATOM     34  N   UNL     1      -4.181  -8.128  12.313  0.00  0.00    -0.380 N 
ATOM     35  C   UNL     1      -3.911  -8.088  10.871  0.00  0.00    +0.144 C 
ATOM     36  H   UNL     1      -4.217  -8.928  12.860  0.00  0.00    +0.160 HD
ENDBRANCH  26  27
ENDBRANCH  25  26
ENDBRANCH  23  25
ENDBRANCH   4  21
TORSDOF 6
