REMARK  Name = ZINC63139601
REMARK  9 active torsions:
REMARK  status: ('A' for Active; 'I' for Inactive)
REMARK    1  A    between atoms: C_1  and  O_2
REMARK    2  A    between atoms: O_2  and  C_3
REMARK    3  A    between atoms: C_5  and  C_13
REMARK    4  A    between atoms: C_7  and  O_11
REMARK    5  A    between atoms: C_8  and  O_9
REMARK    6  A    between atoms: O_9  and  C_10
REMARK    7  A    between atoms: O_11  and  C_12
REMARK    8  A    between atoms: N_32  and  C_35
REMARK    9  A    between atoms: C_35  and  C_36
REMARK                            x       y       z     vdW  Elec       q    Type
REMARK                         _______ _______ _______ _____ _____    ______ ____
ROOT
ATOM      1  C   UNL     1       2.462   0.340   4.203  0.00  0.00    +0.134 C 
ATOM      2  C   UNL     1       3.964   0.454   3.944  0.00  0.00    +0.131 C 
ATOM      3  C   UNL     1       4.558  -0.898   4.333  0.00  0.00    -0.034 C 
ATOM      4  C   UNL     1       5.117  -1.399   3.240  0.00  0.00    -0.001 A 
ATOM      5  C   UNL     1       5.863  -2.646   3.004  0.00  0.00    +0.010 A 
ATOM      6  C   UNL     1       6.300  -2.852   1.734  0.00  0.00    +0.001 A 
ATOM      7  C   UNL     1       6.073  -1.953   0.687  0.00  0.00    +0.002 A 
ATOM      8  C   UNL     1       5.399  -0.782   0.814  0.00  0.00    +0.026 A 
ATOM      9  C   UNL     1       4.892  -0.453   2.105  0.00  0.00    +0.043 A 
ATOM     10  N   UNL     1       4.227   0.611   2.508  0.00  0.00    -0.375 N 
ATOM     11  C   UNL     1       4.423  -1.435   5.732  0.00  0.00    +0.065 C 
ATOM     12  C   UNL     1       3.038  -1.157   6.255  0.00  0.00    +0.167 C 
ATOM     13  N   UNL     1       2.179  -0.283   5.488  0.00  0.00    -0.279 N 
ATOM     14  C   UNL     1       0.934  -0.063   6.026  0.00  0.00    +0.234 C 
ATOM     15  O   UNL     1       0.146   0.703   5.513  0.00  0.00    -0.274 OA
ATOM     16  C   UNL     1       0.591  -0.823   7.290  0.00  0.00    +0.204 C 
ATOM     17  N   UNL     1       1.036  -2.220   7.132  0.00  0.00    -0.284 N 
ATOM     18  C   UNL     1       2.286  -2.409   6.627  0.00  0.00    +0.237 C 
ATOM     19  O   UNL     1       2.763  -3.515   6.487  0.00  0.00    -0.274 OA
ATOM     20  H   UNL     1       3.952   1.364   1.962  0.00  0.00    +0.160 HD
ENDROOT
BRANCH   1  23
ATOM     21  C   UNL     1       0.626  -0.619   1.042  0.00  0.00    +0.165 A 
ATOM     22  C   UNL     1       1.202   0.138   2.051  0.00  0.00    +0.055 A 
ATOM     23  C   UNL     1       1.837  -0.486   3.109  0.00  0.00    -0.018 A 
ATOM     24  C   UNL     1       1.900  -1.866   3.166  0.00  0.00    +0.055 A 
ATOM     25  C   UNL     1       1.327  -2.630   2.160  0.00  0.00    +0.165 A 
ATOM     26  C   UNL     1       0.683  -2.006   1.098  0.00  0.00    +0.204 A 
BRANCH  21  28
ATOM     27  C   UNL     1      -0.017   1.425   0.010  0.00  0.00    +0.277 C 
ATOM     28  O   UNL     1       0.002  -0.004   0.002  0.00  0.00    -0.491 OA
ENDBRANCH  21  28
BRANCH  26  29
ATOM     29  O   UNL     1       0.114  -2.753   0.113  0.00  0.00    -0.488 OA
ATOM     30  C   UNL     1       0.939  -3.090  -1.004  0.00  0.00    +0.277 C 
ENDBRANCH  26  29
BRANCH  25  31
ATOM     31  O   UNL     1       1.390  -3.987   2.217  0.00  0.00    -0.491 OA
ATOM     32  C   UNL     1       2.062  -4.559   3.340  0.00  0.00    +0.277 C 
ENDBRANCH  25  31
ENDBRANCH   1  23
BRANCH  17  33
ATOM     33  C   UNL     1       0.174  -3.347   7.498  0.00  0.00    +0.182 C 
BRANCH  33  34
ATOM     34  C   UNL     1      -0.654  -3.754   6.307  0.00  0.00    +0.122 A 
ATOM     35  C   UNL     1      -0.308  -4.667   5.382  0.00  0.00    +0.046 A 
ATOM     36  C   UNL     1      -1.371  -4.733   4.453  0.00  0.00    +0.041 A 
ATOM     37  C   UNL     1      -2.304  -3.856   4.865  0.00  0.00    +0.195 A 
ATOM     38  O   UNL     1      -1.867  -3.270   5.992  0.00  0.00    -0.466 OA
ENDBRANCH  33  34
ENDBRANCH  17  33
TORSDOF 6
