REMARK  Name = ZINC63491394
REMARK  8 active torsions:
REMARK  status: ('A' for Active; 'I' for Inactive)
REMARK    1  A    between atoms: C_1  and  C_2
REMARK    2  A    between atoms: C_2  and  C_3
REMARK    3  A    between atoms: C_2  and  C_4
REMARK    4  A    between atoms: C_4  and  C_6
REMARK    5  A    between atoms: C_4  and  N_21
REMARK    6  A    between atoms: N_8  and  C_9
REMARK    7  A    between atoms: C_9  and  C_10
REMARK    8  A    between atoms: C_10  and  C_11
REMARK                            x       y       z     vdW  Elec       q    Type
REMARK                         _______ _______ _______ _____ _____    ______ ____
ROOT
ATOM      1  C   UNL     1      -1.433  -0.534   0.013  0.00  0.00    +0.183 C 
ENDROOT
BRANCH   1   2
ATOM      2  N   UNL     1      -2.119  -0.061   1.218  0.00  0.00    -0.205 N 
ATOM      3  C   UNL     1      -3.232   0.697   1.089  0.00  0.00    +0.264 C 
ATOM      4  O   UNL     1      -3.725   0.912  -0.002  0.00  0.00    -0.269 OA
ATOM      5  C   UNL     1      -3.827   1.252   2.320  0.00  0.00    +0.060 A 
ATOM      6  C   UNL     1      -5.088   1.834   2.354  0.00  0.00    +0.015 A 
ATOM      7  C   UNL     1      -5.569   2.333   3.549  0.00  0.00    +0.001 A 
ATOM      8  C   UNL     1      -4.804   2.256   4.703  0.00  0.00    +0.002 A 
ATOM      9  C   UNL     1      -3.548   1.678   4.681  0.00  0.00    +0.025 A 
ATOM     10  C   UNL     1      -3.053   1.173   3.494  0.00  0.00    +0.055 A 
ATOM     11  N   UNL     1      -1.805   0.570   3.389  0.00  0.00    -0.264 N 
ATOM     12  N   UNL     1      -1.623  -0.401   2.439  0.00  0.00    -0.157 NA
ATOM     13  H   UNL     1      -1.080   0.829   3.978  0.00  0.00    +0.168 HD
ATOM     14  H   UNL     1      -1.994  -1.287   2.746  0.00  0.00    +0.168 HD
ENDBRANCH   1   2
BRANCH   1  15
ATOM     15  C   UNL     1      -1.413  -2.041   0.005  0.00  0.00    +0.235 C 
ATOM     16  O   UNL     1      -1.921  -2.659   0.916  0.00  0.00    -0.274 OA
ATOM     17  N   UNL     1      -0.830  -2.701  -1.015  0.00  0.00    -0.313 N 
ATOM     18  H   UNL     1      -0.423  -2.206  -1.744  0.00  0.00    +0.149 HD
BRANCH  17  19
ATOM     19  C   UNL     1      -0.810  -4.166  -1.024  0.00  0.00    +0.108 C 
BRANCH  19  20
ATOM     20  C   UNL     1      -0.094  -4.659  -2.282  0.00  0.00    +0.052 C 
BRANCH  20  21
ATOM     21  C   UNL     1      -0.073  -6.166  -2.291  0.00  0.00    -0.040 C 
ATOM     22  C   UNL     1      -0.950  -6.988  -2.911  0.00  0.00    +0.002 A 
ATOM     23  C   UNL     1      -2.140  -6.734  -3.732  0.00  0.00    +0.048 A 
ATOM     24  C   UNL     1      -2.833  -7.786  -4.227  0.00  0.00    +0.124 A 
ATOM     25  C   UNL     1      -2.441  -9.111  -3.976  0.00  0.00    +0.040 A 
ATOM     26  C   UNL     1      -1.360  -9.422  -3.230  0.00  0.00    +0.029 A 
ATOM     27  C   UNL     1      -0.559  -8.393  -2.661  0.00  0.00    +0.043 A 
ATOM     28  N   UNL     1       0.518  -8.439  -1.915  0.00  0.00    -0.380 N 
ATOM     29  C   UNL     1       0.936  -7.065  -1.612  0.00  0.00    +0.144 C 
ATOM     30  F   UNL     1      -3.929  -7.556  -4.983  0.00  0.00    -0.205 F 
ATOM     31  H   UNL     1       0.965  -9.246  -1.615  0.00  0.00    +0.160 HD
ENDBRANCH  20  21
ENDBRANCH  19  20
ENDBRANCH  17  19
ENDBRANCH   1  15
BRANCH   1  33
ATOM     32  C   UNL     1      -0.019   1.526   0.010  0.00  0.00    +0.009 C 
ATOM     33  C   UNL     1       0.002  -0.004   0.002  0.00  0.00    +0.014 C 
ATOM     34  C   UNL     1       0.742  -0.511   1.242  0.00  0.00    +0.009 C 
ENDBRANCH   1  33
TORSDOF 6
