REMARK  Name = ZINC40568415
REMARK  4 active torsions:
REMARK  status: ('A' for Active; 'I' for Inactive)
REMARK    1  A    between atoms: C_3  and  C_6
REMARK    2  A    between atoms: C_10  and  N_26
REMARK    3  A    between atoms: C_11  and  C_15
REMARK    4  A    between atoms: C_15  and  C_17
REMARK                            x       y       z     vdW  Elec       q    Type
REMARK                         _______ _______ _______ _____ _____    ______ ____
ROOT
ATOM      1  C   UNL     1       3.783   1.545   0.759  0.00  0.00    +0.111 A 
ATOM      2  C   UNL     1       4.348   0.408   1.370  0.00  0.00    -0.015 A 
ATOM      3  C   UNL     1       5.657   0.122   1.177  0.00  0.00    -0.031 A 
ATOM      4  C   UNL     1       6.450   0.983   0.365  0.00  0.00    +0.032 A 
ATOM      5  C   UNL     1       7.861   0.862   0.039  0.00  0.00    +0.052 A 
ATOM      6  C   UNL     1       8.429   1.823  -0.776  0.00  0.00    +0.083 A 
ATOM      7  S   UNL     1       7.069   2.920  -1.129  0.00  0.00    -0.064 S 
ATOM      8  C   UNL     1       5.795   2.099  -0.203  0.00  0.00    +0.112 A 
ATOM      9  N   UNL     1       4.520   2.341  -0.004  0.00  0.00    -0.236 NA
ATOM     10  C   UNL     1       6.335  -1.081   1.776  0.00  0.00    +0.036 C 
ATOM     11  C   UNL     1       5.507  -1.645   2.929  0.00  0.00    +0.005 C 
ATOM     12  C   UNL     1       4.064  -1.825   2.443  0.00  0.00    +0.005 C 
ATOM     13  C   UNL     1       3.450  -0.443   2.230  0.00  0.00    +0.038 C 
ENDROOT
BRANCH   1  16
ATOM     14  C   UNL     1       0.425   2.914   1.251  0.00  0.00    +0.042 A 
ATOM     15  C   UNL     1       1.807   3.093   1.057  0.00  0.00    +0.051 A 
ATOM     16  C   UNL     1       2.355   1.849   0.965  0.00  0.00    +0.153 A 
ATOM     17  O   UNL     1       1.364   0.945   1.095  0.00  0.00    -0.461 OA
ATOM     18  C   UNL     1       0.197   1.584   1.268  0.00  0.00    +0.196 A 
ENDBRANCH   1  16
BRANCH   5  19
ATOM     19  N   UNL     1       8.618  -0.189   0.534  0.00  0.00    -0.356 N 
ATOM     20  H   UNL     1       8.192  -1.032   0.754  0.00  0.00    +0.142 HD
ATOM     21  H   UNL     1       9.573  -0.080   0.661  0.00  0.00    +0.142 HD
ENDBRANCH   5  19
BRANCH   6  22
ATOM     22  C   UNL     1       9.767   1.914  -1.224  0.00  0.00    +0.202 C 
ATOM     23  O   UNL     1      10.551   1.011  -0.987  0.00  0.00    -0.286 OA
BRANCH  22  24
ATOM     24  C   UNL     1      10.215   3.103  -1.978  0.00  0.00    +0.027 A 
ATOM     25  C   UNL     1       9.541   4.318  -1.835  0.00  0.00    +0.015 A 
ATOM     26  C   UNL     1       9.960   5.426  -2.538  0.00  0.00    +0.050 A 
ATOM     27  C   UNL     1      11.052   5.339  -3.391  0.00  0.00    +0.166 A 
ATOM     28  C   UNL     1      11.730   4.129  -3.539  0.00  0.00    +0.167 A 
ATOM     29  C   UNL     1      11.318   3.016  -2.831  0.00  0.00    +0.061 A 
ATOM     30  O   UNL     1      12.754   4.308  -4.424  0.00  0.00    -0.453 OA
ATOM     31  C   UNL     1      12.446   5.527  -5.125  0.00  0.00    +0.466 C 
ATOM     32  O   UNL     1      11.653   6.273  -4.183  0.00  0.00    -0.453 OA
ENDBRANCH  22  24
ENDBRANCH   6  22
TORSDOF 4
