REMARK  Name = ZINC52096671
REMARK  8 active torsions:
REMARK  status: ('A' for Active; 'I' for Inactive)
REMARK    1  A    between atoms: C_1  and  C_2
REMARK    2  A    between atoms: C_4  and  N_12
REMARK    3  A    between atoms: C_7  and  C_8
REMARK    4  A    between atoms: C_9  and  C_10
REMARK    5  A    between atoms: C_10  and  N_11
REMARK    6  A    between atoms: N_12  and  S_13
REMARK    7  A    between atoms: S_13  and  C_16
REMARK    8  A    between atoms: N_18  and  C_21
REMARK                            x       y       z     vdW  Elec       q    Type
REMARK                         _______ _______ _______ _____ _____    ______ ____
ROOT
ATOM      1  C   UNL     1      -0.018   1.503   0.010  0.00  0.00    +0.045 C 
ATOM      2  C   UNL     1       0.002  -0.004   0.002  0.00  0.00    -0.033 A 
ATOM      3  C   UNL     1       0.006  -0.687  -1.195  0.00  0.00    +0.031 A 
ATOM      4  C   UNL     1       0.025  -2.077  -1.203  0.00  0.00    +0.075 A 
ATOM      5  C   UNL     1       0.039  -2.783  -0.005  0.00  0.00    +0.028 A 
ATOM      6  C   UNL     1       0.035  -2.105   1.195  0.00  0.00    +0.019 A 
ATOM      7  C   UNL     1       0.023  -0.709   1.207  0.00  0.00    +0.028 A 
ENDROOT
BRANCH   7   8
ATOM      8  C   UNL     1       0.025  -0.002   2.452  0.00  0.00    -0.068 C 
ATOM      9  C   UNL     1       0.027   0.578   3.473  0.00  0.00    -0.117 C 
BRANCH   9  10
ATOM     10  C   UNL     1       0.029   1.304   4.753  0.00  0.00    +0.005 C 
BRANCH  10  11
ATOM     11  N   UNL     1       0.053   0.342   5.862  0.00  0.00    +0.385 N 
ATOM     12  H   UNL     1      -0.763  -0.249   5.812  0.00  0.00    -0.089 HD
ATOM     13  H   UNL     1       0.884  -0.226   5.797  0.00  0.00    -0.089 HD
ATOM     14  H   UNL     1       0.055   0.840   6.740  0.00  0.00    -0.089 HD
ENDBRANCH  10  11
ENDBRANCH   9  10
ENDBRANCH   7   8
BRANCH   4  15
ATOM     15  N   UNL     1       0.028  -2.766  -2.417  0.00  0.00    -0.096 NA
BRANCH  15  16
ATOM     16  S   UNL     1       0.051  -4.422  -2.429  0.00  0.00    +0.108 S 
ATOM     17  O   UNL     1       1.304  -4.815  -1.887  0.00  0.00    -0.147 OA
ATOM     18  O   UNL     1      -1.187  -4.849  -1.875  0.00  0.00    -0.147 OA
BRANCH  16  19
ATOM     19  C   UNL     1       0.050  -4.931  -4.116  0.00  0.00    +0.195 A 
ATOM     20  C   UNL     1      -1.040  -5.169  -4.870  0.00  0.00    +0.134 A 
ATOM     21  N   UNL     1      -0.592  -5.538  -6.109  0.00  0.00    -0.340 N 
ATOM     22  C   UNL     1       0.758  -5.512  -6.069  0.00  0.00    +0.175 A 
ATOM     23  N   UNL     1       1.134  -5.143  -4.875  0.00  0.00    -0.330 N 
ATOM     24  C   UNL     1      -1.421  -5.894  -7.264  0.00  0.00    +0.150 C 
ATOM     25  H   UNL     1       2.054  -5.041  -4.583  0.00  0.00    +0.168 HD
ENDBRANCH  16  19
ENDBRANCH  15  16
ENDBRANCH   4  15
TORSDOF 6
