REMARK  Name = ZINC63827765
REMARK  10 active torsions:
REMARK  status: ('A' for Active; 'I' for Inactive)
REMARK    1  A    between atoms: C_1  and  C_2
REMARK    2  A    between atoms: C_4  and  C_17
REMARK    3  A    between atoms: C_5  and  C_16
REMARK    4  A    between atoms: N_6  and  C_7
REMARK    5  A    between atoms: C_7  and  C_9
REMARK    6  A    between atoms: C_7  and  C_10
REMARK    7  A    between atoms: C_17  and  C_19
REMARK    8  A    between atoms: C_19  and  N_20
REMARK    9  A    between atoms: C_23  and  C_28
REMARK   10  A    between atoms: C_28  and  C_29
REMARK                            x       y       z     vdW  Elec       q    Type
REMARK                         _______ _______ _______ _____ _____    ______ ____
ROOT
ATOM      1  N   UNL     1      -2.683  -4.628  -2.626  0.00  0.00    -0.217 N 
ATOM      2  C   UNL     1      -2.010  -4.979  -3.739  0.00  0.00    +0.244 C 
ATOM      3  O   UNL     1      -1.200  -4.311  -4.345  0.00  0.00    -0.273 OA
ATOM      4  C   UNL     1      -2.477  -6.381  -4.076  0.00  0.00    +0.165 C 
ATOM      5  N   UNL     1      -3.450  -6.686  -3.013  0.00  0.00    -0.287 N 
ATOM      6  C   UNL     1      -3.498  -5.606  -2.213  0.00  0.00    +0.310 C 
ATOM      7  O   UNL     1      -4.206  -5.525  -1.228  0.00  0.00    -0.252 OA
ATOM      8  H   UNL     1      -3.956  -7.508  -2.909  0.00  0.00    +0.151 HD
ENDROOT
BRANCH   1   9
ATOM      9  C   UNL     1      -2.536  -3.338  -1.947  0.00  0.00    +0.197 C 
BRANCH   9  10
ATOM     10  C   UNL     1      -1.438  -3.434  -0.918  0.00  0.00    +0.183 C 
ATOM     11  O   UNL     1      -0.838  -4.478  -0.768  0.00  0.00    -0.290 OA
BRANCH  10  15
ATOM     12  C   UNL     1      -1.389   1.254   1.076  0.00  0.00    +0.063 C 
ATOM     13  C   UNL     1      -1.089  -0.190   0.769  0.00  0.00    +0.017 A 
ATOM     14  C   UNL     1      -1.718  -0.938  -0.153  0.00  0.00    +0.034 A 
ATOM     15  C   UNL     1      -1.097  -2.268  -0.101  0.00  0.00    +0.040 A 
ATOM     16  C   UNL     1      -0.123  -2.193   0.877  0.00  0.00    +0.027 A 
ATOM     17  N   UNL     1      -0.130  -0.946   1.380  0.00  0.00    -0.341 N 
ATOM     18  C   UNL     1       0.792  -3.312   1.301  0.00  0.00    +0.064 C 
BRANCH  17  19
ATOM     19  C   UNL     1       0.763  -0.467   2.438  0.00  0.00    +0.114 C 
ATOM     20  C   UNL     1       1.075  -1.614   3.401  0.00  0.00    +0.036 C 
BRANCH  19  21
ATOM     21  C   UNL     1       2.044   0.037   1.825  0.00  0.00    -0.025 A 
ATOM     22  C   UNL     1       2.731  -0.749   0.918  0.00  0.00    +0.005 A 
ATOM     23  C   UNL     1       3.906  -0.287   0.355  0.00  0.00    +0.000 A 
ATOM     24  C   UNL     1       4.394   0.960   0.699  0.00  0.00    +0.000 A 
ATOM     25  C   UNL     1       3.707   1.745   1.605  0.00  0.00    +0.000 A 
ATOM     26  C   UNL     1       2.529   1.286   2.164  0.00  0.00    +0.005 A 
ENDBRANCH  19  21
ENDBRANCH  17  19
ENDBRANCH  10  15
ENDBRANCH   9  10
ENDBRANCH   1   9
BRANCH   4  27
ATOM     27  C   UNL     1      -1.305  -7.363  -4.035  0.00  0.00    +0.065 C 
BRANCH  27  28
ATOM     28  C   UNL     1      -1.771  -8.721  -4.492  0.00  0.00    -0.039 C 
ATOM     29  C   UNL     1      -1.681  -9.235  -5.740  0.00  0.00    -0.001 A 
ATOM     30  C   UNL     1      -1.144  -8.702  -6.998  0.00  0.00    +0.010 A 
ATOM     31  C   UNL     1      -1.197  -9.469  -8.111  0.00  0.00    +0.001 A 
ATOM     32  C   UNL     1      -1.750 -10.757  -8.092  0.00  0.00    +0.002 A 
ATOM     33  C   UNL     1      -2.263 -11.315  -6.975  0.00  0.00    +0.026 A 
ATOM     34  C   UNL     1      -2.260 -10.597  -5.747  0.00  0.00    +0.043 A 
ATOM     35  N   UNL     1      -2.691 -10.914  -4.550  0.00  0.00    -0.380 N 
ATOM     36  C   UNL     1      -2.428  -9.789  -3.646  0.00  0.00    +0.144 C 
ATOM     37  H   UNL     1      -3.109 -11.753  -4.303  0.00  0.00    +0.160 HD
ENDBRANCH  27  28
ENDBRANCH   4  27
TORSDOF 7
