REMARK  Name = ZINC12412418
REMARK  12 active torsions:
REMARK  status: ('A' for Active; 'I' for Inactive)
REMARK    1  A    between atoms: C_1  and  C_2
REMARK    2  A    between atoms: C_2  and  O_3
REMARK    3  A    between atoms: O_3  and  C_4
REMARK    4  A    between atoms: C_4  and  C_6
REMARK    5  A    between atoms: C_7  and  N_37
REMARK    6  A    between atoms: N_8  and  C_28
REMARK    7  A    between atoms: C_11  and  C_13
REMARK    8  A    between atoms: C_16  and  S_19
REMARK    9  A    between atoms: S_19  and  C_20
REMARK   10  A    between atoms: C_24  and  C_26
REMARK   11  A    between atoms: C_24  and  C_27
REMARK   12  A    between atoms: C_32  and  N_34
REMARK                            x       y       z     vdW  Elec       q    Type
REMARK                         _______ _______ _______ _____ _____    ______ ____
ROOT
ATOM      1  C   UNL     1       2.807   1.758   0.905  0.00  0.00    +0.084 C 
ATOM      2  C   UNL     1       3.826   2.654   1.008  0.00  0.00    +0.103 C 
ATOM      3  N   UNL     1       4.667   2.867  -0.058  0.00  0.00    -0.260 N 
ATOM      4  C   UNL     1       4.765   1.940  -1.063  0.00  0.00    +0.025 C 
ATOM      5  C   UNL     1       3.791   1.025  -1.253  0.00  0.00    +0.025 C 
ATOM      6  C   UNL     1       2.572   0.996  -0.366  0.00  0.00    +0.094 C 
ATOM      7  C   UNL     1       3.882   0.073  -2.284  0.00  0.00    +0.162 C 
ATOM      8  O   UNL     1       2.995  -0.747  -2.418  0.00  0.00    -0.292 OA
ATOM      9  C   UNL     1       5.057   0.050  -3.223  0.00  0.00    +0.086 C 
ATOM     10  C   UNL     1       5.624   1.468  -3.346  0.00  0.00    -0.023 C 
ATOM     11  C   UNL     1       5.989   1.967  -1.946  0.00  0.00    +0.058 C 
ATOM     12  C   UNL     1       4.571   2.392  -3.962  0.00  0.00    +0.011 C 
ATOM     13  C   UNL     1       6.874   1.453  -4.228  0.00  0.00    +0.011 C 
ENDROOT
BRANCH   6  14
ATOM     14  C   UNL     1       1.410   1.610  -1.103  0.00  0.00    -0.035 A 
ATOM     15  C   UNL     1       0.273   0.861  -1.344  0.00  0.00    +0.005 A 
ATOM     16  C   UNL     1      -0.792   1.419  -2.024  0.00  0.00    +0.015 A 
ATOM     17  C   UNL     1      -0.724   2.739  -2.455  0.00  0.00    +0.008 A 
ATOM     18  C   UNL     1       0.420   3.488  -2.211  0.00  0.00    +0.015 A 
ATOM     19  C   UNL     1       1.483   2.921  -1.536  0.00  0.00    +0.005 A 
BRANCH  17  20
ATOM     20  S   UNL     1      -2.083   3.457  -3.317  0.00  0.00    -0.129 S 
ATOM     21  C   UNL     1      -3.310   2.123  -3.391  0.00  0.00    +0.090 C 
ENDBRANCH  17  20
ENDBRANCH   6  14
BRANCH   3  22
ATOM     22  C   UNL     1       5.430   4.039  -0.117  0.00  0.00    +0.042 A 
ATOM     23  C   UNL     1       6.636   4.120   0.567  0.00  0.00    +0.024 A 
ATOM     24  C   UNL     1       7.386   5.278   0.505  0.00  0.00    +0.004 A 
ATOM     25  C   UNL     1       6.938   6.356  -0.236  0.00  0.00    +0.033 A 
ATOM     26  C   UNL     1       5.738   6.279  -0.918  0.00  0.00    +0.128 A 
ATOM     27  C   UNL     1       4.985   5.122  -0.865  0.00  0.00    +0.056 A 
BRANCH  26  28
ATOM     28  N   UNL     1       5.262   7.434  -1.711  0.00  0.00    +0.056 N 
ATOM     29  O   UNL     1       5.928   8.453  -1.762  0.00  0.00    -0.126 OA
ATOM     30  O   UNL     1       4.205   7.367  -2.313  0.00  0.00    -0.126 OA
ENDBRANCH  26  28
ENDBRANCH   3  22
BRANCH   2  31
ATOM     31  N   UNL     1       4.014   3.345   2.177  0.00  0.00    -0.346 N 
ATOM     32  H   UNL     1       4.330   4.262   2.153  0.00  0.00    +0.143 HD
ATOM     33  H   UNL     1       3.833   2.917   3.029  0.00  0.00    +0.143 HD
ENDBRANCH   2  31
BRANCH   1  34
ATOM     34  C   UNL     1       1.962   1.544   2.004  0.00  0.00    +0.339 C 
ATOM     35  O   UNL     1       2.125   2.179   3.030  0.00  0.00    -0.245 OA
BRANCH  34  36
ATOM     36  O   UNL     1       0.969   0.632   1.924  0.00  0.00    -0.462 OA
BRANCH  36  38
ATOM     37  C   UNL     1      -0.915  -0.600   2.804  0.00  0.00    +0.048 C 
ATOM     38  C   UNL     1       0.147   0.466   3.081  0.00  0.00    +0.229 C 
ENDBRANCH  36  38
ENDBRANCH  34  36
ENDBRANCH   1  34
TORSDOF 8
