REMARK  Name = ZINC56781581
REMARK  5 active torsions:
REMARK  status: ('A' for Active; 'I' for Inactive)
REMARK    1  A    between atoms: C_3  and  C_8
REMARK    2  A    between atoms: N_16  and  C_17
REMARK    3  A    between atoms: C_17  and  C_18
REMARK    4  A    between atoms: C_21  and  S_24
REMARK    5  A    between atoms: S_24  and  N_27
REMARK                            x       y       z     vdW  Elec       q    Type
REMARK                         _______ _______ _______ _____ _____    ______ ____
ROOT
ATOM      1  C   UNL     1       3.672   2.186  -0.021  0.00  0.00    +0.108 C 
ATOM      2  C   UNL     1       4.242   2.240  -1.454  0.00  0.00    +0.029 C 
ATOM      3  C   UNL     1       5.769   2.090  -1.226  0.00  0.00    +0.021 C 
ATOM      4  C   UNL     1       5.810   1.112  -0.025  0.00  0.00    +0.110 C 
ATOM      5  N   UNL     1       4.666   1.506   0.822  0.00  0.00    -0.279 N 
ATOM      6  C   UNL     1       4.550   1.282   2.146  0.00  0.00    +0.303 C 
ATOM      7  O   UNL     1       3.558   1.653   2.742  0.00  0.00    -0.253 OA
ATOM      8  N   UNL     1       5.536   0.645   2.810  0.00  0.00    -0.295 N 
ATOM      9  H   UNL     1       6.328   0.348   2.335  0.00  0.00    +0.151 HD
ENDROOT
BRANCH   1  12
ATOM     10  C   UNL     1      -0.017   1.377   0.010  0.00  0.00    +0.003 A 
ATOM     11  C   UNL     1       1.171   2.086   0.002  0.00  0.00    +0.005 A 
ATOM     12  C   UNL     1       2.378   1.413  -0.013  0.00  0.00    -0.024 A 
ATOM     13  C   UNL     1       2.399   0.030  -0.021  0.00  0.00    +0.043 A 
ATOM     14  C   UNL     1       1.211  -0.679  -0.013  0.00  0.00    +0.124 A 
ATOM     15  C   UNL     1       0.002  -0.004   0.002  0.00  0.00    +0.038 A 
ATOM     16  F   UNL     1       1.230  -2.030  -0.022  0.00  0.00    -0.205 F 
ENDBRANCH   1  12
BRANCH   8  17
ATOM     17  C   UNL     1       5.410   0.401   4.249  0.00  0.00    +0.141 C 
BRANCH  17  18
ATOM     18  C   UNL     1       6.637  -0.321   4.745  0.00  0.00    -0.030 A 
ATOM     19  C   UNL     1       6.673  -1.703   4.742  0.00  0.00    +0.007 A 
ATOM     20  C   UNL     1       7.798  -2.365   5.197  0.00  0.00    +0.029 A 
ATOM     21  C   UNL     1       8.887  -1.646   5.654  0.00  0.00    +0.105 A 
ATOM     22  C   UNL     1       8.851  -0.264   5.655  0.00  0.00    +0.029 A 
ATOM     23  C   UNL     1       7.727   0.398   5.196  0.00  0.00    +0.007 A 
BRANCH  21  24
ATOM     24  S   UNL     1      10.320  -2.490   6.234  0.00  0.00    +0.056 S 
ATOM     25  O   UNL     1      10.988  -1.597   7.115  0.00  0.00    -0.153 OA
ATOM     26  O   UNL     1       9.894  -3.784   6.639  0.00  0.00    -0.153 OA
BRANCH  24  27
ATOM     27  N   UNL     1      11.321  -2.708   4.933  0.00  0.00    -0.204 NA
ATOM     28  H   UNL     1      11.056  -2.385   4.057  0.00  0.00    +0.144 HD
ATOM     29  H   UNL     1      12.172  -3.159   5.046  0.00  0.00    +0.144 HD
ENDBRANCH  24  27
ENDBRANCH  21  24
ENDBRANCH  17  18
ENDBRANCH   8  17
TORSDOF 5
