REMARK  Name = ZINC05043180
REMARK  12 active torsions:
REMARK  status: ('A' for Active; 'I' for Inactive)
REMARK    1  A    between atoms: C_1  and  C_2
REMARK    2  A    between atoms: C_6  and  C_26
REMARK    3  A    between atoms: C_8  and  O_11
REMARK    4  A    between atoms: O_11  and  C_12
REMARK    5  A    between atoms: C_12  and  C_13
REMARK    6  A    between atoms: C_13  and  C_15
REMARK    7  A    between atoms: C_13  and  O_25
REMARK    8  A    between atoms: C_15  and  N_62
REMARK    9  A    between atoms: C_16  and  C_24
REMARK   10  A    between atoms: C_21  and  C_23
REMARK   11  A    between atoms: C_26  and  C_27
REMARK   12  A    between atoms: C_26  and  C_28
REMARK                            x       y       z     vdW  Elec       q    Type
REMARK                         _______ _______ _______ _____ _____    ______ ____
ROOT
ATOM      1  C   UNL     1       0.256  -0.116  -0.389  0.00  0.00    +0.124 C 
ENDROOT
BRANCH   1   2
ATOM      2  O   UNL     1       1.670   0.089  -0.414  0.00  0.00    -0.391 OA
ATOM      3  H   UNL     1       1.934   0.975  -0.698  0.00  0.00    +0.210 HD
ENDBRANCH   1   2
BRANCH   1   4
ATOM      4  C   UNL     1      -0.401   0.964   0.473  0.00  0.00    +0.189 C 
BRANCH   4   5
ATOM      5  O   UNL     1       0.026   0.816   1.829  0.00  0.00    -0.374 OA
BRANCH   5  11
ATOM      6  C   UNL     1       0.697   5.264   3.809  0.00  0.00    +0.007 C 
ATOM      7  C   UNL     1      -0.217   4.039   3.745  0.00  0.00    -0.012 C 
ATOM      8  C   UNL     1      -0.347   3.425   5.140  0.00  0.00    +0.004 C 
ATOM      9  C   UNL     1      -1.262   2.200   5.076  0.00  0.00    +0.006 C 
ATOM     10  C   UNL     1      -0.663   1.167   4.119  0.00  0.00    +0.020 C 
ATOM     11  C   UNL     1      -0.533   1.781   2.723  0.00  0.00    +0.122 C 
ATOM     12  C   UNL     1       0.381   3.006   2.788  0.00  0.00    +0.035 C 
BRANCH  10  13
ATOM     13  C   UNL     1      -1.578  -0.058   4.054  0.00  0.00    -0.012 C 
ATOM     14  C   UNL     1      -1.583  -0.762   5.412  0.00  0.00    +0.007 C 
ATOM     15  C   UNL     1      -2.999   0.385   3.703  0.00  0.00    +0.007 C 
ENDBRANCH  10  13
ENDBRANCH   5  11
ENDBRANCH   4   5
ENDBRANCH   1   4
BRANCH   1  16
ATOM     16  C   UNL     1      -0.296  -0.036  -1.814  0.00  0.00    -0.044 C 
BRANCH  16  24
ATOM     17  C   UNL     1      -0.327  -2.446  -2.037  0.00  0.00    -0.071 C 
ATOM     18  C   UNL     1       0.073  -3.606  -2.951  0.00  0.00    -0.016 C 
ATOM     19  C   UNL     1       1.599  -3.659  -3.063  0.00  0.00    -0.003 C 
ATOM     20  C   UNL     1       2.111  -2.318  -3.597  0.00  0.00    -0.016 C 
ATOM     21  C   UNL     1       1.652  -1.195  -2.664  0.00  0.00    -0.071 C 
ATOM     22  C   UNL     1       2.144   0.149  -3.203  0.00  0.00    -0.013 C 
ATOM     23  C   UNL     1      -1.852  -2.377  -1.938  0.00  0.00    -0.013 C 
ATOM     24  N   UNL     1       0.175  -1.182  -2.618  0.00  0.00    +0.385 N 
ATOM     25  H   UNL     1      -0.187  -1.089  -3.575  0.00  0.00    -0.081 HD
ENDBRANCH  16  24
ENDBRANCH   1  16
TORSDOF 7
