REMARK  Name = ZINC56237799
REMARK  5 active torsions:
REMARK  status: ('A' for Active; 'I' for Inactive)
REMARK    1  A    between atoms: C_3  and  N_24
REMARK    2  A    between atoms: C_6  and  C_7
REMARK    3  A    between atoms: C_7  and  C_8
REMARK    4  A    between atoms: C_18  and  O_20
REMARK    5  A    between atoms: O_20  and  C_21
REMARK                            x       y       z     vdW  Elec       q    Type
REMARK                         _______ _______ _______ _____ _____    ______ ____
ROOT
ATOM      1  C   UNL     1      -1.739  -1.023  -1.408  0.00  0.00    +0.224 C 
ATOM      2  O   UNL     1      -1.347  -0.881  -0.269  0.00  0.00    -0.275 OA
ATOM      3  N   UNL     1      -2.929  -1.609  -1.643  0.00  0.00    -0.271 N 
ATOM      4  C   UNL     1      -3.377  -1.865  -3.019  0.00  0.00    +0.114 C 
ATOM      5  C   UNL     1      -4.849  -1.444  -3.118  0.00  0.00    +0.024 C 
ATOM      6  C   UNL     1      -5.679  -2.325  -2.185  0.00  0.00    +0.038 C 
ATOM      7  C   UNL     1      -5.086  -2.332  -0.800  0.00  0.00    -0.022 A 
ATOM      8  C   UNL     1      -3.760  -1.991  -0.578  0.00  0.00    +0.040 A 
ATOM      9  C   UNL     1      -3.239  -2.016   0.710  0.00  0.00    +0.027 A 
ATOM     10  C   UNL     1      -4.037  -2.385   1.774  0.00  0.00    +0.048 A 
ATOM     11  C   UNL     1      -5.363  -2.730   1.555  0.00  0.00    +0.127 A 
ATOM     12  C   UNL     1      -5.887  -2.696   0.269  0.00  0.00    +0.051 A 
ENDROOT
BRANCH   1  13
ATOM     13  C   UNL     1      -0.894  -0.544  -2.560  0.00  0.00    +0.131 C 
BRANCH  13  19
ATOM     14  C   UNL     1       1.480  -0.525  -1.770  0.00  0.00    +0.006 A 
ATOM     15  C   UNL     1       2.593   0.133  -1.282  0.00  0.00    +0.028 A 
ATOM     16  C   UNL     1       2.543   1.501  -1.053  0.00  0.00    +0.069 A 
ATOM     17  C   UNL     1       1.375   2.204  -1.315  0.00  0.00    +0.028 A 
ATOM     18  C   UNL     1       0.265   1.540  -1.802  0.00  0.00    +0.006 A 
ATOM     19  C   UNL     1       0.318   0.177  -2.029  0.00  0.00    -0.038 A 
BRANCH  16  20
ATOM     20  N   UNL     1       3.671   2.172  -0.558  0.00  0.00    -0.200 N 
ATOM     21  C   UNL     1       3.784   3.489  -0.279  0.00  0.00    +0.250 A 
ATOM     22  N   UNL     1       5.000   3.689   0.159  0.00  0.00    -0.116 NA
ATOM     23  N   UNL     1       5.662   2.589   0.175  0.00  0.00    -0.023 NA
ATOM     24  N   UNL     1       4.923   1.618  -0.241  0.00  0.00    -0.039 NA
ENDBRANCH  16  20
ENDBRANCH  13  19
ENDBRANCH   1  13
BRANCH  11  25
ATOM     25  O   UNL     1      -6.153  -3.092   2.600  0.00  0.00    -0.434 OA
BRANCH  25  26
ATOM     26  C   UNL     1      -5.551  -3.096   3.897  0.00  0.00    +0.541 C 
ATOM     27  F   UNL     1      -4.476  -3.991   3.910  0.00  0.00    -0.166 F 
ATOM     28  F   UNL     1      -5.092  -1.810   4.201  0.00  0.00    -0.166 F 
ENDBRANCH  25  26
ENDBRANCH  11  25
TORSDOF 5
