REMARK  Name = ZINC23410568
REMARK  10 active torsions:
REMARK  status: ('A' for Active; 'I' for Inactive)
REMARK    1  A    between atoms: C_1  and  O_2
REMARK    2  A    between atoms: O_2  and  C_3
REMARK    3  A    between atoms: C_7  and  C_10
REMARK    4  A    between atoms: C_8  and  O_9
REMARK    5  A    between atoms: N_11  and  N_12
REMARK    6  A    between atoms: C_13  and  C_15
REMARK    7  A    between atoms: C_15  and  N_16
REMARK    8  A    between atoms: N_16  and  C_17
REMARK    9  A    between atoms: N_16  and  S_23
REMARK   10  A    between atoms: S_23  and  C_26
REMARK                            x       y       z     vdW  Elec       q    Type
REMARK                         _______ _______ _______ _____ _____    ______ ____
ROOT
ATOM      1  C   UNL     1       2.238   2.502  -1.275  0.00  0.00    +0.207 C 
ENDROOT
BRANCH   1   3
ATOM      2  N   UNL     1       2.700   4.410  -2.779  0.00  0.00    -0.206 N 
ATOM      3  C   UNL     1       2.139   3.961  -1.639  0.00  0.00    +0.248 C 
ATOM      4  O   UNL     1       1.553   4.730  -0.906  0.00  0.00    -0.273 OA
ATOM      5  H   UNL     1       3.230   3.712  -3.443  0.00  0.00    +0.177 HD
BRANCH   2   7
ATOM      6  C   UNL     1       3.148   6.200  -4.215  0.00  0.00    +0.142 C 
ATOM      7  N   UNL     1       2.607   5.767  -3.118  0.00  0.00    -0.188 NA
BRANCH   6  12
ATOM      8  C   UNL     1       2.289   9.861  -4.075  0.00  0.00    +0.162 A 
ATOM      9  C   UNL     1       2.870  10.313  -5.250  0.00  0.00    +0.049 A 
ATOM     10  C   UNL     1       3.538   9.432  -6.083  0.00  0.00    +0.004 A 
ATOM     11  C   UNL     1       3.631   8.096  -5.753  0.00  0.00    +0.013 A 
ATOM     12  C   UNL     1       3.051   7.627  -4.572  0.00  0.00    +0.040 A 
ATOM     13  C   UNL     1       2.371   8.517  -3.731  0.00  0.00    +0.167 A 
BRANCH   8  15
ATOM     14  C   UNL     1       1.584  12.097  -3.679  0.00  0.00    +0.277 C 
ATOM     15  O   UNL     1       1.634  10.732  -3.261  0.00  0.00    -0.491 OA
ENDBRANCH   8  15
BRANCH  13  16
ATOM     16  O   UNL     1       1.798   8.069  -2.583  0.00  0.00    -0.503 OA
ATOM     17  H   UNL     1       1.864   7.005  -2.314  0.00  0.00    +0.292 HD
ENDBRANCH  13  16
ENDBRANCH   6  12
ENDBRANCH   2   7
ENDBRANCH   1   3
BRANCH   1  18
ATOM     18  N   UNL     1       1.553   2.269  -0.001  0.00  0.00    -0.165 NA
BRANCH  18  19
ATOM     19  C   UNL     1       2.262   2.488   1.263  0.00  0.00    +0.080 C 
ATOM     20  C   UNL     1       2.714   3.947   1.347  0.00  0.00    +0.020 C 
ATOM     21  C   UNL     1       3.454   4.176   2.667  0.00  0.00    +0.002 C 
ATOM     22  C   UNL     1       4.677   3.259   2.731  0.00  0.00    +0.000 C 
ATOM     23  C   UNL     1       4.225   1.800   2.646  0.00  0.00    +0.002 C 
ATOM     24  C   UNL     1       3.485   1.571   1.327  0.00  0.00    +0.020 C 
ENDBRANCH  18  19
BRANCH  18  25
ATOM     25  S   UNL     1      -0.022   1.758   0.012  0.00  0.00    +0.062 S 
ATOM     26  O   UNL     1      -0.590   2.163  -1.226  0.00  0.00    -0.153 OA
ATOM     27  O   UNL     1      -0.566   2.150   1.264  0.00  0.00    -0.153 OA
BRANCH  25  28
ATOM     28  C   UNL     1       0.002  -0.004   0.002  0.00  0.00    +0.106 A 
ATOM     29  C   UNL     1      -0.006  -0.689  -1.199  0.00  0.00    +0.029 A 
ATOM     30  C   UNL     1       0.018  -2.071  -1.207  0.00  0.00    +0.017 A 
ATOM     31  C   UNL     1       0.039  -2.769  -0.013  0.00  0.00    +0.018 A 
ATOM     32  C   UNL     1       0.041  -2.083   1.188  0.00  0.00    +0.017 A 
ATOM     33  C   UNL     1       0.023  -0.701   1.196  0.00  0.00    +0.029 A 
ATOM     34 BR   UNL     1       0.064  -4.660  -0.024  0.00  0.00    -0.050 Br
ENDBRANCH  25  28
ENDBRANCH  18  25
ENDBRANCH   1  18
TORSDOF 9
