REMARK  Name = ZINC38704918
REMARK  12 active torsions:
REMARK  status: ('A' for Active; 'I' for Inactive)
REMARK    1  A    between atoms: C_1  and  C_2
REMARK    2  A    between atoms: C_2  and  C_3
REMARK    3  A    between atoms: C_3  and  N_4
REMARK    4  A    between atoms: C_5  and  C_24
REMARK    5  A    between atoms: C_8  and  C_15
REMARK    6  A    between atoms: C_16  and  C_23
REMARK    7  A    between atoms: C_18  and  C_22
REMARK    8  A    between atoms: C_20  and  O_21
REMARK    9  A    between atoms: C_27  and  C_30
REMARK   10  A    between atoms: C_30  and  C_31
REMARK   11  A    between atoms: C_30  and  C_32
REMARK   12  A    between atoms: C_30  and  C_33
REMARK                            x       y       z     vdW  Elec       q    Type
REMARK                         _______ _______ _______ _____ _____    ______ ____
ROOT
ATOM      1  N   UNL     1      -1.436  -2.066  -0.069  0.00  0.00    -0.285 N 
ATOM      2  C   UNL     1      -1.350  -2.966  -1.226  0.00  0.00    +0.141 C 
ATOM      3  C   UNL     1      -1.366  -4.364  -0.669  0.00  0.00    +0.035 A 
ATOM      4  C   UNL     1      -1.331  -5.738  -0.929  0.00  0.00    +0.102 A 
ATOM      5  N   UNL     1      -1.397  -6.361   0.231  0.00  0.00    -0.173 NA
ATOM      6  N   UNL     1      -1.470  -5.516   1.198  0.00  0.00    -0.272 N 
ATOM      7  H   UNL     1      -1.526  -5.749   2.138  0.00  0.00    +0.189 HD
ATOM      8  C   UNL     1      -1.455  -4.243   0.705  0.00  0.00    +0.126 A 
ATOM      9  C   UNL     1      -1.492  -2.816   1.046  0.00  0.00    +0.265 C 
ATOM     10  O   UNL     1      -1.564  -2.374   2.177  0.00  0.00    -0.268 OA
ENDROOT
BRANCH   4  11
ATOM     11  C   UNL     1      -1.238  -6.377  -2.265  0.00  0.00    +0.047 A 
ATOM     12  C   UNL     1      -2.117  -7.399  -2.614  0.00  0.00    -0.037 A 
ATOM     13  C   UNL     1      -2.027  -7.990  -3.858  0.00  0.00    +0.007 A 
ATOM     14  C   UNL     1      -1.066  -7.570  -4.761  0.00  0.00    -0.047 A 
ATOM     15  C   UNL     1      -0.190  -6.556  -4.425  0.00  0.00    +0.049 A 
ATOM     16  C   UNL     1      -0.273  -5.950  -3.182  0.00  0.00    +0.127 A 
ATOM     17  C   UNL     1      -0.975  -8.222  -6.117  0.00  0.00    +0.044 C 
ATOM     18  C   UNL     1      -3.164  -7.861  -1.634  0.00  0.00    +0.044 C 
BRANCH  16  19
ATOM     19  O   UNL     1       0.585  -4.949  -2.852  0.00  0.00    -0.506 OA
ATOM     20  H   UNL     1       1.433  -5.257  -2.504  0.00  0.00    +0.292 HD
ENDBRANCH  16  19
ENDBRANCH   4  11
BRANCH   2  21
ATOM     21  C   UNL     1      -2.533  -2.756  -2.136  0.00  0.00    -0.022 A 
ATOM     22  C   UNL     1      -3.803  -2.636  -1.603  0.00  0.00    +0.006 A 
ATOM     23  C   UNL     1      -4.887  -2.443  -2.438  0.00  0.00    +0.004 A 
ATOM     24  C   UNL     1      -4.702  -2.369  -3.806  0.00  0.00    -0.042 A 
ATOM     25  C   UNL     1      -3.432  -2.488  -4.339  0.00  0.00    +0.004 A 
ATOM     26  C   UNL     1      -2.347  -2.677  -3.504  0.00  0.00    +0.006 A 
BRANCH  24  27
ATOM     27  C   UNL     1      -5.885  -2.160  -4.716  0.00  0.00    -0.013 C 
ATOM     28  C   UNL     1      -6.572  -0.838  -4.364  0.00  0.00    +0.015 C 
ATOM     29  C   UNL     1      -5.409  -2.115  -6.169  0.00  0.00    +0.015 C 
ATOM     30  C   UNL     1      -6.875  -3.312  -4.539  0.00  0.00    +0.015 C 
ENDBRANCH  24  27
ENDBRANCH   2  21
BRANCH   1  31
ATOM     31  C   UNL     1      -1.452  -0.602  -0.120  0.00  0.00    +0.109 C 
BRANCH  31  33
ATOM     32  C   UNL     1      -0.035   1.456  -0.107  0.00  0.00    +0.005 C 
ATOM     33  C   UNL     1      -0.018  -0.073  -0.053  0.00  0.00    +0.016 C 
ENDBRANCH  31  33
ENDBRANCH   1  31
TORSDOF 6
