REMARK  Name = ZINC13127583
REMARK  7 active torsions:
REMARK  status: ('A' for Active; 'I' for Inactive)
REMARK    1  A    between atoms: C_1  and  C_2
REMARK    2  A    between atoms: C_2  and  N_9
REMARK    3  A    between atoms: C_10  and  C_12
REMARK    4  A    between atoms: C_12  and  S_13
REMARK    5  A    between atoms: S_13  and  C_14
REMARK    6  A    between atoms: C_22  and  N_24
REMARK    7  A    between atoms: N_24  and  C_25
REMARK                            x       y       z     vdW  Elec       q    Type
REMARK                         _______ _______ _______ _____ _____    ______ ____
ROOT
ATOM      1  C   UNL     1       3.508   1.938  -0.504  0.00  0.00    +0.191 A 
ATOM      2  N   UNL     1       2.402   1.254  -0.735  0.00  0.00    -0.222 NA
ATOM      3  C   UNL     1       1.211   1.869  -0.736  0.00  0.00    +0.077 A 
ATOM      4  C   UNL     1       0.018   1.174  -0.978  0.00  0.00    +0.028 A 
ATOM      5  C   UNL     1      -1.167   1.849  -0.973  0.00  0.00    +0.002 A 
ATOM      6  C   UNL     1      -1.212   3.217  -0.721  0.00  0.00    +0.001 A 
ATOM      7  C   UNL     1      -0.070   3.923  -0.482  0.00  0.00    +0.013 A 
ATOM      8  C   UNL     1       1.163   3.263  -0.485  0.00  0.00    +0.041 A 
ATOM      9  C   UNL     1       2.382   3.945  -0.244  0.00  0.00    +0.135 A 
ATOM     10  N   UNL     1       3.507   3.246  -0.265  0.00  0.00    -0.206 NA
ENDROOT
BRANCH   9  11
ATOM     11  N   UNL     1       2.395   5.301   0.007  0.00  0.00    -0.298 N 
ATOM     12  H   UNL     1       1.560   5.782   0.116  0.00  0.00    +0.154 HD
BRANCH  11  13
ATOM     13  C   UNL     1       3.613   5.982   0.104  0.00  0.00    +0.051 A 
ATOM     14  C   UNL     1       4.750   5.464  -0.502  0.00  0.00    +0.025 A 
ATOM     15  C   UNL     1       5.950   6.141  -0.407  0.00  0.00    +0.002 A 
ATOM     16  C   UNL     1       6.023   7.329   0.297  0.00  0.00    +0.002 A 
ATOM     17  C   UNL     1       4.894   7.846   0.905  0.00  0.00    +0.022 A 
ATOM     18  C   UNL     1       3.689   7.176   0.811  0.00  0.00    +0.062 A 
ATOM     19 CL   UNL     1       2.272   7.825   1.575  0.00  0.00    -0.082 Cl
ENDBRANCH  11  13
ENDBRANCH   9  11
BRANCH   1  20
ATOM     20  S   UNL     1       5.048   1.081  -0.514  0.00  0.00    -0.077 S 
BRANCH  20  21
ATOM     21  C   UNL     1       4.472  -0.596  -0.877  0.00  0.00    +0.173 C 
BRANCH  21  23
ATOM     22  N   UNL     1       5.464  -2.840  -1.193  0.00  0.00    -0.308 N 
ATOM     23  C   UNL     1       5.653  -1.530  -0.935  0.00  0.00    +0.224 C 
ATOM     24  O   UNL     1       6.774  -1.104  -0.750  0.00  0.00    -0.275 OA
ATOM     25  H   UNL     1       4.569  -3.180  -1.341  0.00  0.00    +0.149 HD
BRANCH  22  27
ATOM     26  C   UNL     1       7.333  -3.740   0.100  0.00  0.00    +0.033 C 
ATOM     27  C   UNL     1       6.612  -3.748  -1.250  0.00  0.00    +0.052 C 
ATOM     28  C   UNL     1       6.122  -5.172  -1.558  0.00  0.00    +0.049 C 
ATOM     29  C   UNL     1       5.682  -5.221  -3.049  0.00  0.00    +0.168 C 
ATOM     30  S   UNL     1       7.017  -4.218  -3.827  0.00  0.00    -0.029 S 
ATOM     31  O   UNL     1       8.059  -5.085  -4.253  0.00  0.00    -0.174 OA
ATOM     32  O   UNL     1       6.435  -3.315  -4.758  0.00  0.00    -0.174 OA
ATOM     33  C   UNL     1       7.588  -3.275  -2.355  0.00  0.00    +0.191 C 
ENDBRANCH  22  27
ENDBRANCH  21  23
ENDBRANCH  20  21
ENDBRANCH   1  20
TORSDOF 6
