REMARK  Name = ZINC39683804
REMARK  10 active torsions:
REMARK  status: ('A' for Active; 'I' for Inactive)
REMARK    1  A    between atoms: C_1  and  C_2
REMARK    2  A    between atoms: C_2  and  C_3
REMARK    3  A    between atoms: C_3  and  C_4
REMARK    4  A    between atoms: C_4  and  C_6
REMARK    5  A    between atoms: C_4  and  C_7
REMARK    6  A    between atoms: C_11  and  C_20
REMARK    7  A    between atoms: N_22  and  C_23
REMARK    8  A    between atoms: C_23  and  C_25
REMARK    9  A    between atoms: C_23  and  C_26
REMARK   10  A    between atoms: N_28  and  C_29
REMARK                            x       y       z     vdW  Elec       q    Type
REMARK                         _______ _______ _______ _____ _____    ______ ____
ROOT
ATOM      1  C   UNL     1       1.660  -2.557   2.536  0.00  0.00    +0.218 C 
ATOM      2  O   UNL     1       2.240  -1.789   3.273  0.00  0.00    -0.275 OA
ATOM      3  N   UNL     1       1.829  -3.887   2.679  0.00  0.00    -0.300 N 
ATOM      4  C   UNL     1       1.216  -4.972   1.878  0.00  0.00    +0.121 C 
ATOM      5  C   UNL     1       2.342  -6.016   1.709  0.00  0.00    +0.100 C 
ATOM      6  C   UNL     1       3.291  -5.764   2.892  0.00  0.00    -0.004 C 
ATOM      7  C   UNL     1       2.674  -4.594   3.671  0.00  0.00    +0.115 C 
ATOM      8  C   UNL     1       4.678  -5.380   2.385  0.00  0.00    -0.010 C 
ATOM      9  C   UNL     1       5.618  -5.190   3.578  0.00  0.00    -0.082 C 
ATOM     10  N   UNL     1       5.686  -6.436   4.353  0.00  0.00    +0.379 N 
ATOM     11  C   UNL     1       4.367  -6.749   4.915  0.00  0.00    -0.082 C 
ATOM     12  C   UNL     1       3.373  -7.004   3.778  0.00  0.00    -0.010 C 
ATOM     13  H   UNL     1       5.981  -7.189   3.750  0.00  0.00    -0.086 HD
ATOM     14  H   UNL     1       6.353  -6.328   5.102  0.00  0.00    -0.086 HD
ENDROOT
BRANCH   5  15
ATOM     15  C   UNL     1       1.777  -7.412   1.774  0.00  0.00    +0.219 C 
ATOM     16  O   UNL     1       0.796  -7.638   2.451  0.00  0.00    -0.275 OA
ATOM     17  N   UNL     1       2.362  -8.409   1.082  0.00  0.00    -0.304 N 
ATOM     18  H   UNL     1       3.147  -8.228   0.541  0.00  0.00    +0.149 HD
BRANCH  17  19
ATOM     19  C   UNL     1       1.813  -9.766   1.145  0.00  0.00    +0.156 C 
ATOM     20  C   UNL     1       0.689  -9.909   0.118  0.00  0.00    +0.038 C 
BRANCH  19  21
ATOM     21  C   UNL     1       2.901 -10.763   0.842  0.00  0.00    +0.233 C 
ATOM     22  O   UNL     1       4.025 -10.378   0.596  0.00  0.00    -0.274 OA
ATOM     23  N   UNL     1       2.626 -12.082   0.843  0.00  0.00    -0.317 N 
ATOM     24  C   UNL     1       3.684 -13.052   0.547  0.00  0.00    +0.128 C 
ATOM     25  H   UNL     1       1.727 -12.390   1.039  0.00  0.00    +0.148 HD
ENDBRANCH  19  21
ENDBRANCH  17  19
ENDBRANCH   5  15
BRANCH   1  26
ATOM     26  C   UNL     1       0.750  -2.025   1.459  0.00  0.00    +0.072 C 
ATOM     27  C   UNL     1      -0.667  -2.556   1.680  0.00  0.00    +0.017 C 
BRANCH  26  28
ATOM     28  C   UNL     1       0.737  -0.496   1.512  0.00  0.00    +0.012 C 
BRANCH  28  30
ATOM     29  C   UNL     1      -0.100   1.577   0.396  0.00  0.00    +0.004 C 
ATOM     30  C   UNL     1      -0.086   0.048   0.343  0.00  0.00    -0.003 C 
ENDBRANCH  28  30
ENDBRANCH  26  28
ENDBRANCH   1  26
TORSDOF 6
