REMARK  Name = ZINC03624937
REMARK  5 active torsions:
REMARK  status: ('A' for Active; 'I' for Inactive)
REMARK    1  A    between atoms: C_6  and  C_7
REMARK    2  A    between atoms: C_7  and  P_14
REMARK    3  A    between atoms: C_7  and  N_60
REMARK    4  A    between atoms: P_14  and  N_16
REMARK    5  A    between atoms: P_14  and  N_22
REMARK                            x       y       z     vdW  Elec       q    Type
REMARK                         _______ _______ _______ _____ _____    ______ ____
ROOT
ATOM      1  C   UNL     1      -0.993   1.356  -4.092  0.00  0.00    +0.055 C 
ENDROOT
BRANCH   1   7
ATOM      2  C   UNL     1      -0.872   0.264  -6.340  0.00  0.00    +0.006 A 
ATOM      3  C   UNL     1      -0.180  -0.413  -7.327  0.00  0.00    +0.050 A 
ATOM      4  C   UNL     1       1.149  -0.751  -7.135  0.00  0.00    +0.166 A 
ATOM      5  C   UNL     1       1.788  -0.402  -5.947  0.00  0.00    +0.166 A 
ATOM      6  C   UNL     1       1.091   0.281  -4.965  0.00  0.00    +0.052 A 
ATOM      7  C   UNL     1      -0.236   0.614  -5.163  0.00  0.00    -0.048 A 
ATOM      8  O   UNL     1       3.079  -0.843  -6.001  0.00  0.00    -0.453 OA
ATOM      9  C   UNL     1       3.340  -1.103  -7.393  0.00  0.00    +0.466 C 
ATOM     10  O   UNL     1       2.040  -1.410  -7.932  0.00  0.00    -0.453 OA
ENDBRANCH   1   7
BRANCH   1  16
ATOM     11  C   UNL     1      -3.054   1.369  -2.820  0.00  0.00    -0.049 C 
ATOM     12  C   UNL     1      -4.314   0.558  -2.503  0.00  0.00    +0.141 C 
ATOM     13  O   UNL     1      -3.935  -0.699  -1.934  0.00  0.00    -0.383 OA
ATOM     14  C   UNL     1      -3.092  -1.484  -2.782  0.00  0.00    +0.141 C 
ATOM     15  C   UNL     1      -1.821  -0.693  -3.101  0.00  0.00    -0.049 C 
ATOM     16  N   UNL     1      -2.204   0.584  -3.739  0.00  0.00    +0.393 N 
ATOM     17  H   UNL     1      -2.734   0.384  -4.595  0.00  0.00    -0.080 HD
ENDBRANCH   1  16
BRANCH   1  18
ATOM     18  P   UNL     1       0.075   1.570  -2.630  0.00  0.00    +0.210 P 
ATOM     19  O   UNL     1       0.408   0.244  -2.065  0.00  0.00    -0.288 OA
BRANCH  18  20
ATOM     20  N   UNL     1      -0.735   2.486  -1.473  0.00  0.00    -0.237 NA
ATOM     21  C   UNL     1       0.189   2.948  -0.427  0.00  0.00    +0.121 C 
ATOM     22  C   UNL     1      -0.596   3.725   0.633  0.00  0.00    +0.175 C 
ATOM     23  O   UNL     1      -1.291   4.807   0.007  0.00  0.00    -0.377 OA
ATOM     24  C   UNL     1      -2.200   4.393  -1.017  0.00  0.00    +0.175 C 
ATOM     25  C   UNL     1      -1.430   3.623  -2.094  0.00  0.00    +0.121 C 
ENDBRANCH  18  20
BRANCH  18  26
ATOM     26  N   UNL     1       1.491   2.360  -3.081  0.00  0.00    -0.237 NA
ATOM     27  C   UNL     1       2.510   2.257  -2.026  0.00  0.00    +0.121 C 
ATOM     28  C   UNL     1       3.798   2.935  -2.501  0.00  0.00    +0.175 C 
ATOM     29  O   UNL     1       3.515   4.293  -2.849  0.00  0.00    -0.377 OA
ATOM     30  C   UNL     1       2.527   4.430  -3.874  0.00  0.00    +0.175 C 
ATOM     31  C   UNL     1       1.226   3.767  -3.414  0.00  0.00    +0.121 C 
ENDBRANCH  18  26
ENDBRANCH   1  18
TORSDOF 5
