REMARK  Name = ZINC21866574
REMARK  8 active torsions:
REMARK  status: ('A' for Active; 'I' for Inactive)
REMARK    1  A    between atoms: C_1  and  C_2
REMARK    2  A    between atoms: C_2  and  C_3
REMARK    3  A    between atoms: C_2  and  C_4
REMARK    4  A    between atoms: C_4  and  C_6
REMARK    5  A    between atoms: C_4  and  N_18
REMARK    6  A    between atoms: N_8  and  C_9
REMARK    7  A    between atoms: C_12  and  N_16
REMARK    8  A    between atoms: C_19  and  C_21
REMARK                            x       y       z     vdW  Elec       q    Type
REMARK                         _______ _______ _______ _____ _____    ______ ____
ROOT
ATOM      1  C   UNL     1      -2.423  -2.675  -0.588  0.00  0.00    +0.238 C 
ATOM      2  O   UNL     1      -3.276  -1.896  -0.957  0.00  0.00    -0.273 OA
ATOM      3  N   UNL     1      -2.629  -4.003  -0.699  0.00  0.00    -0.284 N 
ATOM      4  H   UNL     1      -1.826  -4.707  -0.435  0.00  0.00    +0.155 HD
ENDROOT
BRANCH   3   5
ATOM      5  C   UNL     1      -3.865  -4.485  -1.150  0.00  0.00    +0.036 A 
ATOM      6  C   UNL     1      -4.377  -5.669  -0.637  0.00  0.00    +0.045 A 
ATOM      7  C   UNL     1      -5.598  -6.143  -1.078  0.00  0.00    +0.065 A 
ATOM      8  C   UNL     1      -6.308  -5.439  -2.044  0.00  0.00    +0.062 A 
ATOM      9  C   UNL     1      -5.792  -4.257  -2.561  0.00  0.00    +0.065 A 
ATOM     10  C   UNL     1      -4.574  -3.781  -2.115  0.00  0.00    +0.045 A 
ATOM     11 CL   UNL     1      -6.678  -3.377  -3.767  0.00  0.00    -0.082 Cl
ATOM     12 CL   UNL     1      -6.241  -7.620  -0.432  0.00  0.00    -0.082 Cl
BRANCH   8  13
ATOM     13  N   UNL     1      -7.542  -5.921  -2.495  0.00  0.00    -0.356 N 
ATOM     14  H   UNL     1      -8.104  -5.364  -3.260  0.00  0.00    +0.142 HD
ATOM     15  H   UNL     1      -7.950  -6.857  -2.086  0.00  0.00    +0.142 HD
ENDBRANCH   8  13
ENDBRANCH   3   5
BRANCH   1  16
ATOM     16  C   UNL     1      -1.133  -2.159  -0.005  0.00  0.00    +0.162 C 
BRANCH  16  17
ATOM     17  N   UNL     1      -1.154  -0.694   0.007  0.00  0.00    -0.297 N 
ATOM     18  C   UNL     1       0.003  -0.003  -0.007  0.00  0.00    +0.280 C 
ATOM     19  O   UNL     1       1.065  -0.596  -0.029  0.00  0.00    -0.267 OA
ATOM     20  H   UNL     1      -2.115  -0.158   0.027  0.00  0.00    +0.150 HD
BRANCH  18  21
ATOM     21  C   UNL     1      -0.019   1.463   0.005  0.00  0.00    +0.189 A 
ATOM     22  C   UNL     1       1.074   2.282  -0.006  0.00  0.00    +0.054 A 
ATOM     23  C   UNL     1       0.592   3.600   0.011  0.00  0.00    +0.042 A 
ATOM     24  C   UNL     1      -0.758   3.529   0.032  0.00  0.00    +0.196 A 
ATOM     25  O   UNL     1      -1.122   2.240   0.024  0.00  0.00    -0.458 OA
ENDBRANCH  18  21
ENDBRANCH  16  17
BRANCH  16  27
ATOM     26  C   UNL     1       0.334  -2.154   2.018  0.00  0.00    +0.009 C 
ATOM     27  C   UNL     1      -0.976  -2.678   1.426  0.00  0.00    +0.012 C 
ATOM     28  C   UNL     1      -2.151  -2.192   2.277  0.00  0.00    +0.009 C 
ENDBRANCH  16  27
ENDBRANCH   1  16
TORSDOF 6
