REMARK  Name = ZINC61594340
REMARK  8 active torsions:
REMARK  status: ('A' for Active; 'I' for Inactive)
REMARK    1  A    between atoms: C_1  and  C_2
REMARK    2  A    between atoms: C_2  and  N_3
REMARK    3  A    between atoms: C_9  and  S_10
REMARK    4  A    between atoms: S_10  and  C_11
REMARK    5  A    between atoms: C_11  and  C_13
REMARK    6  A    between atoms: C_11  and  C_20
REMARK    7  A    between atoms: C_20  and  C_22
REMARK    8  A    between atoms: C_20  and  N_23
REMARK                            x       y       z     vdW  Elec       q    Type
REMARK                         _______ _______ _______ _____ _____    ______ ____
ROOT
ATOM      1  C   UNL     1       4.729  -0.991  -0.955  0.00  0.00    +0.069 C 
ENDROOT
BRANCH   1   2
ATOM      2  C   UNL     1       5.922  -0.865  -0.041  0.00  0.00    -0.036 A 
ATOM      3  C   UNL     1       5.984  -1.613   1.120  0.00  0.00    +0.006 A 
ATOM      4  C   UNL     1       7.078  -1.499   1.957  0.00  0.00    +0.015 A 
ATOM      5  C   UNL     1       8.110  -0.636   1.634  0.00  0.00    +0.018 A 
ATOM      6  C   UNL     1       8.046   0.112   0.472  0.00  0.00    +0.015 A 
ATOM      7  C   UNL     1       6.955  -0.006  -0.368  0.00  0.00    +0.006 A 
ATOM      8 BR   UNL     1       9.605  -0.478   2.780  0.00  0.00    -0.050 Br
ENDBRANCH   1   2
BRANCH   1   9
ATOM      9  C   UNL     1       4.604  -2.438  -1.434  0.00  0.00    -0.060 C 
ATOM     10  C   UNL     1       3.462  -2.543  -2.446  0.00  0.00    -0.013 C 
BRANCH   9  11
ATOM     11  N   UNL     1       5.862  -2.854  -2.069  0.00  0.00    +0.381 N 
ATOM     12  H   UNL     1       6.615  -2.785  -1.401  0.00  0.00    -0.090 HD
ATOM     13  H   UNL     1       5.779  -3.809  -2.385  0.00  0.00    -0.090 HD
ATOM     14  H   UNL     1       6.055  -2.255  -2.857  0.00  0.00    -0.090 HD
ENDBRANCH   9  11
ENDBRANCH   1   9
BRANCH   1  15
ATOM     15  S   UNL     1       3.227  -0.519  -0.055  0.00  0.00    -0.080 S 
BRANCH  15  22
ATOM     16  N   UNL     1       2.486   2.041   0.797  0.00  0.00    -0.271 N 
ATOM     17  C   UNL     1       2.999   3.286   0.848  0.00  0.00    +0.345 A 
ATOM     18  O   UNL     1       2.446   4.274   1.297  0.00  0.00    -0.245 OA
ATOM     19  N   UNL     1       4.235   3.239   0.310  0.00  0.00    -0.226 N 
ATOM     20  H   UNL     1       4.847   3.986   0.211  0.00  0.00    +0.194 HD
ATOM     21  N   UNL     1       4.474   1.914  -0.078  0.00  0.00    -0.145 NA
ATOM     22  C   UNL     1       3.422   1.209   0.225  0.00  0.00    +0.193 A 
BRANCH  16  24
ATOM     23  C   UNL     1       1.253   1.226   2.746  0.00  0.00    +0.027 C 
ATOM     24  C   UNL     1       1.160   1.639   1.276  0.00  0.00    +0.125 C 
ENDBRANCH  16  24
ENDBRANCH  15  22
ENDBRANCH   1  15
TORSDOF 6
