REMARK  Name = ZINC27696705
REMARK  13 active torsions:
REMARK  status: ('A' for Active; 'I' for Inactive)
REMARK    1  A    between atoms: C_1  and  C_2
REMARK    2  A    between atoms: C_2  and  C_3
REMARK    3  A    between atoms: C_2  and  N_4
REMARK    4  A    between atoms: N_4  and  C_5
REMARK    5  A    between atoms: N_4  and  C_30
REMARK    6  A    between atoms: C_5  and  C_6
REMARK    7  A    between atoms: C_6  and  C_8
REMARK    8  A    between atoms: C_6  and  O_29
REMARK    9  A    between atoms: C_8  and  N_9
REMARK   10  A    between atoms: C_17  and  C_18
REMARK   11  A    between atoms: C_18  and  C_19
REMARK   12  A    between atoms: C_30  and  C_31
REMARK   13  A    between atoms: C_30  and  C_32
REMARK                            x       y       z     vdW  Elec       q    Type
REMARK                         _______ _______ _______ _____ _____    ______ ____
ROOT
ATOM      1  N   UNL     1       1.822   3.386  -0.108  0.00  0.00    -0.325 N 
ATOM      2  C   UNL     1       1.005   2.344  -0.501  0.00  0.00    +0.069 A 
ATOM      3  C   UNL     1       1.235   1.043  -0.927  0.00  0.00    +0.028 A 
ATOM      4  C   UNL     1       0.169   0.234  -1.256  0.00  0.00    +0.002 A 
ATOM      5  C   UNL     1      -1.131   0.712  -1.168  0.00  0.00    +0.002 A 
ATOM      6  C   UNL     1      -1.377   1.988  -0.745  0.00  0.00    +0.030 A 
ATOM      7  C   UNL     1      -0.311   2.827  -0.407  0.00  0.00    +0.089 A 
ATOM      8  N   UNL     1      -0.232   4.110   0.029  0.00  0.00    -0.232 NA
ATOM      9  C   UNL     1       1.016   4.437   0.203  0.00  0.00    +0.115 A 
ENDROOT
BRANCH   1  10
ATOM     10  C   UNL     1       3.285   3.364  -0.040  0.00  0.00    +0.153 C 
BRANCH  10  11
ATOM     11  C   UNL     1       3.865   3.724  -1.409  0.00  0.00    +0.118 C 
BRANCH  11  12
ATOM     12  O   UNL     1       3.522   5.073  -1.732  0.00  0.00    -0.392 OA
ATOM     13  H   UNL     1       2.466   5.369  -1.805  0.00  0.00    +0.210 HD
ENDBRANCH  11  12
BRANCH  11  14
ATOM     14  C   UNL     1       5.388   3.580  -1.371  0.00  0.00    -0.045 C 
BRANCH  14  15
ATOM     15  N   UNL     1       5.930   3.753  -2.725  0.00  0.00    +0.384 N 
ATOM     16  H   UNL     1       5.271   3.216  -3.424  0.00  0.00    -0.081 HD
BRANCH  15  18
ATOM     17  C   UNL     1       7.255   5.812  -2.669  0.00  0.00    -0.014 C 
ATOM     18  C   UNL     1       5.939   5.170  -3.111  0.00  0.00    -0.074 C 
ATOM     19  C   UNL     1       5.801   5.286  -4.631  0.00  0.00    -0.014 C 
ENDBRANCH  15  18
BRANCH  15  20
ATOM     20  C   UNL     1       7.274   3.170  -2.833  0.00  0.00    -0.074 C 
ATOM     21  C   UNL     1       7.218   1.686  -2.463  0.00  0.00    -0.014 C 
ATOM     22  C   UNL     1       7.780   3.318  -4.269  0.00  0.00    -0.014 C 
ENDBRANCH  15  20
ENDBRANCH  14  15
ENDBRANCH  11  14
ENDBRANCH  10  11
ENDBRANCH   1  10
BRANCH   9  23
ATOM     23  C   UNL     1       1.497   5.782   0.680  0.00  0.00    +0.110 C 
BRANCH  23  24
ATOM     24  C   UNL     1       0.899   6.080   2.031  0.00  0.00    -0.032 A 
ATOM     25  C   UNL     1      -0.264   6.782   2.124  0.00  0.00    +0.004 A 
ATOM     26  C   UNL     1      -0.836   7.061   3.364  0.00  0.00    +0.001 A 
ATOM     27  C   UNL     1      -0.242   6.651   4.518  0.00  0.00    +0.008 A 
ATOM     28  C   UNL     1       0.962   5.930   4.462  0.00  0.00    -0.018 A 
ATOM     29  C   UNL     1       1.541   5.641   3.201  0.00  0.00    -0.014 A 
ATOM     30  C   UNL     1       2.746   4.920   3.145  0.00  0.00    +0.009 A 
ATOM     31  C   UNL     1       3.340   4.511   4.299  0.00  0.00    +0.001 A 
ATOM     32  C   UNL     1       2.772   4.796   5.539  0.00  0.00    +0.001 A 
ATOM     33  C   UNL     1       1.605   5.492   5.632  0.00  0.00    +0.008 A 
ENDBRANCH  23  24
ENDBRANCH   9  23
TORSDOF 9
