REMARK  Name = ZINC38651947
REMARK  7 active torsions:
REMARK  status: ('A' for Active; 'I' for Inactive)
REMARK    1  A    between atoms: C_5  and  C_7
REMARK    2  A    between atoms: C_12  and  O_21
REMARK    3  A    between atoms: C_16  and  N_20
REMARK    4  A    between atoms: C_17  and  C_18
REMARK    5  A    between atoms: O_21  and  C_22
REMARK    6  A    between atoms: C_22  and  C_24
REMARK    7  A    between atoms: C_25  and  C_26
REMARK                            x       y       z     vdW  Elec       q    Type
REMARK                         _______ _______ _______ _____ _____    ______ ____
ROOT
ATOM      1  C   UNL     1       1.190  -2.224   0.014  0.00  0.00    +0.101 C 
ATOM      2  C   UNL     1       0.492  -2.716  -1.226  0.00  0.00    +0.008 A 
ATOM      3  C   UNL     1       1.104  -2.563  -2.458  0.00  0.00    +0.012 A 
ATOM      4  C   UNL     1       0.478  -3.008  -3.605  0.00  0.00    +0.047 A 
ATOM      5  C   UNL     1      -0.770  -3.612  -3.526  0.00  0.00    +0.135 A 
ATOM      6  C   UNL     1      -1.385  -3.766  -2.294  0.00  0.00    +0.093 A 
ATOM      7  C   UNL     1      -0.754  -3.317  -1.141  0.00  0.00    +0.138 A 
ATOM      8  O   UNL     1      -1.369  -3.476   0.057  0.00  0.00    -0.441 OA
ATOM      9  C   UNL     1      -0.652  -3.417   1.192  0.00  0.00    +0.199 C 
ATOM     10  C   UNL     1       0.567  -2.837   1.236  0.00  0.00    +0.098 C 
ENDROOT
BRANCH   1  15
ATOM     11  C   UNL     1      -0.286   1.244   0.229  0.00  0.00    +0.000 A 
ATOM     12  C   UNL     1       0.852   2.030   0.234  0.00  0.00    +0.003 A 
ATOM     13  C   UNL     1       2.100   1.441   0.168  0.00  0.00    +0.038 A 
ATOM     14  C   UNL     1       2.211   0.062   0.097  0.00  0.00    +0.127 A 
ATOM     15  C   UNL     1       1.071  -0.724   0.092  0.00  0.00    +0.000 A 
ATOM     16  C   UNL     1      -0.176  -0.132   0.158  0.00  0.00    +0.007 A 
ATOM     17  F   UNL     1       3.431  -0.515   0.032  0.00  0.00    -0.205 F 
ENDBRANCH   1  15
BRANCH   9  18
ATOM     18  N   UNL     1      -1.174  -3.962   2.338  0.00  0.00    -0.328 N 
ATOM     19  H   UNL     1      -2.049  -4.382   2.321  0.00  0.00    +0.145 HD
ATOM     20  H   UNL     1      -0.669  -3.928   3.165  0.00  0.00    +0.145 HD
ENDBRANCH   9  18
BRANCH  10  21
ATOM     21  C   UNL     1       1.280  -2.807   2.478  0.00  0.00    +0.101 C 
ATOM     22  N   UNL     1       1.845  -2.783   3.463  0.00  0.00    -0.191 NA
ENDBRANCH  10  21
BRANCH   5  23
ATOM     23  O   UNL     1      -1.387  -4.051  -4.654  0.00  0.00    -0.423 OA
BRANCH  23  24
ATOM     24  C   UNL     1      -2.489  -3.394  -5.070  0.00  0.00    +0.337 C 
ATOM     25  O   UNL     1      -2.842  -2.378  -4.501  0.00  0.00    -0.245 OA
BRANCH  24  26
ATOM     26  C   UNL     1      -3.259  -3.902  -6.203  0.00  0.00    +0.092 C 
ATOM     27  C   UNL     1      -4.362  -3.244  -6.619  0.00  0.00    +0.016 C 
BRANCH  27  28
ATOM     28  C   UNL     1      -5.137  -3.756  -7.760  0.00  0.00    -0.006 A 
ATOM     29  C   UNL     1      -4.737  -4.927  -8.413  0.00  0.00    +0.011 A 
ATOM     30  C   UNL     1      -5.467  -5.401  -9.481  0.00  0.00    +0.020 A 
ATOM     31  C   UNL     1      -6.597  -4.721  -9.909  0.00  0.00    +0.042 A 
ATOM     32  C   UNL     1      -7.000  -3.561  -9.269  0.00  0.00    +0.040 A 
ATOM     33  C   UNL     1      -6.281  -3.077  -8.194  0.00  0.00    +0.049 A 
ATOM     34 CL   UNL     1      -6.792  -1.626  -7.388  0.00  0.00    -0.083 Cl
ATOM     35 CL   UNL     1      -7.510  -5.326 -11.255  0.00  0.00    -0.083 Cl
ENDBRANCH  27  28
ENDBRANCH  24  26
ENDBRANCH  23  24
ENDBRANCH   5  23
TORSDOF 7
