REMARK  Name = ZINC32928780
REMARK  9 active torsions:
REMARK  status: ('A' for Active; 'I' for Inactive)
REMARK    1  A    between atoms: C_1  and  C_2
REMARK    2  A    between atoms: C_3  and  N_9
REMARK    3  A    between atoms: C_4  and  C_8
REMARK    4  A    between atoms: N_5  and  C_7
REMARK    5  A    between atoms: C_10  and  C_12
REMARK    6  A    between atoms: C_12  and  N_13
REMARK    7  A    between atoms: C_16  and  C_19
REMARK    8  A    between atoms: C_23  and  C_30
REMARK    9  A    between atoms: C_26  and  C_29
REMARK                            x       y       z     vdW  Elec       q    Type
REMARK                         _______ _______ _______ _____ _____    ______ ____
ROOT
ATOM      1  N   UNL     1       4.822   4.787   0.666  0.00  0.00    +0.385 N 
ATOM      2  C   UNL     1       5.180   4.214   1.970  0.00  0.00    -0.077 C 
ATOM      3  C   UNL     1       6.703   4.182   2.113  0.00  0.00    -0.006 C 
ATOM      4  C   UNL     1       7.252   5.606   1.993  0.00  0.00    +0.072 C 
ATOM      5  C   UNL     1       6.824   6.198   0.648  0.00  0.00    -0.006 C 
ATOM      6  C   UNL     1       5.297   6.171   0.547  0.00  0.00    -0.077 C 
ATOM      7  H   UNL     1       5.323   4.192  -0.111  0.00  0.00    -0.081 HD
ENDROOT
BRANCH   4   8
ATOM      8  C   UNL     1       8.757   5.576   2.074  0.00  0.00    +0.219 C 
ATOM      9  O   UNL     1       9.415   5.387   1.073  0.00  0.00    -0.275 OA
ATOM     10  N   UNL     1       9.372   5.758   3.260  0.00  0.00    -0.296 N 
ATOM     11  C   UNL     1       8.596   5.887   4.503  0.00  0.00    +0.139 C 
ATOM     12  C   UNL     1       9.180   4.909   5.536  0.00  0.00    +0.133 C 
ATOM     13  O   UNL     1      10.589   5.125   5.642  0.00  0.00    -0.371 OA
ATOM     14  C   UNL     1      11.313   4.870   4.435  0.00  0.00    +0.133 C 
ATOM     15  C   UNL     1      10.838   5.840   3.348  0.00  0.00    +0.139 C 
ATOM     16  C   UNL     1      12.809   5.073   4.684  0.00  0.00    +0.039 C 
ATOM     17  C   UNL     1       8.916   3.470   5.088  0.00  0.00    +0.039 C 
ENDBRANCH   4   8
BRANCH   1  18
ATOM     18  C   UNL     1       3.373   4.707   0.436  0.00  0.00    +0.019 C 
BRANCH  18  20
ATOM     19  N   UNL     1       1.670   2.943   0.109  0.00  0.00    -0.284 N 
ATOM     20  C   UNL     1       2.962   3.261   0.323  0.00  0.00    +0.201 C 
ATOM     21  O   UNL     1       3.794   2.385   0.424  0.00  0.00    -0.278 OA
ATOM     22  H   UNL     1       0.926   3.738  -0.047  0.00  0.00    +0.155 HD
BRANCH  19  25
ATOM     23  C   UNL     1       2.952   0.695   1.843  0.00  0.00    +0.069 C 
ATOM     24  C   UNL     1       1.826   0.556   0.851  0.00  0.00    +0.081 A 
ATOM     25  C   UNL     1       1.272   1.593   0.087  0.00  0.00    +0.077 A 
ATOM     26  C   UNL     1       0.285   1.063  -0.680  0.00  0.00    +0.057 A 
ATOM     27  N   UNL     1       0.221  -0.265  -0.405  0.00  0.00    -0.270 N 
ATOM     28  N   UNL     1       1.198  -0.553   0.557  0.00  0.00    -0.175 NA
ATOM     29  C   UNL     1      -0.705  -1.227  -1.008  0.00  0.00    +0.172 C 
ATOM     30  C   UNL     1      -0.578   1.812  -1.662  0.00  0.00    +0.067 C 
ENDBRANCH  19  25
ENDBRANCH  18  20
ENDBRANCH   1  18
TORSDOF 4
