REMARK  Name = ZINC38581269
REMARK  6 active torsions:
REMARK  status: ('A' for Active; 'I' for Inactive)
REMARK    1  A    between atoms: C_1  and  C_2
REMARK    2  A    between atoms: C_5  and  S_8
REMARK    3  A    between atoms: S_8  and  C_11
REMARK    4  A    between atoms: N_23  and  N_27
REMARK    5  A    between atoms: C_24  and  N_26
REMARK    6  A    between atoms: C_28  and  C_29
REMARK                            x       y       z     vdW  Elec       q    Type
REMARK                         _______ _______ _______ _____ _____    ______ ____
ROOT
ATOM      1  C   UNL     1       1.740  -5.038   0.198  0.00  0.00    +0.224 C 
ATOM      2  C   UNL     1       2.147  -4.238  -1.020  0.00  0.00    +0.111 A 
ATOM      3  C   UNL     1       2.774  -5.107  -1.927  0.00  0.00    +0.166 A 
ATOM      4  N   UNL     1       3.223  -4.635  -3.084  0.00  0.00    -0.227 NA
ATOM      5  C   UNL     1       3.079  -3.341  -3.382  0.00  0.00    +0.091 A 
ATOM      6  C   UNL     1       3.546  -2.821  -4.602  0.00  0.00    +0.030 A 
ATOM      7  C   UNL     1       3.384  -1.498  -4.879  0.00  0.00    +0.002 A 
ATOM      8  C   UNL     1       2.760  -0.647  -3.969  0.00  0.00    +0.002 A 
ATOM      9  C   UNL     1       2.294  -1.115  -2.779  0.00  0.00    +0.030 A 
ATOM     10  C   UNL     1       2.444  -2.474  -2.458  0.00  0.00    +0.090 A 
ATOM     11  N   UNL     1       1.997  -2.964  -1.296  0.00  0.00    -0.245 NA
ATOM     12  N   UNL     1       2.826  -6.403  -1.436  0.00  0.00    -0.186 N 
ATOM     13  C   UNL     1       2.206  -6.471  -0.107  0.00  0.00    +0.195 C 
ENDROOT
BRANCH   1  14
ATOM     14  S   UNL     1      -0.060  -4.990   0.416  0.00  0.00    +0.008 S 
ATOM     15  O   UNL     1      -0.416  -5.550   1.672  0.00  0.00    -0.169 OA
ATOM     16  O   UNL     1      -0.708  -5.413  -0.776  0.00  0.00    -0.169 OA
BRANCH  14  21
ATOM     17  C   UNL     1      -1.411   0.870   0.904  0.00  0.00    +0.044 C 
ATOM     18  C   UNL     1      -1.073  -0.594   0.782  0.00  0.00    -0.050 A 
ATOM     19  C   UNL     1      -1.059  -1.198  -0.461  0.00  0.00    +0.005 A 
ATOM     20  C   UNL     1      -0.750  -2.541  -0.573  0.00  0.00    +0.027 A 
ATOM     21  C   UNL     1      -0.453  -3.279   0.558  0.00  0.00    +0.089 A 
ATOM     22  C   UNL     1      -0.467  -2.674   1.801  0.00  0.00    +0.027 A 
ATOM     23  C   UNL     1      -0.772  -1.330   1.912  0.00  0.00    +0.005 A 
ENDBRANCH  14  21
ENDBRANCH   1  14
BRANCH  13  24
ATOM     24  N   UNL     1       3.189  -6.910   0.893  0.00  0.00    -0.309 NA
ATOM     25  H   UNL     1       3.428  -7.881   0.762  0.00  0.00    +0.120 HD
ATOM     26  H   UNL     1       4.013  -6.328   0.870  0.00  0.00    +0.120 HD
ENDBRANCH  13  24
BRANCH  12  27
ATOM     27  N   UNL     1       3.346  -7.406  -2.057  0.00  0.00    -0.185 NA
ATOM     28  C   UNL     1       3.240  -8.615  -1.558  0.00  0.00    +0.136 C 
BRANCH  28  29
ATOM     29  C   UNL     1       3.895  -9.686  -2.172  0.00  0.00    +0.000 C 
ATOM     30  C   UNL     1       3.881 -11.024  -1.776  0.00  0.00    +0.004 A 
ATOM     31  C   UNL     1       3.251 -11.694  -0.706  0.00  0.00    +0.010 A 
ATOM     32  C   UNL     1       3.416 -13.034  -0.559  0.00  0.00    +0.001 A 
ATOM     33  C   UNL     1       4.200 -13.775  -1.447  0.00  0.00    +0.002 A 
ATOM     34  C   UNL     1       4.834 -13.197  -2.496  0.00  0.00    +0.026 A 
ATOM     35  C   UNL     1       4.707 -11.800  -2.714  0.00  0.00    +0.043 A 
ATOM     36  N   UNL     1       5.213 -11.014  -3.643  0.00  0.00    -0.380 N 
ATOM     37  C   UNL     1       4.762  -9.638  -3.411  0.00  0.00    +0.150 C 
ATOM     38  H   UNL     1       5.789 -11.300  -4.369  0.00  0.00    +0.160 HD
ENDBRANCH  28  29
ENDBRANCH  12  27
TORSDOF 5
