REMARK  Name = ZINC13730754
REMARK  7 active torsions:
REMARK  status: ('A' for Active; 'I' for Inactive)
REMARK    1  A    between atoms: C_1  and  O_2
REMARK    2  A    between atoms: O_2  and  C_3
REMARK    3  A    between atoms: C_6  and  C_9
REMARK    4  A    between atoms: C_9  and  N_40
REMARK    5  A    between atoms: C_10  and  C_11
REMARK    6  A    between atoms: C_10  and  N_40
REMARK    7  A    between atoms: C_14  and  C_16
REMARK                            x       y       z     vdW  Elec       q    Type
REMARK                         _______ _______ _______ _____ _____    ______ ____
ROOT
ATOM      1  C   UNL     1      -0.013   1.086   0.008  0.00  0.00    -0.006 C 
ENDROOT
BRANCH   1   2
ATOM      2  C   UNL     1      -0.742   1.585  -1.213  0.00  0.00    +0.089 A 
ATOM      3  C   UNL     1      -0.505   2.750  -1.847  0.00  0.00    +0.043 A 
ATOM      4  C   UNL     1      -1.402   2.819  -2.932  0.00  0.00    +0.050 A 
ATOM      5  C   UNL     1      -2.151   1.684  -2.894  0.00  0.00    +0.136 A 
ATOM      6  O   UNL     1      -1.738   0.945  -1.846  0.00  0.00    -0.462 OA
BRANCH   5   7
ATOM      7  C   UNL     1      -3.228   1.324  -3.839  0.00  0.00    +0.031 A 
ATOM      8  C   UNL     1      -4.243   2.239  -4.126  0.00  0.00    +0.014 A 
ATOM      9  C   UNL     1      -5.244   1.899  -5.013  0.00  0.00    +0.016 A 
ATOM     10  C   UNL     1      -5.249   0.649  -5.609  0.00  0.00    +0.019 A 
ATOM     11  C   UNL     1      -4.249  -0.265  -5.325  0.00  0.00    +0.031 A 
ATOM     12  C   UNL     1      -3.240   0.065  -4.443  0.00  0.00    +0.030 A 
ATOM     13 BR   UNL     1      -1.875  -1.185  -4.055  0.00  0.00    -0.050 Br
ATOM     14 BR   UNL     1      -6.629   0.189  -6.818  0.00  0.00    -0.050 Br
ENDBRANCH   5   7
ENDBRANCH   1   2
BRANCH   1  15
ATOM     15  N   UNL     1      -0.709   1.566   1.217  0.00  0.00    +0.386 N 
ATOM     16  H   UNL     1      -0.723   2.592   1.214  0.00  0.00    -0.085 HD
ATOM     17  H   UNL     1      -1.672   1.210   1.216  0.00  0.00    -0.085 HD
BRANCH  15  18
ATOM     18  C   UNL     1      -0.016   1.091   2.429  0.00  0.00    -0.046 C 
BRANCH  18  22
ATOM     19  C   UNL     1      -2.093   2.522   5.879  0.00  0.00    +0.120 A 
ATOM     20  C   UNL     1      -2.435   1.299   5.319  0.00  0.00    +0.046 A 
ATOM     21  C   UNL     1      -1.762   0.839   4.204  0.00  0.00    +0.005 A 
ATOM     22  C   UNL     1      -0.749   1.596   3.646  0.00  0.00    -0.064 A 
ATOM     23  C   UNL     1      -0.402   2.812   4.205  0.00  0.00    +0.005 A 
ATOM     24  C   UNL     1      -1.075   3.279   5.317  0.00  0.00    +0.046 A 
BRANCH  19  26
ATOM     25  C   UNL     1      -2.348   4.244   7.498  0.00  0.00    +0.277 C 
ATOM     26  O   UNL     1      -2.754   2.977   6.976  0.00  0.00    -0.495 OA
ENDBRANCH  19  26
ENDBRANCH  18  22
ENDBRANCH  15  18
ENDBRANCH   1  15
TORSDOF 6
