REMARK  Name = ZINC42438930
REMARK  4 active torsions:
REMARK  status: ('A' for Active; 'I' for Inactive)
REMARK    1  A    between atoms: C_1  and  C_2
REMARK    2  A    between atoms: C_6  and  C_19
REMARK    3  A    between atoms: C_13  and  C_16
REMARK    4  A    between atoms: C_16  and  N_18
REMARK                            x       y       z     vdW  Elec       q    Type
REMARK                         _______ _______ _______ _____ _____    ______ ____
ROOT
ATOM      1  C   UNL     1      -0.253   1.523   0.224  0.00  0.00    +0.028 C 
ATOM      2  C   UNL     1      -0.124   0.003   0.107  0.00  0.00    +0.072 C 
ATOM      3  C   UNL     1      -1.493  -0.647   0.327  0.00  0.00    +0.023 C 
ATOM      4  C   UNL     1      -1.334  -2.169   0.348  0.00  0.00    +0.016 C 
ATOM      5  C   UNL     1      -0.416  -2.572   1.504  0.00  0.00    +0.092 C 
ATOM      6  C   UNL     1       0.966  -1.943   1.298  0.00  0.00    +0.119 C 
ATOM      7  N   UNL     1       0.808  -0.492   1.130  0.00  0.00    -0.312 N 
ATOM      8  C   UNL     1       1.521   0.392   1.922  0.00  0.00    +0.121 A 
ATOM      9  C   UNL     1       2.794   0.798   1.526  0.00  0.00    +0.044 A 
ATOM     10  C   UNL     1       3.496   1.672   2.311  0.00  0.00    +0.015 A 
ATOM     11  C   UNL     1       2.902   2.132   3.497  0.00  0.00    +0.021 A 
ATOM     12  C   UNL     1       1.623   1.683   3.832  0.00  0.00    +0.123 A 
ATOM     13  N   UNL     1       0.980   0.845   3.045  0.00  0.00    -0.240 NA
ENDROOT
BRANCH   5  14
ATOM     14  C   UNL     1      -0.286  -4.072   1.544  0.00  0.00    +0.215 C 
ATOM     15  O   UNL     1      -0.870  -4.753   0.728  0.00  0.00    -0.276 OA
ATOM     16  N   UNL     1       0.478  -4.658   2.487  0.00  0.00    -0.329 N 
ATOM     17  H   UNL     1       0.945  -4.113   3.140  0.00  0.00    +0.145 HD
ATOM     18  H   UNL     1       0.562  -5.624   2.513  0.00  0.00    +0.145 HD
ENDBRANCH   5  14
BRANCH  11  19
ATOM     19  C   UNL     1       3.618   3.073   4.375  0.00  0.00    +0.078 C 
ATOM     20  S   UNL     1       4.638   4.270   3.698  0.00  0.00    -0.035 S 
BRANCH  19  21
ATOM     21  N   UNL     1       3.470   2.993   5.713  0.00  0.00    -0.352 N 
ATOM     22  H   UNL     1       2.893   2.315   6.097  0.00  0.00    +0.143 HD
ATOM     23  H   UNL     1       3.942   3.612   6.291  0.00  0.00    +0.143 HD
ENDBRANCH  19  21
ENDBRANCH  11  19
TORSDOF 3
