REMARK  Name = ZINC04762545
REMARK  12 active torsions:
REMARK  status: ('A' for Active; 'I' for Inactive)
REMARK    1  A    between atoms: C_1  and  C_2
REMARK    2  A    between atoms: C_2  and  C_3
REMARK    3  A    between atoms: C_2  and  C_4
REMARK    4  A    between atoms: C_2  and  N_5
REMARK    5  A    between atoms: N_8  and  C_9
REMARK    6  A    between atoms: C_11  and  N_19
REMARK    7  A    between atoms: N_13  and  C_18
REMARK    8  A    between atoms: N_16  and  C_17
REMARK    9  A    between atoms: N_22  and  C_23
REMARK   10  A    between atoms: C_23  and  C_24
REMARK   11  A    between atoms: C_23  and  C_25
REMARK   12  A    between atoms: C_23  and  C_26
REMARK                            x       y       z     vdW  Elec       q    Type
REMARK                         _______ _______ _______ _____ _____    ______ ____
ROOT
ATOM      1  C   UNL     1      -0.054   1.844   2.504  0.00  0.00    +0.204 C 
ATOM      2  C   UNL     1      -1.217   2.301   3.405  0.00  0.00    +0.204 C 
ATOM      3  N   UNL     1      -2.394   2.224   2.526  0.00  0.00    -0.267 N 
ATOM      4  C   UNL     1      -2.011   1.804   1.313  0.00  0.00    +0.307 C 
ATOM      5  O   UNL     1      -2.786   1.655   0.388  0.00  0.00    -0.252 OA
ATOM      6  N   UNL     1      -0.698   1.558   1.213  0.00  0.00    -0.267 N 
ATOM      7  C   UNL     1      -0.013   1.086   0.008  0.00  0.00    +0.135 C 
ATOM      8  C   UNL     1      -3.766   2.560   2.914  0.00  0.00    +0.135 C 
ENDROOT
BRANCH   1  12
ATOM      9  N   UNL     1       3.161   3.610   2.254  0.00  0.00    -0.295 N 
ATOM     10  C   UNL     1       2.251   2.625   2.388  0.00  0.00    +0.301 C 
ATOM     11  O   UNL     1       2.618   1.475   2.534  0.00  0.00    -0.253 OA
ATOM     12  N   UNL     1       0.935   2.915   2.358  0.00  0.00    -0.278 N 
ATOM     13  H   UNL     1       2.869   4.528   2.137  0.00  0.00    +0.151 HD
ATOM     14  H   UNL     1       0.643   3.832   2.241  0.00  0.00    +0.152 HD
BRANCH   9  16
ATOM     15  C   UNL     1       4.926   2.327   1.149  0.00  0.00    +0.031 C 
ATOM     16  C   UNL     1       4.592   3.296   2.285  0.00  0.00    +0.028 C 
ATOM     17  C   UNL     1       5.401   4.582   2.113  0.00  0.00    +0.031 C 
ATOM     18  C   UNL     1       4.942   2.648   3.627  0.00  0.00    +0.031 C 
ENDBRANCH   9  16
ENDBRANCH   1  12
BRANCH   2  19
ATOM     19  N   UNL     1      -1.369   1.397   4.547  0.00  0.00    -0.278 N 
ATOM     20  C   UNL     1      -1.550   1.899   5.785  0.00  0.00    +0.301 C 
ATOM     21  O   UNL     1      -1.588   3.103   5.953  0.00  0.00    -0.253 OA
ATOM     22  N   UNL     1      -1.690   1.067   6.836  0.00  0.00    -0.295 N 
ATOM     23  H   UNL     1      -1.339   0.437   4.413  0.00  0.00    +0.152 HD
ATOM     24  H   UNL     1      -1.659   0.107   6.702  0.00  0.00    +0.151 HD
BRANCH  22  25
ATOM     25  C   UNL     1      -1.887   1.613   8.181  0.00  0.00    +0.028 C 
ATOM     26  C   UNL     1      -3.162   2.458   8.207  0.00  0.00    +0.031 C 
ATOM     27  C   UNL     1      -2.015   0.465   9.184  0.00  0.00    +0.031 C 
ATOM     28  C   UNL     1      -0.688   2.487   8.557  0.00  0.00    +0.031 C 
ENDBRANCH  22  25
ENDBRANCH   2  19
TORSDOF 4
