REMARK  Name = ZINC41584220
REMARK  12 active torsions:
REMARK  status: ('A' for Active; 'I' for Inactive)
REMARK    1  A    between atoms: C_1  and  C_2
REMARK    2  A    between atoms: C_2  and  C_3
REMARK    3  A    between atoms: C_3  and  C_4
REMARK    4  A    between atoms: C_4  and  N_5
REMARK    5  A    between atoms: N_5  and  C_6
REMARK    6  A    between atoms: N_5  and  C_10
REMARK    7  A    between atoms: C_6  and  C_7
REMARK    8  A    between atoms: C_7  and  C_8
REMARK    9  A    between atoms: C_8  and  C_9
REMARK   10  A    between atoms: C_10  and  C_11
REMARK   11  A    between atoms: C_12  and  O_29
REMARK   12  A    between atoms: C_19  and  C_20
REMARK                            x       y       z     vdW  Elec       q    Type
REMARK                         _______ _______ _______ _____ _____    ______ ____
ROOT
ATOM      1  C   UNL     1      -4.579  -4.470   0.628  0.00  0.00    +0.020 A 
ATOM      2  C   UNL     1      -5.409  -4.436   1.738  0.00  0.00    +0.122 A 
ATOM      3  C   UNL     1      -6.733  -4.853   1.644  0.00  0.00    +0.046 A 
ATOM      4  C   UNL     1      -7.229  -5.301   0.452  0.00  0.00    +0.019 A 
ATOM      5  C   UNL     1      -6.406  -5.340  -0.673  0.00  0.00    +0.068 A 
ATOM      6  C   UNL     1      -5.069  -4.917  -0.592  0.00  0.00    +0.144 A 
ATOM      7  O   UNL     1      -4.478  -5.040  -1.801  0.00  0.00    -0.451 OA
ATOM      8  C   UNL     1      -5.333  -5.523  -2.732  0.00  0.00    +0.176 C 
ATOM      9  C   UNL     1      -5.046  -5.761  -4.037  0.00  0.00    +0.058 C 
ATOM     10  C   UNL     1      -6.626  -5.758  -2.069  0.00  0.00    +0.231 C 
ATOM     11  O   UNL     1      -7.652  -6.189  -2.567  0.00  0.00    -0.283 OA
ENDROOT
BRANCH   9  12
ATOM     12  C   UNL     1      -6.123  -6.112  -4.973  0.00  0.00    -0.021 A 
ATOM     13  C   UNL     1      -7.367  -5.477  -4.885  0.00  0.00    +0.009 A 
ATOM     14  C   UNL     1      -8.372  -5.812  -5.767  0.00  0.00    +0.016 A 
ATOM     15  C   UNL     1      -8.153  -6.775  -6.739  0.00  0.00    +0.018 A 
ATOM     16  C   UNL     1      -6.924  -7.408  -6.833  0.00  0.00    +0.016 A 
ATOM     17  C   UNL     1      -5.907  -7.079  -5.962  0.00  0.00    +0.009 A 
ATOM     18 BR   UNL     1      -9.538  -7.227  -7.944  0.00  0.00    -0.050 Br
ENDBRANCH   9  12
BRANCH   2  19
ATOM     19  O   UNL     1      -4.925  -3.994   2.926  0.00  0.00    -0.506 OA
ATOM     20  H   UNL     1      -5.029  -3.042   3.063  0.00  0.00    +0.292 HD
ENDBRANCH   2  19
BRANCH   1  21
ATOM     21  C   UNL     1      -3.147  -4.016   0.744  0.00  0.00    -0.036 C 
BRANCH  21  22
ATOM     22  N   UNL     1      -3.038  -2.620   0.300  0.00  0.00    +0.383 N 
ATOM     23  H   UNL     1      -3.418  -2.533  -0.631  0.00  0.00    -0.081 HD
BRANCH  22  24
ATOM     24  C   UNL     1      -3.789  -1.754   1.218  0.00  0.00    -0.078 C 
BRANCH  24  25
ATOM     25  C   UNL     1      -3.781  -0.319   0.688  0.00  0.00    -0.019 C 
BRANCH  25  27
ATOM     26  C   UNL     1      -4.555   2.018   1.114  0.00  0.00    +0.004 C 
ATOM     27  C   UNL     1      -4.563   0.583   1.644  0.00  0.00    -0.005 C 
ENDBRANCH  25  27
ENDBRANCH  24  25
ENDBRANCH  22  24
BRANCH  22  28
ATOM     28  C   UNL     1      -1.625  -2.217   0.292  0.00  0.00    -0.078 C 
BRANCH  28  29
ATOM     29  C   UNL     1      -0.873  -3.017  -0.773  0.00  0.00    -0.019 C 
BRANCH  29  30
ATOM     30  C   UNL     1       0.615  -2.662  -0.721  0.00  0.00    -0.005 C 
ATOM     31  C   UNL     1       1.385  -3.550  -1.700  0.00  0.00    +0.004 C 
ENDBRANCH  29  30
ENDBRANCH  28  29
ENDBRANCH  22  28
ENDBRANCH  21  22
ENDBRANCH   1  21
TORSDOF 10
