REMARK  Name = ZINC14740428
REMARK  8 active torsions:
REMARK  status: ('A' for Active; 'I' for Inactive)
REMARK    1  A    between atoms: C_1  and  C_2
REMARK    2  A    between atoms: C_2  and  C_3
REMARK    3  A    between atoms: C_3  and  N_4
REMARK    4  A    between atoms: C_7  and  C_9
REMARK    5  A    between atoms: C_17  and  N_63
REMARK    6  A    between atoms: C_21  and  C_22
REMARK    7  A    between atoms: C_21  and  N_63
REMARK    8  A    between atoms: C_22  and  O_28
REMARK                            x       y       z     vdW  Elec       q    Type
REMARK                         _______ _______ _______ _____ _____    ______ ____
ROOT
ATOM      1  N   UNL     1       2.639   3.600  -0.002  0.00  0.00    -0.267 N 
ATOM      2  C   UNL     1       3.396   2.490  -0.014  0.00  0.00    +0.043 A 
ATOM      3  C   UNL     1       2.552   1.429  -0.009  0.00  0.00    +0.004 A 
ATOM      4  C   UNL     1       1.255   1.967   0.001  0.00  0.00    +0.151 A 
ATOM      5  N   UNL     1       1.391   3.282   0.007  0.00  0.00    -0.166 NA
ATOM      6  C   UNL     1       2.989  -0.010  -0.031  0.00  0.00    +0.023 C 
ATOM      7  C   UNL     1       4.464  -0.061  -0.453  0.00  0.00    -0.067 C 
ATOM      8  C   UNL     1       5.269   0.937   0.384  0.00  0.00    -0.009 C 
ATOM      9  C   UNL     1       4.898   2.369  -0.023  0.00  0.00    +0.054 C 
ENDROOT
BRANCH   4  10
ATOM     10  C   UNL     1      -0.014   1.212   0.009  0.00  0.00    +0.267 C 
ATOM     11  O   UNL     1       0.002  -0.004   0.002  0.00  0.00    -0.268 OA
ATOM     12  N   UNL     1      -1.191   1.869   0.018  0.00  0.00    -0.296 N 
ATOM     13  C   UNL     1      -1.355   3.330   0.033  0.00  0.00    +0.108 C 
ATOM     14  C   UNL     1      -2.870   3.621   0.064  0.00  0.00    +0.020 C 
ATOM     15  C   UNL     1      -3.462   2.309   0.644  0.00  0.00    +0.020 C 
ATOM     16  C   UNL     1      -2.525   1.243   0.021  0.00  0.00    +0.108 C 
ENDBRANCH   4  10
BRANCH   7  17
ATOM     17  N   UNL     1       4.984  -1.423  -0.230  0.00  0.00    +0.383 N 
ATOM     18  H   UNL     1       4.240  -2.105  -0.420  0.00  0.00    -0.085 HD
ATOM     19  H   UNL     1       5.290  -1.513   0.746  0.00  0.00    -0.085 HD
BRANCH  17  20
ATOM     20  C   UNL     1       6.127  -1.687  -1.125  0.00  0.00    -0.047 C 
BRANCH  20  21
ATOM     21  C   UNL     1       6.644  -3.104  -0.872  0.00  0.00    +0.051 C 
ATOM     22  C   UNL     1       6.976  -3.269   0.613  0.00  0.00    +0.033 C 
ATOM     23  C   UNL     1       7.494  -4.686   0.866  0.00  0.00    +0.003 C 
ATOM     24  C   UNL     1       8.754  -4.925   0.032  0.00  0.00    +0.000 C 
ATOM     25  C   UNL     1       8.423  -4.761  -1.452  0.00  0.00    +0.003 C 
ATOM     26  C   UNL     1       7.905  -3.344  -1.706  0.00  0.00    +0.033 C 
BRANCH  21  27
ATOM     27  O   UNL     1       5.641  -4.052  -1.244  0.00  0.00    -0.390 OA
ATOM     28  H   UNL     1       4.812  -3.959  -0.754  0.00  0.00    +0.210 HD
ENDBRANCH  21  27
ENDBRANCH  20  21
ENDBRANCH  17  20
ENDBRANCH   7  17
BRANCH   1  29
ATOM     29  C   UNL     1       3.158   4.970  -0.000  0.00  0.00    +0.143 C 
BRANCH  29  31
ATOM     30  C   UNL     1       3.893   6.871   1.445  0.00  0.00    +0.005 C 
ATOM     31  C   UNL     1       3.351   5.440   1.443  0.00  0.00    +0.020 C 
ENDBRANCH  29  31
ENDBRANCH   1  29
TORSDOF 7
