REMARK  Name = ZINC04755409
REMARK  7 active torsions:
REMARK  status: ('A' for Active; 'I' for Inactive)
REMARK    1  A    between atoms: C_1  and  C_2
REMARK    2  A    between atoms: C_8  and  C_13
REMARK    3  A    between atoms: C_9  and  O_12
REMARK    4  A    between atoms: C_13  and  C_15
REMARK    5  A    between atoms: C_13  and  N_24
REMARK    6  A    between atoms: C_18  and  N_21
REMARK    7  A    between atoms: N_24  and  C_25
REMARK                            x       y       z     vdW  Elec       q    Type
REMARK                         _______ _______ _______ _____ _____    ______ ____
ROOT
ATOM      1  C   UNL     1       4.797   4.114  -0.022  0.00  0.00    +0.136 C 
ENDROOT
BRANCH   1   9
ATOM      2  C   UNL     1      -2.445   3.427   0.599  0.00  0.00    +0.065 C 
ATOM      3  C   UNL     1      -1.098   2.777   0.415  0.00  0.00    +0.039 A 
ATOM      4  C   UNL     1      -1.026   1.392   0.280  0.00  0.00    +0.023 A 
ATOM      5  C   UNL     1       0.186   0.785   0.116  0.00  0.00    +0.012 A 
ATOM      6  C   UNL     1       1.336   1.597   0.080  0.00  0.00    +0.004 A 
ATOM      7  C   UNL     1       2.616   1.045  -0.091  0.00  0.00    +0.010 A 
ATOM      8  C   UNL     1       3.705   1.861  -0.121  0.00  0.00    +0.010 A 
ATOM      9  C   UNL     1       3.570   3.240   0.016  0.00  0.00    +0.021 A 
ATOM     10  C   UNL     1       2.341   3.814   0.183  0.00  0.00    +0.148 A 
ATOM     11  C   UNL     1       1.190   2.999   0.220  0.00  0.00    +0.113 A 
ATOM     12  N   UNL     1      -0.025   3.529   0.381  0.00  0.00    -0.248 NA
BRANCH  10  13
ATOM     13  O   UNL     1       2.229   5.161   0.315  0.00  0.00    -0.504 OA
ATOM     14  H   UNL     1       2.114   5.630  -0.523  0.00  0.00    +0.292 HD
ENDBRANCH  10  13
ENDBRANCH   1   9
BRANCH   1  15
ATOM     15  C   UNL     1       5.023   4.602  -1.430  0.00  0.00    -0.023 A 
ATOM     16  C   UNL     1       5.512   3.737  -2.391  0.00  0.00    +0.008 A 
ATOM     17  C   UNL     1       5.715   4.183  -3.683  0.00  0.00    +0.033 A 
ATOM     18  C   UNL     1       5.439   5.497  -4.012  0.00  0.00    +0.126 A 
ATOM     19  C   UNL     1       4.956   6.364  -3.050  0.00  0.00    +0.033 A 
ATOM     20  C   UNL     1       4.748   5.916  -1.758  0.00  0.00    +0.008 A 
BRANCH  18  21
ATOM     21  N   UNL     1       5.662   5.977  -5.395  0.00  0.00    +0.056 N 
ATOM     22  O   UNL     1       5.420   7.135  -5.684  0.00  0.00    -0.126 OA
ATOM     23  O   UNL     1       6.088   5.213  -6.243  0.00  0.00    -0.126 OA
ENDBRANCH  18  21
ENDBRANCH   1  15
BRANCH   1  24
ATOM     24  N   UNL     1       5.960   3.341   0.420  0.00  0.00    -0.320 N 
ATOM     25  H   UNL     1       6.563   2.954  -0.235  0.00  0.00    +0.148 HD
BRANCH  24  26
ATOM     26  C   UNL     1       6.200   3.160   1.777  0.00  0.00    +0.097 A 
ATOM     27  C   UNL     1       5.394   3.802   2.711  0.00  0.00    +0.041 A 
ATOM     28  C   UNL     1       5.644   3.613   4.058  0.00  0.00    +0.005 A 
ATOM     29  C   UNL     1       6.696   2.786   4.428  0.00  0.00    +0.018 A 
ATOM     30  C   UNL     1       7.456   2.180   3.447  0.00  0.00    +0.084 A 
ATOM     31  N   UNL     1       7.236   2.338   2.115  0.00  0.00    -0.350 N 
ATOM     32  H   UNL     1       7.812   1.868   1.407  0.00  0.00    +0.166 HD
ENDBRANCH  24  26
ENDBRANCH   1  24
TORSDOF 6
