REMARK  Name = ZINC13458614
REMARK  7 active torsions:
REMARK  status: ('A' for Active; 'I' for Inactive)
REMARK    1  A    between atoms: C_1  and  S_2
REMARK    2  A    between atoms: S_2  and  C_5
REMARK    3  A    between atoms: C_5  and  C_7
REMARK    4  A    between atoms: C_5  and  C_21
REMARK    5  A    between atoms: N_8  and  N_9
REMARK    6  A    between atoms: N_9  and  C_10
REMARK    7  A    between atoms: CA_12  and  C_18
REMARK                            x       y       z     vdW  Elec       q    Type
REMARK                         _______ _______ _______ _____ _____    ______ ____
ROOT
ATOM      1  C   UNL     1      -1.790   2.264   1.501  0.00  0.00    +0.137 C 
ATOM      2  N   UNL     1      -1.990   3.381   2.095  0.00  0.00    -0.192 NA
ENDROOT
BRANCH   2   3
ATOM      3  N   UNL     1      -2.243   3.406   3.473  0.00  0.00    -0.235 N 
ATOM      4  H   UNL     1      -2.343   2.575   3.963  0.00  0.00    +0.174 HD
BRANCH   3   5
ATOM      5  C   UNL     1      -2.348   4.624   4.139  0.00  0.00    +0.090 A 
ATOM      6  C   UNL     1      -2.246   4.690   5.530  0.00  0.00    +0.097 A 
ATOM      7  CA  UNL     1      -2.352   5.929   6.156  0.00  0.00    +0.173 A 
ATOM      8  N   UNL     1      -2.558   7.033   5.443  0.00  0.00    -0.225 NA
ATOM      9  C   UNL     1      -2.664   7.002   4.132  0.00  0.00    +0.150 A 
ATOM     10  C   UNL     1      -2.564   5.808   3.435  0.00  0.00    +0.102 A 
ATOM     11 CL   UNL     1      -2.707   5.786   1.705  0.00  0.00    -0.078 Cl
ATOM     12 CL   UNL     1      -2.933   8.480   3.261  0.00  0.00    -0.060 Cl
ATOM     13 CL   UNL     1      -1.985   3.250   6.464  0.00  0.00    -0.079 Cl
BRANCH   7  14
ATOM     14  C   UNL     1      -2.241   6.018   7.628  0.00  0.00    +0.406 C 
ATOM     15  O   UNL     1      -2.053   5.014   8.285  0.00  0.00    -0.239 OA
ATOM     16  OXT UNL     1      -2.348   7.213   8.241  0.00  0.00    -0.239 OA
ENDBRANCH   7  14
ENDBRANCH   3   5
ENDBRANCH   2   3
BRANCH   1  17
ATOM     17  C   UNL     1      -1.371   2.246   0.054  0.00  0.00    +0.238 C 
BRANCH  17  18
ATOM     18  C   UNL     1      -0.089   1.466  -0.088  0.00  0.00    +0.138 A 
ATOM     19  N   UNL     1      -0.009   0.115  -0.223  0.00  0.00    -0.340 N 
ATOM     20  H   UNL     1      -0.777  -0.525  -0.241  0.00  0.00    +0.167 HD
ATOM     21  C   UNL     1       1.329  -0.209  -0.330  0.00  0.00    +0.066 A 
ATOM     22  C   UNL     1       2.026  -1.399  -0.484  0.00  0.00    +0.028 A 
ATOM     23  C   UNL     1       3.402  -1.380  -0.560  0.00  0.00    +0.002 A 
ATOM     24  C   UNL     1       4.094  -0.179  -0.483  0.00  0.00    +0.002 A 
ATOM     25  C   UNL     1       3.425   1.002  -0.332  0.00  0.00    +0.030 A 
ATOM     26  C   UNL     1       2.029   1.007  -0.253  0.00  0.00    +0.089 A 
ATOM     27  N   UNL     1       1.103   1.988  -0.106  0.00  0.00    -0.230 NA
ENDBRANCH  17  18
BRANCH  17  29
ATOM     28  C   UNL     1       0.037   4.617   0.710  0.00  0.00    +0.195 C 
ATOM     29  S   UNL     1      -1.111   3.946  -0.523  0.00  0.00    -0.019 S 
ATOM     30  O   UNL     1      -0.447   3.899  -1.778  0.00  0.00    -0.174 OA
ATOM     31  O   UNL     1      -2.342   4.648  -0.419  0.00  0.00    -0.174 OA
ENDBRANCH  17  29
ENDBRANCH   1  17
TORSDOF 6
