REMARK  Name = ZINC39353303
REMARK  7 active torsions:
REMARK  status: ('A' for Active; 'I' for Inactive)
REMARK    1  A    between atoms: C_1  and  C_2
REMARK    2  A    between atoms: C_5  and  C_8
REMARK    3  A    between atoms: C_12  and  S_18
REMARK    4  A    between atoms: N_14  and  C_15
REMARK    5  A    between atoms: C_15  and  C_16
REMARK    6  A    between atoms: S_18  and  C_19
REMARK    7  A    between atoms: C_19  and  C_20
REMARK                            x       y       z     vdW  Elec       q    Type
REMARK                         _______ _______ _______ _____ _____    ______ ____
ROOT
ATOM      1  C   UNL     1       0.059  -4.275  -0.021  0.00  0.00    +0.050 C 
ATOM      2  N   UNL     1       0.693  -4.768  -1.266  0.00  0.00    -0.267 NA
ATOM      3  N   UNL     1       2.096  -5.010  -0.893  0.00  0.00    -0.262 NA
ATOM      4  C   UNL     1       1.987  -5.554   0.486  0.00  0.00    +0.078 C 
ATOM      5  N   UNL     1       0.883  -4.777   1.098  0.00  0.00    +0.413 N 
ATOM      6  H   UNL     1       0.628  -4.080  -2.001  0.00  0.00    +0.139 HD
ATOM      7  H   UNL     1       2.626  -4.152  -0.903  0.00  0.00    +0.140 HD
ATOM      8  H   UNL     1       1.255  -4.004   1.628  0.00  0.00    -0.075 HD
ENDROOT
BRANCH   1  13
ATOM      9  C   UNL     1      -0.016   1.503   0.007  0.00  0.00    +0.044 C 
ATOM     10  C   UNL     1       0.004  -0.004  -0.000  0.00  0.00    -0.050 A 
ATOM     11  C   UNL     1       1.186  -0.679  -0.241  0.00  0.00    +0.003 A 
ATOM     12  C   UNL     1       1.204  -2.061  -0.248  0.00  0.00    +0.003 A 
ATOM     13  C   UNL     1       0.040  -2.768  -0.013  0.00  0.00    -0.046 A 
ATOM     14  C   UNL     1      -1.142  -2.094   0.229  0.00  0.00    +0.003 A 
ATOM     15  C   UNL     1      -1.159  -0.712   0.240  0.00  0.00    +0.003 A 
ENDBRANCH   1  13
BRANCH   5  16
ATOM     16  C   UNL     1       0.076  -5.645   1.967  0.00  0.00    -0.045 C 
BRANCH  16  17
ATOM     17  C   UNL     1       0.892  -6.050   3.168  0.00  0.00    -0.053 C 
ATOM     18  C   UNL     1       0.435  -5.825   4.376  0.00  0.00    +0.002 C 
ENDBRANCH  16  17
ENDBRANCH   5  16
BRANCH   4  19
ATOM     19  S   UNL     1       3.534  -5.289   1.396  0.00  0.00    -0.152 S 
BRANCH  19  20
ATOM     20  C   UNL     1       3.761  -3.490   1.362  0.00  0.00    +0.143 C 
BRANCH  20  21
ATOM     21  C   UNL     1       5.028  -3.129   2.094  0.00  0.00    +0.120 A 
ATOM     22  N   UNL     1       5.371  -1.818   2.182  0.00  0.00    -0.310 N 
ATOM     23  H   UNL     1       4.802  -1.144   1.777  0.00  0.00    +0.170 HD
ATOM     24  C   UNL     1       6.499  -1.442   2.828  0.00  0.00    +0.259 A 
ATOM     25  O   UNL     1       6.817  -0.270   2.916  0.00  0.00    -0.267 OA
ATOM     26  C   UNL     1       7.324  -2.504   3.422  0.00  0.00    +0.065 A 
ATOM     27  C   UNL     1       8.504  -2.224   4.109  0.00  0.00    +0.015 A 
ATOM     28  C   UNL     1       9.239  -3.258   4.645  0.00  0.00    +0.001 A 
ATOM     29  C   UNL     1       8.814  -4.573   4.507  0.00  0.00    +0.002 A 
ATOM     30  C   UNL     1       7.651  -4.871   3.832  0.00  0.00    +0.028 A 
ATOM     31  C   UNL     1       6.888  -3.840   3.280  0.00  0.00    +0.078 A 
ATOM     32  N   UNL     1       5.734  -4.088   2.612  0.00  0.00    -0.233 NA
ENDBRANCH  20  21
ENDBRANCH  19  20
ENDBRANCH   4  19
TORSDOF 6
