REMARK  Name = ZINC01679432
REMARK  8 active torsions:
REMARK  status: ('A' for Active; 'I' for Inactive)
REMARK    1  A    between atoms: C_1  and  C_2
REMARK    2  A    between atoms: C_2  and  C_3
REMARK    3  A    between atoms: C_2  and  C_4
REMARK    4  A    between atoms: C_4  and  N_5
REMARK    5  A    between atoms: C_13  and  S_14
REMARK    6  A    between atoms: S_14  and  C_15
REMARK    7  A    between atoms: C_15  and  C_16
REMARK    8  A    between atoms: C_21  and  N_22
REMARK                            x       y       z     vdW  Elec       q    Type
REMARK                         _______ _______ _______ _____ _____    ______ ____
ROOT
ATOM      1  N   UNL     1      -0.191   1.195  -0.630  0.00  0.00    -0.315 N 
ATOM      2  C   UNL     1       1.086   1.633  -0.828  0.00  0.00    +0.201 A 
ATOM      3  N   UNL     1       1.916   0.636  -0.739  0.00  0.00    -0.231 NA
ATOM      4  C   UNL     1       1.228  -0.503  -0.479  0.00  0.00    +0.140 A 
ATOM      5  C   UNL     1      -0.131  -0.158  -0.407  0.00  0.00    +0.166 A 
ATOM      6  N   UNL     1      -1.029  -1.107  -0.159  0.00  0.00    -0.195 NA
ATOM      7  C   UNL     1      -0.650  -2.362   0.018  0.00  0.00    +0.216 A 
ATOM      8  N   UNL     1       0.623  -2.733  -0.043  0.00  0.00    -0.206 NA
ATOM      9  C   UNL     1       1.585  -1.849  -0.286  0.00  0.00    +0.130 A 
ATOM     10  N   UNL     1      -1.615  -3.322   0.274  0.00  0.00    -0.327 N 
ATOM     11  H   UNL     1      -2.550  -3.069   0.322  0.00  0.00    +0.145 HD
ATOM     12  H   UNL     1      -1.355  -4.248   0.406  0.00  0.00    +0.145 HD
ENDROOT
BRANCH   1  13
ATOM     13  C   UNL     1      -1.404   2.016  -0.658  0.00  0.00    +0.127 C 
BRANCH  13  15
ATOM     14  C   UNL     1      -0.671   3.352   1.322  0.00  0.00    +0.009 C 
ATOM     15  C   UNL     1      -1.766   2.439   0.767  0.00  0.00    +0.003 C 
ATOM     16  C   UNL     1      -3.099   3.191   0.753  0.00  0.00    +0.009 C 
ENDBRANCH  13  15
ENDBRANCH   1  13
BRANCH   9  17
ATOM     17  S   UNL     1       3.271  -2.353  -0.364  0.00  0.00    -0.099 S 
BRANCH  17  18
ATOM     18  C   UNL     1       3.085  -4.125  -0.046  0.00  0.00    +0.113 C 
BRANCH  18  19
ATOM     19  C   UNL     1       4.440  -4.785  -0.066  0.00  0.00    -0.007 A 
ATOM     20  C   UNL     1       5.117  -5.009   1.118  0.00  0.00    +0.007 A 
ATOM     21  C   UNL     1       6.357  -5.618   1.100  0.00  0.00    +0.000 A 
ATOM     22  C   UNL     1       6.926  -5.994  -0.103  0.00  0.00    +0.002 A 
ATOM     23  C   UNL     1       6.251  -5.765  -1.287  0.00  0.00    +0.033 A 
ATOM     24  C   UNL     1       5.008  -5.161  -1.269  0.00  0.00    +0.130 A 
BRANCH  24  25
ATOM     25  N   UNL     1       4.285  -4.915  -2.537  0.00  0.00    +0.057 N 
ATOM     26  O   UNL     1       4.730  -5.349  -3.585  0.00  0.00    -0.126 OA
ATOM     27  O   UNL     1       3.246  -4.280  -2.533  0.00  0.00    -0.126 OA
ENDBRANCH  24  25
ENDBRANCH  18  19
ENDBRANCH  17  18
ENDBRANCH   9  17
TORSDOF 6
