REMARK  Name = ZINC53105834
REMARK  5 active torsions:
REMARK  status: ('A' for Active; 'I' for Inactive)
REMARK    1  A    between atoms: C_1  and  C_2
REMARK    2  A    between atoms: C_7  and  C_9
REMARK    3  A    between atoms: C_7  and  N_11
REMARK    4  A    between atoms: C_9  and  O_10
REMARK    5  A    between atoms: C_12  and  C_14
REMARK                            x       y       z     vdW  Elec       q    Type
REMARK                         _______ _______ _______ _____ _____    ______ ____
ROOT
ATOM      1  N   UNL     1      -0.027   1.382   2.574  0.00  0.00    -0.302 N 
ATOM      2  C   UNL     1       1.009   2.243   2.545  0.00  0.00    +0.261 C 
ATOM      3  O   UNL     1       2.149   1.822   2.542  0.00  0.00    -0.269 OA
ATOM      4  H   UNL     1      -0.934   1.717   2.646  0.00  0.00    +0.150 HD
ENDROOT
BRANCH   2   5
ATOM      5  C   UNL     1       0.758   3.705   2.517  0.00  0.00    +0.111 A 
ATOM      6  C   UNL     1      -0.513   4.182   2.526  0.00  0.00    +0.101 A 
ATOM      7  C   UNL     1      -0.714   5.636   2.498  0.00  0.00    +0.255 A 
ATOM      8  O   UNL     1      -1.836   6.106   2.505  0.00  0.00    -0.268 OA
ATOM      9  N   UNL     1       0.368   6.441   2.464  0.00  0.00    -0.275 N 
ATOM     10  H   UNL     1       0.252   7.404   2.445  0.00  0.00    +0.173 HD
ATOM     11  C   UNL     1       1.607   5.918   2.456  0.00  0.00    +0.327 A 
ATOM     12  O   UNL     1       2.565   6.665   2.425  0.00  0.00    -0.247 OA
ATOM     13  N   UNL     1       1.813   4.591   2.487  0.00  0.00    -0.303 N 
ATOM     14  H   UNL     1       2.722   4.250   2.485  0.00  0.00    +0.171 HD
ENDBRANCH   2   5
BRANCH   1  20
ATOM     15  C   UNL     1      -0.242   1.545   0.089  0.00  0.00    +0.007 C 
ATOM     16  C   UNL     1       0.012   0.039   0.008  0.00  0.00    -0.012 C 
ATOM     17  C   UNL     1      -1.320  -0.709   0.088  0.00  0.00    +0.003 C 
ATOM     18  C   UNL     1      -2.011  -0.379   1.413  0.00  0.00    +0.002 C 
ATOM     19  C   UNL     1      -1.115  -0.808   2.576  0.00  0.00    +0.028 C 
ATOM     20  C   UNL     1       0.217  -0.061   2.496  0.00  0.00    +0.058 C 
ATOM     21  C   UNL     1       0.908  -0.391   1.172  0.00  0.00    +0.031 C 
BRANCH  20  22
ATOM     22  C   UNL     1       1.113  -0.490   3.660  0.00  0.00    +0.181 C 
BRANCH  22  23
ATOM     23  O   UNL     1       0.526  -0.070   4.893  0.00  0.00    -0.393 OA
ATOM     24  H   UNL     1       1.042  -0.309   5.676  0.00  0.00    +0.209 HD
ENDBRANCH  22  23
ENDBRANCH  20  22
ENDBRANCH   1  20
TORSDOF 4
