REMARK  Name = ZINC39710238
REMARK  9 active torsions:
REMARK  status: ('A' for Active; 'I' for Inactive)
REMARK    1  A    between atoms: C_1  and  C_2
REMARK    2  A    between atoms: C_9  and  C_14
REMARK    3  A    between atoms: C_14  and  C_16
REMARK    4  A    between atoms: C_14  and  N_27
REMARK    5  A    between atoms: N_21  and  C_22
REMARK    6  A    between atoms: N_27  and  C_28
REMARK    7  A    between atoms: N_27  and  C_35
REMARK    8  A    between atoms: C_28  and  C_29
REMARK    9  A    between atoms: C_35  and  C_36
REMARK                            x       y       z     vdW  Elec       q    Type
REMARK                         _______ _______ _______ _____ _____    ______ ____
ROOT
ATOM      1  C   UNL     1      -1.097  -4.875   2.792  0.00  0.00    -0.008 C 
ENDROOT
BRANCH   1  10
ATOM      2  C   UNL     1       0.483   1.312  -0.406  0.00  0.00    +0.044 C 
ATOM      3  C   UNL     1       0.447  -0.192  -0.329  0.00  0.00    -0.050 A 
ATOM      4  C   UNL     1       0.512  -0.938  -1.506  0.00  0.00    +0.005 A 
ATOM      5  C   UNL     1       0.485  -2.296  -1.515  0.00  0.00    +0.024 A 
ATOM      6  C   UNL     1       0.389  -3.017  -0.310  0.00  0.00    +0.040 A 
ATOM      7  N   UNL     1       0.364  -4.350  -0.331  0.00  0.00    -0.285 N 
ATOM      8  C   UNL     1       0.275  -5.088   0.762  0.00  0.00    +0.223 C 
ATOM      9  O   UNL     1       0.257  -6.301   0.680  0.00  0.00    -0.275 OA
ATOM     10  C   UNL     1       0.197  -4.417   2.115  0.00  0.00    +0.088 C 
ATOM     11  C   UNL     1       0.225  -2.901   2.145  0.00  0.00    -0.006 C 
ATOM     12  C   UNL     1       0.319  -2.255   0.948  0.00  0.00    -0.007 A 
ATOM     13  C   UNL     1       0.358  -0.793   0.886  0.00  0.00    +0.012 A 
ATOM     14  H   UNL     1       0.414  -4.799  -1.189  0.00  0.00    +0.155 HD
ENDBRANCH   1  10
BRANCH   1  15
ATOM     15  C   UNL     1      -2.293  -4.482   1.922  0.00  0.00    +0.205 C 
ATOM     16  N   UNL     1      -2.159  -5.055   0.576  0.00  0.00    -0.152 NA
ATOM     17  N   UNL     1      -2.111  -4.137  -0.245  0.00  0.00    -0.070 NA
ATOM     18  N   UNL     1      -2.198  -2.877   0.345  0.00  0.00    -0.179 N 
ATOM     19  N   UNL     1      -2.316  -3.021   1.705  0.00  0.00    -0.185 NA
ATOM     20  H   UNL     1      -2.179  -2.031  -0.131  0.00  0.00    +0.191 HD
BRANCH  19  21
ATOM     21  C   UNL     1      -3.573  -2.436   2.192  0.00  0.00    +0.080 C 
ATOM     22  C   UNL     1      -4.764  -3.006   1.395  0.00  0.00    +0.021 C 
ATOM     23  C   UNL     1      -5.731  -1.804   1.246  0.00  0.00    +0.002 C 
ATOM     24  C   UNL     1      -4.765  -0.614   1.023  0.00  0.00    +0.002 C 
ATOM     25  C   UNL     1      -3.573  -0.915   1.955  0.00  0.00    +0.021 C 
ENDBRANCH  19  21
ENDBRANCH   1  15
BRANCH   1  26
ATOM     26  N   UNL     1      -1.072  -6.334   2.960  0.00  0.00    +0.392 N 
ATOM     27  H   UNL     1      -1.046  -6.777   2.054  0.00  0.00    -0.080 HD
BRANCH  26  28
ATOM     28  C   UNL     1      -2.277  -6.764   3.682  0.00  0.00    -0.040 C 
BRANCH  28  29
ATOM     29  C   UNL     1      -2.372  -6.022   4.990  0.00  0.00    -0.046 A 
ATOM     30  C   UNL     1      -1.723  -6.503   6.117  0.00  0.00    +0.005 A 
ATOM     31  C   UNL     1      -1.837  -5.787   7.300  0.00  0.00    +0.020 A 
ATOM     32  C   UNL     1      -2.589  -4.628   7.315  0.00  0.00    +0.111 A 
ATOM     33  N   UNL     1      -3.193  -4.201   6.223  0.00  0.00    -0.263 NA
ATOM     34  C   UNL     1      -3.101  -4.852   5.080  0.00  0.00    +0.112 A 
ENDBRANCH  28  29
ENDBRANCH  26  28
BRANCH  26  35
ATOM     35  C   UNL     1       0.121  -6.717   3.727  0.00  0.00    -0.002 C 
BRANCH  35  36
ATOM     36  C   UNL     1       0.230  -8.220   3.768  0.00  0.00    +0.089 A 
ATOM     37  C   UNL     1       0.956  -8.979   2.928  0.00  0.00    +0.042 A 
ATOM     38  C   UNL     1       0.771 -10.323   3.327  0.00  0.00    +0.041 A 
ATOM     39  C   UNL     1      -0.057 -10.304   4.387  0.00  0.00    +0.195 A 
ATOM     40  O   UNL     1      -0.377  -9.027   4.653  0.00  0.00    -0.470 OA
ENDBRANCH  35  36
ENDBRANCH  26  35
ENDBRANCH   1  26
TORSDOF 8
