REMARK  Name = ZINC40923017
REMARK  7 active torsions:
REMARK  status: ('A' for Active; 'I' for Inactive)
REMARK    1  A    between atoms: C_3  and  C_8
REMARK    2  A    between atoms: C_17  and  C_20
REMARK    3  A    between atoms: N_22  and  C_23
REMARK    4  A    between atoms: C_23  and  C_24
REMARK    5  A    between atoms: C_24  and  C_25
REMARK    6  A    between atoms: C_28  and  S_31
REMARK    7  A    between atoms: S_31  and  N_34
REMARK                            x       y       z     vdW  Elec       q    Type
REMARK                         _______ _______ _______ _____ _____    ______ ____
ROOT
ATOM      1  C   UNL     1       3.660   2.165  -0.040  0.00  0.00    +0.093 A 
ATOM      2  C   UNL     1       4.872   1.497   0.168  0.00  0.00    +0.033 A 
ATOM      3  C   UNL     1       6.034   2.248   0.170  0.00  0.00    +0.047 A 
ATOM      4  C   UNL     1       5.926   3.624  -0.036  0.00  0.00    +0.144 A 
ATOM      5  N   UNL     1       4.734   4.172  -0.225  0.00  0.00    -0.134 NA
ATOM      6  N   UNL     1       3.655   3.476  -0.233  0.00  0.00    -0.147 NA
ATOM      7  N   UNL     1       7.066   4.419  -0.042  0.00  0.00    -0.314 N 
ATOM      8  C   UNL     1       6.957   5.884  -0.021  0.00  0.00    +0.107 C 
ATOM      9  C   UNL     1       7.762   6.455  -1.193  0.00  0.00    +0.031 C 
ATOM     10  C   UNL     1       9.198   5.930  -1.123  0.00  0.00    +0.078 C 
ATOM     11  C   UNL     1       9.191   4.404  -1.240  0.00  0.00    +0.031 C 
ATOM     12  C   UNL     1       8.403   3.810  -0.063  0.00  0.00    +0.107 C 
ENDROOT
BRANCH   1  15
ATOM     13  C   UNL     1      -0.005   1.359  -0.274  0.00  0.00    +0.002 A 
ATOM     14  C   UNL     1       1.179   2.070  -0.264  0.00  0.00    +0.010 A 
ATOM     15  C   UNL     1       2.385   1.406  -0.051  0.00  0.00    +0.003 A 
ATOM     16  C   UNL     1       2.391   0.027   0.151  0.00  0.00    +0.030 A 
ATOM     17  C   UNL     1       1.201  -0.674   0.139  0.00  0.00    +0.042 A 
ATOM     18  C   UNL     1       0.005  -0.009  -0.073  0.00  0.00    +0.020 A 
ATOM     19 CL   UNL     1       1.204  -2.392   0.390  0.00  0.00    -0.084 Cl
ENDBRANCH   1  15
BRANCH  10  20
ATOM     20  C   UNL     1      10.002   6.516  -2.255  0.00  0.00    +0.216 C 
ATOM     21  O   UNL     1       9.479   7.279  -3.040  0.00  0.00    -0.276 OA
ATOM     22  N   UNL     1      11.303   6.193  -2.396  0.00  0.00    -0.315 N 
ATOM     23  H   UNL     1      11.722   5.583  -1.768  0.00  0.00    +0.149 HD
BRANCH  22  24
ATOM     24  C   UNL     1      12.085   6.763  -3.496  0.00  0.00    +0.109 C 
BRANCH  24  25
ATOM     25  C   UNL     1      13.520   6.239  -3.427  0.00  0.00    +0.054 C 
BRANCH  25  26
ATOM     26  C   UNL     1      14.324   6.825  -4.558  0.00  0.00    -0.046 A 
ATOM     27  C   UNL     1      14.384   6.172  -5.775  0.00  0.00    +0.005 A 
ATOM     28  C   UNL     1      15.121   6.710  -6.813  0.00  0.00    +0.029 A 
ATOM     29  C   UNL     1      15.799   7.901  -6.635  0.00  0.00    +0.105 A 
ATOM     30  C   UNL     1      15.739   8.555  -5.418  0.00  0.00    +0.029 A 
ATOM     31  C   UNL     1      14.998   8.019  -4.382  0.00  0.00    +0.005 A 
BRANCH  29  32
ATOM     32  S   UNL     1      16.740   8.586  -7.958  0.00  0.00    +0.056 S 
ATOM     33  O   UNL     1      17.721   9.426  -7.365  0.00  0.00    -0.153 OA
ATOM     34  O   UNL     1      17.079   7.506  -8.816  0.00  0.00    -0.153 OA
BRANCH  32  35
ATOM     35  N   UNL     1      15.728   9.575  -8.818  0.00  0.00    -0.204 NA
ATOM     36  H   UNL     1      14.803   9.678  -8.545  0.00  0.00    +0.144 HD
ATOM     37  H   UNL     1      16.060  10.051  -9.595  0.00  0.00    +0.144 HD
ENDBRANCH  32  35
ENDBRANCH  29  32
ENDBRANCH  25  26
ENDBRANCH  24  25
ENDBRANCH  22  24
ENDBRANCH  10  20
TORSDOF 7
