REMARK  Name = ZINC02918375
REMARK  8 active torsions:
REMARK  status: ('A' for Active; 'I' for Inactive)
REMARK    1  A    between atoms: C_1  and  O_2
REMARK    2  A    between atoms: O_2  and  C_3
REMARK    3  A    between atoms: C_6  and  C_13
REMARK    4  A    between atoms: C_7  and  O_11
REMARK    5  A    between atoms: C_8  and  O_9
REMARK    6  A    between atoms: O_9  and  C_10
REMARK    7  A    between atoms: O_11  and  C_12
REMARK    8  A    between atoms: C_16  and  C_23
REMARK                            x       y       z     vdW  Elec       q    Type
REMARK                         _______ _______ _______ _____ _____    ______ ____
ROOT
ATOM      1  C   UNL     1      -4.994  -2.620   0.038  0.00  0.00    +0.150 C 
ATOM      2  C   UNL     1      -5.784  -2.207   1.285  0.00  0.00    +0.088 C 
ATOM      3  C   UNL     1      -7.245  -2.519   1.127  0.00  0.00    +0.055 C 
ATOM      4  N   UNL     1      -7.859  -2.449  -0.023  0.00  0.00    -0.215 NA
ATOM      5  C   UNL     1      -7.134  -2.154  -1.135  0.00  0.00    +0.249 A 
ATOM      6  N   UNL     1      -5.766  -2.224  -1.139  0.00  0.00    -0.222 N 
ATOM      7  N   UNL     1      -5.353  -1.861  -2.417  0.00  0.00    -0.156 NA
ATOM      8  C   UNL     1      -6.439  -1.617  -3.111  0.00  0.00    +0.247 A 
ATOM      9  N   UNL     1      -7.513  -1.799  -2.337  0.00  0.00    -0.198 NA
ENDROOT
BRANCH   3  10
ATOM     10  C   UNL     1      -8.015  -2.918   2.316  0.00  0.00    -0.004 A 
ATOM     11  C   UNL     1      -7.389  -2.997   3.564  0.00  0.00    +0.011 A 
ATOM     12  C   UNL     1      -8.117  -3.371   4.674  0.00  0.00    +0.015 A 
ATOM     13  C   UNL     1      -9.464  -3.669   4.554  0.00  0.00    +0.013 A 
ATOM     14  C   UNL     1     -10.091  -3.594   3.321  0.00  0.00    +0.015 A 
ATOM     15  C   UNL     1      -9.377  -3.215   2.204  0.00  0.00    +0.011 A 
ATOM     16  I   UNL     1     -10.560  -4.237   6.246  0.00  0.00    -0.044 I 
ENDBRANCH   3  10
BRANCH   1  20
ATOM     17  C   UNL     1      -1.201  -0.638   0.010  0.00  0.00    +0.165 A 
ATOM     18  C   UNL     1      -2.375   0.101   0.019  0.00  0.00    +0.050 A 
ATOM     19  C   UNL     1      -3.598  -0.543   0.028  0.00  0.00    +0.013 A 
ATOM     20  C   UNL     1      -3.657  -1.924   0.028  0.00  0.00    +0.023 A 
ATOM     21  C   UNL     1      -2.488  -2.670   0.018  0.00  0.00    +0.170 A 
ATOM     22  C   UNL     1      -1.256  -2.026   0.003  0.00  0.00    +0.204 A 
BRANCH  17  24
ATOM     23  C   UNL     1      -0.017   1.425   0.010  0.00  0.00    +0.277 C 
ATOM     24  O   UNL     1       0.002  -0.004   0.002  0.00  0.00    -0.491 OA
ENDBRANCH  17  24
BRANCH  22  25
ATOM     25  O   UNL     1      -0.106  -2.755  -0.012  0.00  0.00    -0.488 OA
ATOM     26  C   UNL     1       0.454  -3.109   1.254  0.00  0.00    +0.277 C 
ENDBRANCH  22  25
BRANCH  21  27
ATOM     27  O   UNL     1      -2.547  -4.028   0.018  0.00  0.00    -0.491 OA
ATOM     28  C   UNL     1      -2.586  -4.676  -1.255  0.00  0.00    +0.277 C 
ENDBRANCH  21  27
ENDBRANCH   1  20
TORSDOF 5
