REMARK  Name = ZINC38884188
REMARK  9 active torsions:
REMARK  status: ('A' for Active; 'I' for Inactive)
REMARK    1  A    between atoms: C_1  and  C_2
REMARK    2  A    between atoms: C_5  and  C_9
REMARK    3  A    between atoms: C_7  and  C_8
REMARK    4  A    between atoms: C_9  and  C_11
REMARK    5  A    between atoms: C_9  and  N_12
REMARK    6  A    between atoms: C_13  and  C_15
REMARK    7  A    between atoms: N_18  and  C_21
REMARK    8  A    between atoms: C_21  and  C_22
REMARK    9  A    between atoms: C_24  and  C_27
REMARK                            x       y       z     vdW  Elec       q    Type
REMARK                         _______ _______ _______ _____ _____    ______ ____
ROOT
ATOM      1  C   UNL     1      -2.284  -6.507  -2.067  0.00  0.00    +0.071 C 
ATOM      2  C   UNL     1      -1.524  -6.551  -3.395  0.00  0.00    -0.006 C 
ATOM      3  C   UNL     1      -2.431  -7.143  -4.476  0.00  0.00    -0.077 C 
ATOM      4  N   UNL     1      -2.832  -8.502  -4.094  0.00  0.00    +0.386 N 
ATOM      5  C   UNL     1      -3.623  -8.460  -2.859  0.00  0.00    -0.077 C 
ATOM      6  C   UNL     1      -2.761  -7.919  -1.715  0.00  0.00    -0.006 C 
ATOM      7  H   UNL     1      -2.007  -9.065  -3.946  0.00  0.00    -0.081 HD
ENDROOT
BRANCH   1   9
ATOM      8  N   UNL     1      -0.828  -4.769  -1.077  0.00  0.00    -0.309 N 
ATOM      9  C   UNL     1      -1.371  -5.999  -0.981  0.00  0.00    +0.216 C 
ATOM     10  O   UNL     1      -1.125  -6.697  -0.019  0.00  0.00    -0.276 OA
ATOM     11  H   UNL     1      -1.024  -4.212  -1.846  0.00  0.00    +0.149 HD
BRANCH   8  12
ATOM     12  C   UNL     1       0.059  -4.275  -0.021  0.00  0.00    +0.100 C 
ATOM     13  C   UNL     1       1.485  -4.766  -0.282  0.00  0.00    +0.033 C 
BRANCH  12  18
ATOM     14  C   UNL     1      -0.018   1.503   0.010  0.00  0.00    +0.044 C 
ATOM     15  C   UNL     1       0.002  -0.004   0.002  0.00  0.00    -0.048 A 
ATOM     16  C   UNL     1       0.006  -0.689  -1.199  0.00  0.00    +0.004 A 
ATOM     17  C   UNL     1       0.025  -2.071  -1.207  0.00  0.00    +0.006 A 
ATOM     18  C   UNL     1       0.040  -2.768  -0.013  0.00  0.00    -0.027 A 
ATOM     19  C   UNL     1       0.037  -2.084   1.188  0.00  0.00    +0.009 A 
ATOM     20  C   UNL     1       0.023  -0.702   1.195  0.00  0.00    -0.047 A 
ATOM     21  C   UNL     1       0.025   0.045   2.504  0.00  0.00    +0.044 C 
ENDBRANCH  12  18
ENDBRANCH   8  12
ENDBRANCH   1   9
BRANCH   4  22
ATOM     22  C   UNL     1      -3.638  -9.094  -5.170  0.00  0.00    +0.022 C 
BRANCH  22  23
ATOM     23  C   UNL     1      -3.947 -10.530  -4.835  0.00  0.00    +0.211 A 
ATOM     24  N   UNL     1      -4.988 -10.950  -4.176  0.00  0.00    -0.192 NA
ATOM     25  C   UNL     1      -4.948 -12.291  -4.056  0.00  0.00    +0.209 A 
ATOM     26  N   UNL     1      -3.863 -12.731  -4.649  0.00  0.00    -0.056 NA
ATOM     27  O   UNL     1      -3.199 -11.590  -5.170  0.00  0.00    -0.340 OA
BRANCH  25  28
ATOM     28  C   UNL     1      -5.957 -13.126  -3.372  0.00  0.00    +0.060 A 
ATOM     29  C   UNL     1      -5.982 -14.486  -3.205  0.00  0.00    +0.019 A 
ATOM     30  C   UNL     1      -7.037 -15.049  -2.524  0.00  0.00    +0.008 A 
ATOM     31  C   UNL     1      -8.018 -14.244  -2.039  0.00  0.00    +0.046 A 
ATOM     32  S   UNL     1      -7.456 -12.626  -2.541  0.00  0.00    -0.093 S 
ENDBRANCH  25  28
ENDBRANCH  22  23
ENDBRANCH   4  22
TORSDOF 6
