REMARK  Name = ZINC67581489
REMARK  7 active torsions:
REMARK  status: ('A' for Active; 'I' for Inactive)
REMARK    1  A    between atoms: C_4  and  N_7
REMARK    2  A    between atoms: N_7  and  C_8
REMARK    3  A    between atoms: N_16  and  C_17
REMARK    4  A    between atoms: C_17  and  C_18
REMARK    5  A    between atoms: C_18  and  C_19
REMARK    6  A    between atoms: C_22  and  S_25
REMARK    7  A    between atoms: S_25  and  N_28
REMARK                            x       y       z     vdW  Elec       q    Type
REMARK                         _______ _______ _______ _____ _____    ______ ____
ROOT
ATOM      1  C   UNL     1       3.641  -2.114  -0.044  0.00  0.00    +0.089 C 
ATOM      2  C   UNL     1       5.000  -2.653   0.478  0.00  0.00    +0.043 C 
ATOM      3  C   UNL     1       5.113  -4.029  -0.212  0.00  0.00    +0.111 C 
ATOM      4  N   UNL     1       4.248  -3.995  -1.400  0.00  0.00    -0.284 N 
ATOM      5  C   UNL     1       3.625  -2.662  -1.493  0.00  0.00    +0.131 C 
ATOM      6  C   UNL     1       4.056  -5.014  -2.261  0.00  0.00    +0.302 C 
ATOM      7  O   UNL     1       3.314  -4.872  -3.214  0.00  0.00    -0.253 OA
ATOM      8  N   UNL     1       4.686  -6.189  -2.066  0.00  0.00    -0.299 N 
ATOM      9  H   UNL     1       5.277  -6.302  -1.305  0.00  0.00    +0.150 HD
ENDROOT
BRANCH   1  10
ATOM     10  N   UNL     1       3.620  -0.649  -0.036  0.00  0.00    -0.339 N 
ATOM     11  H   UNL     1       4.452  -0.152  -0.042  0.00  0.00    +0.146 HD
BRANCH  10  15
ATOM     12  C   UNL     1      -0.017   1.379   0.010  0.00  0.00    +0.000 A 
ATOM     13  C   UNL     1       1.169   2.089   0.002  0.00  0.00    +0.002 A 
ATOM     14  C   UNL     1       2.377   1.420  -0.013  0.00  0.00    +0.023 A 
ATOM     15  C   UNL     1       2.400   0.031  -0.021  0.00  0.00    +0.027 A 
ATOM     16  C   UNL     1       1.206  -0.680  -0.013  0.00  0.00    +0.023 A 
ATOM     17  C   UNL     1       0.002  -0.004   0.002  0.00  0.00    +0.002 A 
ENDBRANCH  10  15
ENDBRANCH   1  10
BRANCH   8  18
ATOM     18  C   UNL     1       4.477  -7.296  -3.002  0.00  0.00    +0.110 C 
BRANCH  18  19
ATOM     19  C   UNL     1       5.302  -8.505  -2.554  0.00  0.00    +0.054 C 
BRANCH  19  20
ATOM     20  C   UNL     1       5.087  -9.644  -3.518  0.00  0.00    -0.046 A 
ATOM     21  C   UNL     1       4.063 -10.547  -3.302  0.00  0.00    +0.005 A 
ATOM     22  C   UNL     1       3.866 -11.592  -4.186  0.00  0.00    +0.029 A 
ATOM     23  C   UNL     1       4.693 -11.733  -5.285  0.00  0.00    +0.105 A 
ATOM     24  C   UNL     1       5.716 -10.829  -5.500  0.00  0.00    +0.029 A 
ATOM     25  C   UNL     1       5.910  -9.782  -4.619  0.00  0.00    +0.005 A 
BRANCH  23  26
ATOM     26  S   UNL     1       4.442 -13.066  -6.410  0.00  0.00    +0.056 S 
ATOM     27  O   UNL     1       5.688 -13.291  -7.057  0.00  0.00    -0.153 OA
ATOM     28  O   UNL     1       3.764 -14.085  -5.689  0.00  0.00    -0.153 OA
BRANCH  26  29
ATOM     29  N   UNL     1       3.394 -12.532  -7.575  0.00  0.00    -0.204 NA
ATOM     30  H   UNL     1       3.047 -11.627  -7.538  0.00  0.00    +0.144 HD
ATOM     31  H   UNL     1       3.126 -13.124  -8.295  0.00  0.00    +0.144 HD
ENDBRANCH  26  29
ENDBRANCH  23  26
ENDBRANCH  19  20
ENDBRANCH  18  19
ENDBRANCH   8  18
TORSDOF 7
