REMARK  Name = ZINC12072769
REMARK  13 active torsions:
REMARK  status: ('A' for Active; 'I' for Inactive)
REMARK    1  A    between atoms: C_1  and  C_2
REMARK    2  A    between atoms: C_2  and  C_33
REMARK    3  A    between atoms: C_4  and  N_10
REMARK    4  A    between atoms: C_6  and  C_8
REMARK    5  A    between atoms: C_6  and  C_9
REMARK    6  A    between atoms: C_11  and  C_13
REMARK    7  A    between atoms: C_13  and  C_14
REMARK    8  A    between atoms: N_21  and  C_22
REMARK    9  A    between atoms: C_22  and  C_23
REMARK   10  A    between atoms: C_26  and  O_31
REMARK   11  A    between atoms: C_27  and  O_29
REMARK   12  A    between atoms: O_29  and  C_30
REMARK   13  A    between atoms: O_31  and  C_32
REMARK                            x       y       z     vdW  Elec       q    Type
REMARK                         _______ _______ _______ _____ _____    ______ ____
ROOT
ATOM      1  C   UNL     1       1.770  -5.519  -4.713  0.00  0.00    +0.028 C 
ATOM      2  C   UNL     1       2.410  -5.815  -6.040  0.00  0.00    +0.200 C 
ATOM      3  O   UNL     1       2.296  -5.005  -6.935  0.00  0.00    -0.278 OA
ATOM      4  N   UNL     1       3.101  -6.937  -6.274  0.00  0.00    -0.318 N 
ATOM      5  C   UNL     1       3.316  -7.957  -5.250  0.00  0.00    +0.085 C 
ATOM      6  C   UNL     1       2.316  -7.767  -4.108  0.00  0.00    -0.058 C 
ATOM      7  N   UNL     1       2.362  -6.364  -3.669  0.00  0.00    +0.391 N 
ATOM      8  H   UNL     1       3.474  -7.078  -7.158  0.00  0.00    +0.149 HD
ATOM      9  H   UNL     1       3.321  -6.089  -3.514  0.00  0.00    -0.080 HD
ENDROOT
BRANCH   1  10
ATOM     10  C   UNL     1       1.993  -4.047  -4.360  0.00  0.00    +0.089 C 
BRANCH  10  12
ATOM     11  N   UNL     1       3.914  -2.540  -3.958  0.00  0.00    -0.312 N 
ATOM     12  C   UNL     1       3.471  -3.749  -4.356  0.00  0.00    +0.212 C 
ATOM     13  O   UNL     1       4.261  -4.598  -4.712  0.00  0.00    -0.276 OA
ATOM     14  H   UNL     1       3.282  -1.862  -3.674  0.00  0.00    +0.149 HD
BRANCH  11  18
ATOM     15  C   UNL     1       7.307   0.437  -2.019  0.00  0.00    +0.011 C 
ATOM     16  C   UNL     1       7.128  -0.826  -2.891  0.00  0.00    -0.033 C 
ATOM     17  C   UNL     1       5.639  -1.149  -2.935  0.00  0.00    +0.028 C 
ATOM     18  C   UNL     1       5.354  -2.250  -3.954  0.00  0.00    +0.074 C 
ATOM     19  C   UNL     1       5.768  -1.760  -5.340  0.00  0.00    +0.028 C 
ATOM     20  C   UNL     1       7.262  -1.457  -5.383  0.00  0.00    -0.033 C 
ATOM     21  C   UNL     1       7.702  -0.531  -4.264  0.00  0.00    +0.013 C 
ATOM     22  C   UNL     1       7.558  -0.754  -6.726  0.00  0.00    +0.011 C 
ATOM     23  C   UNL     1       8.062  -2.763  -5.366  0.00  0.00    +0.011 C 
ATOM     24  C   UNL     1       7.891  -1.964  -2.206  0.00  0.00    +0.011 C 
ENDBRANCH  11  18
ENDBRANCH  10  12
ENDBRANCH   1  10
BRANCH   7  25
ATOM     25  C   UNL     1       1.598  -6.216  -2.423  0.00  0.00    -0.042 C 
BRANCH  25  26
ATOM     26  C   UNL     1       2.294  -6.964  -1.315  0.00  0.00    -0.060 A 
ATOM     27  C   UNL     1       1.987  -8.291  -1.081  0.00  0.00    +0.005 A 
ATOM     28  C   UNL     1       2.623  -8.982  -0.065  0.00  0.00    +0.049 A 
ATOM     29  C   UNL     1       3.569  -8.343   0.720  0.00  0.00    +0.161 A 
ATOM     30  C   UNL     1       3.878  -7.007   0.483  0.00  0.00    +0.162 A 
ATOM     31  C   UNL     1       3.241  -6.322  -0.539  0.00  0.00    +0.051 A 
BRANCH  30  32
ATOM     32  O   UNL     1       4.807  -6.377   1.251  0.00  0.00    -0.491 OA
ATOM     33  C   UNL     1       5.074  -5.005   0.951  0.00  0.00    +0.277 C 
ENDBRANCH  30  32
BRANCH  29  34
ATOM     34  O   UNL     1       4.195  -9.021   1.719  0.00  0.00    -0.491 OA
ATOM     35  C   UNL     1       3.827 -10.389   1.904  0.00  0.00    +0.277 C 
ENDBRANCH  29  34
ENDBRANCH  25  26
ENDBRANCH   7  25
TORSDOF 7
