REMARK  Name = ZINC44932000
REMARK  12 active torsions:
REMARK  status: ('A' for Active; 'I' for Inactive)
REMARK    1  A    between atoms: C_1  and  C_2
REMARK    2  A    between atoms: C_2  and  O_3
REMARK    3  A    between atoms: O_3  and  C_4
REMARK    4  A    between atoms: C_9  and  C_10
REMARK    5  A    between atoms: C_10  and  N_11
REMARK    6  A    between atoms: C_12  and  C_14
REMARK    7  A    between atoms: N_17  and  S_29
REMARK    8  A    between atoms: C_20  and  C_25
REMARK    9  A    between atoms: C_25  and  C_26
REMARK   10  A    between atoms: C_25  and  C_27
REMARK   11  A    between atoms: C_25  and  C_28
REMARK   12  A    between atoms: S_29  and  C_32
REMARK                            x       y       z     vdW  Elec       q    Type
REMARK                         _______ _______ _______ _____ _____    ______ ____
ROOT
ATOM      1  C   UNL     1      -5.551   0.325  -2.947  0.00  0.00    +0.277 C 
ATOM      2  C   UNL     1      -5.940  -0.851  -3.854  0.00  0.00    +0.185 C 
ATOM      3  N   UNL     1      -6.240  -0.303  -5.188  0.00  0.00    -0.200 N 
ATOM      4  C   UNL     1      -6.983   0.886  -5.253  0.00  0.00    +0.093 A 
ATOM      5  C   UNL     1      -7.538   1.293  -6.457  0.00  0.00    +0.032 A 
ATOM      6  C   UNL     1      -8.266   2.467  -6.517  0.00  0.00    -0.040 A 
ATOM      7  C   UNL     1      -8.441   3.233  -5.379  0.00  0.00    +0.008 A 
ATOM      8  C   UNL     1      -7.891   2.830  -4.176  0.00  0.00    +0.048 A 
ATOM      9  C   UNL     1      -7.160   1.654  -4.106  0.00  0.00    +0.144 A 
ATOM     10  O   UNL     1      -6.628   1.264  -2.917  0.00  0.00    -0.476 OA
ENDROOT
BRANCH   1  12
ATOM     11  N   UNL     1      -4.242  -1.006  -1.324  0.00  0.00    -0.308 N 
ATOM     12  C   UNL     1      -5.282  -0.180  -1.552  0.00  0.00    +0.256 C 
ATOM     13  O   UNL     1      -6.001   0.158  -0.636  0.00  0.00    -0.272 OA
ATOM     14  H   UNL     1      -3.667  -1.276  -2.057  0.00  0.00    +0.149 HD
BRANCH  11  15
ATOM     15  C   UNL     1      -3.981  -1.497   0.032  0.00  0.00    +0.143 C 
BRANCH  15  21
ATOM     16  C   UNL     1      -1.498  -1.848   0.006  0.00  0.00    +0.125 A 
ATOM     17  C   UNL     1      -0.387  -2.679  -0.003  0.00  0.00    +0.046 A 
ATOM     18  C   UNL     1      -0.552  -4.051  -0.008  0.00  0.00    +0.004 A 
ATOM     19  C   UNL     1      -1.823  -4.596  -0.004  0.00  0.00    +0.001 A 
ATOM     20  C   UNL     1      -2.932  -3.769   0.004  0.00  0.00    +0.009 A 
ATOM     21  C   UNL     1      -2.772  -2.397   0.016  0.00  0.00    +0.011 A 
BRANCH  16  22
ATOM     22  O   UNL     1      -1.339  -0.499   0.012  0.00  0.00    -0.492 OA
BRANCH  22  24
ATOM     23  C   UNL     1      -0.019   1.526   0.010  0.00  0.00    +0.048 C 
ATOM     24  C   UNL     1       0.002  -0.004   0.002  0.00  0.00    +0.225 C 
ENDBRANCH  22  24
ENDBRANCH  16  22
ENDBRANCH  15  21
ENDBRANCH  11  15
ENDBRANCH   1  12
BRANCH   6  25
ATOM     25  C   UNL     1      -8.870   2.912  -7.824  0.00  0.00    -0.013 C 
ATOM     26  C   UNL     1      -9.846   1.845  -8.324  0.00  0.00    +0.015 C 
ATOM     27  C   UNL     1      -9.618   4.230  -7.618  0.00  0.00    +0.015 C 
ATOM     28  C   UNL     1      -7.760   3.111  -8.857  0.00  0.00    +0.015 C 
ENDBRANCH   6  25
BRANCH   3  29
ATOM     29  S   UNL     1      -5.719  -1.065  -6.563  0.00  0.00    +0.043 S 
ATOM     30  O   UNL     1      -5.623  -0.032  -7.535  0.00  0.00    -0.155 OA
ATOM     31  O   UNL     1      -4.565  -1.790  -6.160  0.00  0.00    -0.155 OA
ATOM     32  C   UNL     1      -7.057  -2.210  -6.998  0.00  0.00    +0.218 C 
ENDBRANCH   3  29
TORSDOF 7
