REMARK  Name = ZINC39696072
REMARK  8 active torsions:
REMARK  status: ('A' for Active; 'I' for Inactive)
REMARK    1  A    between atoms: C_1  and  C_2
REMARK    2  A    between atoms: C_2  and  C_3
REMARK    3  A    between atoms: C_6  and  C_9
REMARK    4  A    between atoms: C_9  and  C_11
REMARK    5  A    between atoms: C_9  and  N_12
REMARK    6  A    between atoms: C_13  and  C_15
REMARK    7  A    between atoms: C_26  and  C_28
REMARK    8  A    between atoms: C_28  and  C_34
REMARK                            x       y       z     vdW  Elec       q    Type
REMARK                         _______ _______ _______ _____ _____    ______ ____
ROOT
ATOM      1  C   UNL     1       1.206  -5.175   6.923  0.00  0.00    +0.100 C 
ATOM      2  C   UNL     1       0.619  -5.870   5.674  0.00  0.00    +0.121 C 
ATOM      3  N   UNL     1       1.494  -7.045   5.454  0.00  0.00    -0.300 N 
ATOM      4  C   UNL     1       1.780  -7.553   6.817  0.00  0.00    +0.115 C 
ATOM      5  C   UNL     1       1.964  -6.284   7.673  0.00  0.00    -0.004 C 
ATOM      6  C   UNL     1       1.363  -6.490   9.060  0.00  0.00    -0.010 C 
ATOM      7  C   UNL     1       2.170  -7.556   9.807  0.00  0.00    -0.082 C 
ATOM      8  N   UNL     1       3.569  -7.125   9.917  0.00  0.00    +0.379 N 
ATOM      9  C   UNL     1       4.166  -7.019   8.581  0.00  0.00    -0.082 C 
ATOM     10  C   UNL     1       3.444  -5.931   7.781  0.00  0.00    -0.010 C 
ATOM     11  C   UNL     1       1.932  -7.541   4.279  0.00  0.00    +0.222 C 
ATOM     12  O   UNL     1       1.673  -6.964   3.244  0.00  0.00    -0.275 OA
ATOM     13  H   UNL     1       3.608  -6.226  10.374  0.00  0.00    -0.086 HD
ATOM     14  H   UNL     1       4.085  -7.799  10.462  0.00  0.00    -0.086 HD
ENDROOT
BRANCH  11  15
ATOM     15  C   UNL     1       2.742  -8.811   4.252  0.00  0.00    +0.044 C 
ATOM     16  C   UNL     1       4.093  -8.569   4.928  0.00  0.00    +0.016 C 
ATOM     17  C   UNL     1       4.847  -7.467   4.179  0.00  0.00    +0.001 C 
ATOM     18  C   UNL     1       5.072  -7.898   2.729  0.00  0.00    +0.000 C 
ATOM     19  C   UNL     1       3.720  -8.141   2.054  0.00  0.00    +0.001 C 
ATOM     20  C   UNL     1       2.967  -9.242   2.802  0.00  0.00    +0.016 C 
ATOM     21  C   UNL     1       1.988  -9.913   5.001  0.00  0.00    +0.021 C 
ENDBRANCH  11  15
BRANCH   1  23
ATOM     22  N   UNL     1       2.314  -2.998   7.309  0.00  0.00    -0.308 N 
ATOM     23  C   UNL     1       2.152  -4.075   6.516  0.00  0.00    +0.219 C 
ATOM     24  O   UNL     1       2.767  -4.160   5.474  0.00  0.00    -0.275 OA
ATOM     25  H   UNL     1       1.822  -2.930   8.143  0.00  0.00    +0.149 HD
BRANCH  22  26
ATOM     26  C   UNL     1       3.234  -1.929   6.913  0.00  0.00    +0.100 C 
ATOM     27  C   UNL     1       4.654  -2.287   7.358  0.00  0.00    +0.033 C 
BRANCH  26  31
ATOM     28  C   UNL     1       2.042   1.732   8.764  0.00  0.00    -0.048 A 
ATOM     29  C   UNL     1       2.489   1.732   7.457  0.00  0.00    +0.004 A 
ATOM     30  C   UNL     1       2.875   0.548   6.858  0.00  0.00    +0.006 A 
ATOM     31  C   UNL     1       2.814  -0.637   7.567  0.00  0.00    -0.027 A 
ATOM     32  C   UNL     1       2.367  -0.638   8.875  0.00  0.00    +0.006 A 
ATOM     33  C   UNL     1       1.985   0.548   9.475  0.00  0.00    +0.004 A 
BRANCH  28  35
ATOM     34  C   UNL     1       2.830   3.670  10.095  0.00  0.00    +0.009 C 
ATOM     35  C   UNL     1       1.621   3.023   9.417  0.00  0.00    +0.032 C 
ENDBRANCH  28  35
ENDBRANCH  26  31
ENDBRANCH  22  26
ENDBRANCH   1  23
TORSDOF 5
