REMARK  Name = ZINC05345720
REMARK  7 active torsions:
REMARK  status: ('A' for Active; 'I' for Inactive)
REMARK    1  A    between atoms: C_1  and  C_2
REMARK    2  A    between atoms: C_5  and  C_9
REMARK    3  A    between atoms: C_6  and  C_8
REMARK    4  A    between atoms: N_11  and  C_12
REMARK    5  A    between atoms: C_12  and  N_14
REMARK    6  A    between atoms: N_14  and  C_15
REMARK    7  A    between atoms: C_16  and  C_25
REMARK                            x       y       z     vdW  Elec       q    Type
REMARK                         _______ _______ _______ _____ _____    ______ ____
ROOT
ATOM      1  N   UNL     1       5.671  -1.683   2.753  0.00  0.00    -0.291 N 
ATOM      2  H   UNL     1       5.413  -2.330   3.429  0.00  0.00    +0.154 HD
ENDROOT
BRANCH   1   3
ATOM      3  C   UNL     1       4.777  -0.702   2.355  0.00  0.00    +0.084 A 
ATOM      4  C   UNL     1       3.483  -0.484   2.800  0.00  0.00    +0.068 A 
ATOM      5  C   UNL     1       2.744   0.629   2.218  0.00  0.00    -0.023 A 
ATOM      6  C   UNL     1       3.419   1.332   1.284  0.00  0.00    -0.004 A 
ATOM      7  S   UNL     1       5.006   0.550   1.181  0.00  0.00    -0.077 S 
ATOM      8  C   UNL     1       2.931   2.506   0.493  0.00  0.00    +0.043 C 
ATOM      9  C   UNL     1       2.291   3.526   1.443  0.00  0.00    +0.005 C 
ATOM     10  C   UNL     1       0.809   3.191   1.584  0.00  0.00    +0.001 C 
ATOM     11  C   UNL     1       0.601   1.681   1.492  0.00  0.00    +0.005 C 
ATOM     12  C   UNL     1       1.320   0.973   2.635  0.00  0.00    +0.037 C 
BRANCH   4  13
ATOM     13  C   UNL     1       2.877  -1.344   3.821  0.00  0.00    +0.244 C 
ATOM     14  O   UNL     1       2.259  -2.339   3.491  0.00  0.00    -0.270 OA
ATOM     15  N   UNL     1       3.005  -1.033   5.126  0.00  0.00    -0.325 N 
ATOM     16  H   UNL     1       3.498  -0.240   5.390  0.00  0.00    +0.145 HD
ATOM     17  H   UNL     1       2.605  -1.602   5.802  0.00  0.00    +0.145 HD
ENDBRANCH   4  13
ENDBRANCH   1   3
BRANCH   1  18
ATOM     18  C   UNL     1       6.900  -1.739   2.203  0.00  0.00    +0.141 C 
ATOM     19  S   UNL     1       7.356  -0.597   1.011  0.00  0.00    -0.018 S 
BRANCH  18  22
ATOM     20  C   UNL     1       8.999  -2.748   2.039  0.00  0.00    +0.250 C 
ATOM     21  O   UNL     1       9.323  -1.938   1.193  0.00  0.00    -0.270 OA
ATOM     22  N   UNL     1       7.770  -2.693   2.590  0.00  0.00    -0.264 N 
ATOM     23  H   UNL     1       7.511  -3.339   3.265  0.00  0.00    +0.157 HD
BRANCH  20  28
ATOM     24  C   UNL     1      12.711  -6.822   3.692  0.00  0.00    +0.044 C 
ATOM     25  C   UNL     1      11.739  -5.755   3.259  0.00  0.00    -0.050 A 
ATOM     26  C   UNL     1      10.528  -5.619   3.916  0.00  0.00    +0.004 A 
ATOM     27  C   UNL     1       9.634  -4.644   3.525  0.00  0.00    +0.013 A 
ATOM     28  C   UNL     1       9.952  -3.794   2.464  0.00  0.00    +0.040 A 
ATOM     29  C   UNL     1      11.173  -3.941   1.802  0.00  0.00    -0.038 A 
ATOM     30  C   UNL     1      12.060  -4.917   2.207  0.00  0.00    +0.007 A 
ATOM     31  C   UNL     1      11.522  -3.031   0.652  0.00  0.00    +0.044 C 
ENDBRANCH  20  28
ENDBRANCH  18  22
ENDBRANCH   1  18
TORSDOF 5
