REMARK  Name = ZINC49050826
REMARK  5 active torsions:
REMARK  status: ('A' for Active; 'I' for Inactive)
REMARK    1  A    between atoms: C_1  and  N_2
REMARK    2  A    between atoms: N_2  and  C_3
REMARK    3  A    between atoms: C_3  and  C_4
REMARK    4  A    between atoms: N_11  and  C_12
REMARK    5  A    between atoms: C_12  and  C_13
REMARK                            x       y       z     vdW  Elec       q    Type
REMARK                         _______ _______ _______ _____ _____    ______ ____
ROOT
ATOM      1  C   UNL     1      -0.018   1.461   0.010  0.00  0.00    +0.134 C 
ATOM      2  N   UNL     1       0.002  -0.004   0.002  0.00  0.00    -0.283 N 
ATOM      3  C   UNL     1       0.000  -0.672  -1.169  0.00  0.00    +0.303 C 
ATOM      4  O   UNL     1       0.017  -1.887  -1.175  0.00  0.00    -0.253 OA
ATOM      5  N   UNL     1      -0.020   0.009  -2.332  0.00  0.00    -0.295 N 
ATOM      6  H   UNL     1      -0.033   0.978  -2.327  0.00  0.00    +0.151 HD
ENDROOT
BRANCH   2   7
ATOM      7  C   UNL     1       0.024  -0.743   1.267  0.00  0.00    +0.164 C 
BRANCH   7   8
ATOM      8  C   UNL     1      -1.389  -1.016   1.714  0.00  0.00    +0.066 A 
ATOM      9  C   UNL     1      -2.010  -2.189   1.429  0.00  0.00    +0.071 A 
ATOM     10  S   UNL     1      -3.598  -1.917   2.197  0.00  0.00    -0.084 S 
ATOM     11  C   UNL     1      -3.306  -0.367   2.787  0.00  0.00    +0.156 A 
ATOM     12  N   UNL     1      -2.077  -0.129   2.404  0.00  0.00    -0.251 NA
ENDBRANCH   7   8
ENDBRANCH   2   7
BRANCH   5  13
ATOM     13  C   UNL     1      -0.022  -0.717  -3.605  0.00  0.00    +0.148 C 
BRANCH  13  14
ATOM     14  C   UNL     1      -0.047   0.268  -4.745  0.00  0.00    +0.008 A 
ATOM     15  C   UNL     1       0.993   0.836  -5.404  0.00  0.00    +0.028 A 
ATOM     16  C   UNL     1       0.730   1.724  -6.431  0.00  0.00    +0.025 A 
ATOM     17  C   UNL     1      -0.559   2.000  -6.748  0.00  0.00    +0.060 A 
ATOM     18  S   UNL     1      -1.451   0.984  -5.582  0.00  0.00    -0.099 S 
ATOM     19 BR   UNL     1       2.148   2.542  -7.379  0.00  0.00    -0.050 Br
ENDBRANCH  13  14
ENDBRANCH   5  13
TORSDOF 4
