REMARK  Name = ZINC49111660
REMARK  8 active torsions:
REMARK  status: ('A' for Active; 'I' for Inactive)
REMARK    1  A    between atoms: C_3  and  C_8
REMARK    2  A    between atoms: C_12  and  N_18
REMARK    3  A    between atoms: C_13  and  C_15
REMARK    4  A    between atoms: C_19  and  C_21
REMARK    5  A    between atoms: C_21  and  C_23
REMARK    6  A    between atoms: C_21  and  N_36
REMARK    7  A    between atoms: C_23  and  C_24
REMARK    8  A    between atoms: C_26  and  C_29
REMARK                            x       y       z     vdW  Elec       q    Type
REMARK                         _______ _______ _______ _____ _____    ______ ____
ROOT
ATOM      1  N   UNL     1       7.732   3.255  -0.017  0.00  0.00    -0.290 N 
ATOM      2  C   UNL     1       8.472   3.201  -1.142  0.00  0.00    +0.203 C 
ATOM      3  O   UNL     1       7.972   2.822  -2.180  0.00  0.00    -0.277 OA
ATOM      4  H   UNL     1       8.111   3.625   0.796  0.00  0.00    +0.154 HD
ENDROOT
BRANCH   1   8
ATOM      5  C   UNL     1       3.927   1.573  -0.317  0.00  0.00    +0.024 C 
ATOM      6  C   UNL     1       4.030   3.087  -0.531  0.00  0.00    +0.014 C 
ATOM      7  C   UNL     1       5.460   3.423  -0.961  0.00  0.00    +0.052 C 
ATOM      8  C   UNL     1       6.444   2.787  -0.021  0.00  0.00    +0.021 C 
ATOM      9  C   UNL     1       6.130   1.789   0.811  0.00  0.00    +0.058 C 
ATOM     10  C   UNL     1       4.756   1.192   0.911  0.00  0.00    +0.052 C 
BRANCH   5  13
ATOM     11  C   UNL     1       0.545  -0.051  -0.747  0.00  0.00    +0.003 A 
ATOM     12  C   UNL     1       1.867   0.300  -0.951  0.00  0.00    +0.004 A 
ATOM     13  C   UNL     1       2.486   1.191  -0.094  0.00  0.00    -0.041 A 
ATOM     14  C   UNL     1       1.785   1.730   0.968  0.00  0.00    +0.042 A 
ATOM     15  C   UNL     1       0.462   1.379   1.173  0.00  0.00    +0.124 A 
ATOM     16  C   UNL     1      -0.158   0.487   0.314  0.00  0.00    +0.038 A 
ATOM     17  F   UNL     1      -0.224   1.906   2.211  0.00  0.00    -0.205 F 
ENDBRANCH   5  13
BRANCH   9  18
ATOM     18  C   UNL     1       7.146   1.264   1.637  0.00  0.00    +0.384 C 
ATOM     19  O   UNL     1       8.257   1.784   1.647  0.00  0.00    -0.241 OA
ATOM     20  O   UNL     1       6.919   0.290   2.344  0.00  0.00    -0.241 OA
ENDBRANCH   9  18
ENDBRANCH   1   8
BRANCH   2  21
ATOM     21  C   UNL     1       9.922   3.612  -1.111  0.00  0.00    +0.022 C 
BRANCH  21  22
ATOM     22  N   UNL     1      10.620   3.036  -2.268  0.00  0.00    +0.386 N 
ATOM     23  H   UNL     1      10.193   3.371  -3.119  0.00  0.00    -0.089 HD
ATOM     24  H   UNL     1      11.590   3.311  -2.247  0.00  0.00    -0.089 HD
ATOM     25  H   UNL     1      10.554   2.029  -2.233  0.00  0.00    -0.089 HD
ENDBRANCH  21  22
BRANCH  21  26
ATOM     26  C   UNL     1      10.021   5.138  -1.164  0.00  0.00    +0.092 C 
BRANCH  26  27
ATOM     27  C   UNL     1      11.461   5.554  -1.009  0.00  0.00    +0.227 A 
ATOM     28  N   UNL     1      12.313   5.724  -1.980  0.00  0.00    -0.190 NA
ATOM     29  C   UNL     1      13.507   6.095  -1.485  0.00  0.00    +0.220 A 
ATOM     30  N   UNL     1      13.417   6.163  -0.180  0.00  0.00    -0.054 NA
ATOM     31  O   UNL     1      12.080   5.816   0.149  0.00  0.00    -0.338 OA
BRANCH  29  32
ATOM     32  C   UNL     1      14.725   6.380  -2.284  0.00  0.00    +0.111 A 
ATOM     33  C   UNL     1      15.902   6.751  -1.639  0.00  0.00    +0.034 A 
ATOM     34  C   UNL     1      17.031   7.014  -2.397  0.00  0.00    +0.042 A 
ATOM     35  C   UNL     1      16.943   6.897  -3.779  0.00  0.00    +0.141 A 
ATOM     36  C   UNL     1      15.739   6.523  -4.353  0.00  0.00    +0.149 A 
ATOM     37  N   UNL     1      14.683   6.274  -3.606  0.00  0.00    -0.249 NA
ATOM     38  F   UNL     1      18.021   7.145  -4.554  0.00  0.00    -0.204 F 
ENDBRANCH  29  32
ENDBRANCH  26  27
ENDBRANCH  21  26
ENDBRANCH   2  21
TORSDOF 8
