REMARK  Name = ZINC64131236
REMARK  9 active torsions:
REMARK  status: ('A' for Active; 'I' for Inactive)
REMARK    1  A    between atoms: C_1  and  C_2
REMARK    2  A    between atoms: C_6  and  C_10
REMARK    3  A    between atoms: C_10  and  O_11
REMARK    4  A    between atoms: O_11  and  C_12
REMARK    5  A    between atoms: C_14  and  C_16
REMARK    6  A    between atoms: N_18  and  C_19
REMARK    7  A    between atoms: C_19  and  C_20
REMARK    8  A    between atoms: C_20  and  C_22
REMARK    9  A    between atoms: C_20  and  N_29
REMARK                            x       y       z     vdW  Elec       q    Type
REMARK                         _______ _______ _______ _____ _____    ______ ____
ROOT
ATOM      1  C   UNL     1       1.185  -0.401   2.103  0.00  0.00    +0.230 C 
ATOM      2  O   UNL     1       2.148   0.054   1.524  0.00  0.00    -0.274 OA
ATOM      3  N   UNL     1       1.208  -0.541   3.443  0.00  0.00    -0.315 N 
ATOM      4  H   UNL     1       0.438  -0.904   3.907  0.00  0.00    +0.149 HD
ENDROOT
BRANCH   1  15
ATOM      5  C   UNL     1      -0.392   1.523   0.165  0.00  0.00    +0.041 C 
ATOM      6  C   UNL     1      -0.193   0.032   0.078  0.00  0.00    -0.036 C 
ATOM      7  C   UNL     1      -0.142  -0.593  -1.108  0.00  0.00    +0.071 C 
ATOM      8  C   UNL     1       0.055  -2.058  -1.103  0.00  0.00    +0.112 C 
ATOM      9  N   UNL     1       0.113  -2.727  -2.231  0.00  0.00    -0.225 NA
ATOM     10  C   UNL     1      -0.004  -2.116  -3.400  0.00  0.00    +0.149 C 
ATOM     11  N   UNL     1      -0.181  -0.823  -3.526  0.00  0.00    -0.159 NA
ATOM     12  C   UNL     1      -0.262   0.002  -2.477  0.00  0.00    +0.271 C 
ATOM     13  O   UNL     1      -0.427   1.200  -2.630  0.00  0.00    -0.268 OA
ATOM     14  S   UNL     1       0.163  -2.494   0.614  0.00  0.00    -0.088 S 
ATOM     15  C   UNL     1      -0.039  -0.810   1.324  0.00  0.00    +0.165 C 
BRANCH  10  16
ATOM     16  C   UNL     1       0.072  -2.952  -4.652  0.00  0.00    +0.232 C 
BRANCH  16  17
ATOM     17  O   UNL     1      -0.074  -2.109  -5.796  0.00  0.00    -0.376 OA
ATOM     18  C   UNL     1      -0.017  -2.806  -7.043  0.00  0.00    +0.194 C 
ENDBRANCH  16  17
ENDBRANCH  10  16
ENDBRANCH   1  15
BRANCH   3  19
ATOM     19  C   UNL     1       2.398  -0.143   4.201  0.00  0.00    +0.093 C 
BRANCH  19  20
ATOM     20  C   UNL     1       2.126  -0.303   5.698  0.00  0.00    -0.020 C 
BRANCH  20  21
ATOM     21  C   UNL     1       1.933  -1.762   6.020  0.00  0.00    -0.058 A 
ATOM     22  C   UNL     1       3.031  -2.588   6.172  0.00  0.00    +0.002 A 
ATOM     23  C   UNL     1       2.855  -3.926   6.468  0.00  0.00    +0.002 A 
ATOM     24  C   UNL     1       1.580  -4.441   6.612  0.00  0.00    +0.020 A 
ATOM     25  C   UNL     1       0.480  -3.615   6.460  0.00  0.00    +0.041 A 
ATOM     26  C   UNL     1       0.658  -2.274   6.170  0.00  0.00    +0.022 A 
ATOM     27 CL   UNL     1      -1.121  -4.260   6.641  0.00  0.00    -0.084 Cl
ENDBRANCH  20  21
BRANCH  20  28
ATOM     28  N   UNL     1       3.267   0.220   6.461  0.00  0.00    +0.385 N 
ATOM     29  C   UNL     1       3.426   1.676   6.211  0.00  0.00    -0.078 C 
ATOM     30  C   UNL     1       4.230   2.161   7.443  0.00  0.00    -0.020 C 
ATOM     31  C   UNL     1       3.641   1.316   8.595  0.00  0.00    -0.020 C 
ATOM     32  C   UNL     1       3.015   0.086   7.912  0.00  0.00    -0.078 C 
ATOM     33  H   UNL     1       4.111  -0.272   6.208  0.00  0.00    -0.081 HD
ENDBRANCH  20  28
ENDBRANCH  19  20
ENDBRANCH   3  19
TORSDOF 7
