REMARK  Name = ZINC20180692
REMARK  5 active torsions:
REMARK  status: ('A' for Active; 'I' for Inactive)
REMARK    1  A    between atoms: N_7  and  C_20
REMARK    2  A    between atoms: C_11  and  C_12
REMARK    3  A    between atoms: C_20  and  C_21
REMARK    4  A    between atoms: N_23  and  C_24
REMARK    5  A    between atoms: C_24  and  C_25
REMARK                            x       y       z     vdW  Elec       q    Type
REMARK                         _______ _______ _______ _____ _____    ______ ____
ROOT
ATOM      1  C   UNL     1       5.364   7.546  -1.847  0.00  0.00    +0.002 A 
ATOM      2  C   UNL     1       4.180   8.204  -1.569  0.00  0.00    +0.004 A 
ATOM      3  C   UNL     1       3.171   7.558  -0.879  0.00  0.00    +0.048 A 
ATOM      4  C   UNL     1       3.346   6.248  -0.465  0.00  0.00    +0.150 A 
ATOM      5  C   UNL     1       4.539   5.583  -0.745  0.00  0.00    +0.080 A 
ATOM      6  C   UNL     1       5.546   6.238  -1.438  0.00  0.00    +0.027 A 
ATOM      7  N   UNL     1       4.720   4.257  -0.332  0.00  0.00    -0.253 N 
ATOM      8  C   UNL     1       3.643   3.551   0.098  0.00  0.00    +0.287 C 
ATOM      9  O   UNL     1       3.746   2.395   0.461  0.00  0.00    -0.266 OA
ATOM     10  C   UNL     1       2.336   4.243   0.104  0.00  0.00    +0.191 C 
ATOM     11  C   UNL     1       1.175   3.559   0.009  0.00  0.00    +0.059 C 
ATOM     12  O   UNL     1       2.355   5.607   0.215  0.00  0.00    -0.449 OA
ENDROOT
BRANCH  11  13
ATOM     13  C   UNL     1       1.192   2.120  -0.299  0.00  0.00    -0.020 A 
ATOM     14  C   UNL     1       2.126   1.606  -1.204  0.00  0.00    +0.008 A 
ATOM     15  C   UNL     1       2.137   0.257  -1.488  0.00  0.00    +0.002 A 
ATOM     16  C   UNL     1       1.226  -0.589  -0.880  0.00  0.00    +0.020 A 
ATOM     17  C   UNL     1       0.298  -0.089   0.018  0.00  0.00    +0.042 A 
ATOM     18  C   UNL     1       0.275   1.260   0.312  0.00  0.00    +0.028 A 
ATOM     19 CL   UNL     1      -0.840  -1.160   0.775  0.00  0.00    -0.084 Cl
ENDBRANCH  11  13
BRANCH   7  20
ATOM     20  C   UNL     1       6.050   3.643  -0.358  0.00  0.00    +0.209 C 
BRANCH  20  21
ATOM     21  C   UNL     1       6.737   3.878   0.962  0.00  0.00    +0.231 C 
ATOM     22  O   UNL     1       6.172   4.497   1.839  0.00  0.00    -0.274 OA
ATOM     23  N   UNL     1       7.981   3.400   1.169  0.00  0.00    -0.310 N 
ATOM     24  H   UNL     1       8.493   2.838   0.374  0.00  0.00    +0.149 HD
BRANCH  23  25
ATOM     25  C   UNL     1       8.649   3.628   2.452  0.00  0.00    +0.152 C 
BRANCH  25  26
ATOM     26  C   UNL     1      10.038   2.987   2.425  0.00  0.00    +0.228 C 
ATOM     27  C   UNL     1      10.732   3.197   3.778  0.00  0.00    +0.275 C 
ATOM     28  O   UNL     1      12.020   2.575   3.723  0.00  0.00    -0.485 OA
ATOM     29  C   UNL     1      12.070   1.318   3.203  0.00  0.00    +0.162 A 
ATOM     30  C   UNL     1      13.185   0.528   3.438  0.00  0.00    +0.049 A 
ATOM     31  C   UNL     1      13.254  -0.748   2.912  0.00  0.00    +0.004 A 
ATOM     32  C   UNL     1      12.211  -1.240   2.148  0.00  0.00    +0.004 A 
ATOM     33  C   UNL     1      11.097  -0.459   1.911  0.00  0.00    +0.049 A 
ATOM     34  C   UNL     1      11.021   0.822   2.438  0.00  0.00    +0.163 A 
ATOM     35  O   UNL     1       9.915   1.579   2.198  0.00  0.00    -0.480 OA
ENDBRANCH  25  26
ENDBRANCH  23  25
ENDBRANCH  20  21
ENDBRANCH   7  20
TORSDOF 5
