REMARK  Name = ZINC40316734
REMARK  6 active torsions:
REMARK  status: ('A' for Active; 'I' for Inactive)
REMARK    1  A    between atoms: C_1  and  C_2
REMARK    2  A    between atoms: C_2  and  C_4
REMARK    3  A    between atoms: C_2  and  N_11
REMARK    4  A    between atoms: N_11  and  S_12
REMARK    5  A    between atoms: S_12  and  C_15
REMARK    6  A    between atoms: C_20  and  N_21
REMARK                            x       y       z     vdW  Elec       q    Type
REMARK                         _______ _______ _______ _____ _____    ______ ____
ROOT
ATOM      1  S   UNL     1      -2.178  -0.845  -1.594  0.00  0.00    +0.061 S 
ATOM      2  O   UNL     1      -3.506  -1.159  -1.198  0.00  0.00    -0.153 OA
ATOM      3  O   UNL     1      -1.886   0.181  -2.533  0.00  0.00    -0.153 OA
ENDROOT
BRANCH   1   4
ATOM      4  C   UNL     1      -1.480  -2.330  -2.237  0.00  0.00    +0.126 A 
ATOM      5  C   UNL     1      -0.846  -2.321  -3.464  0.00  0.00    +0.032 A 
ATOM      6  C   UNL     1      -0.298  -3.485  -3.969  0.00  0.00    +0.022 A 
ATOM      7  C   UNL     1      -0.382  -4.663  -3.248  0.00  0.00    +0.043 A 
ATOM      8  C   UNL     1      -1.016  -4.679  -2.019  0.00  0.00    +0.044 A 
ATOM      9  C   UNL     1      -1.562  -3.509  -1.507  0.00  0.00    +0.053 A 
ATOM     10 CL   UNL     1       0.307  -6.123  -3.886  0.00  0.00    -0.083 Cl
BRANCH   9  11
ATOM     11  N   UNL     1      -2.197  -3.519  -0.263  0.00  0.00    -0.356 N 
ATOM     12  H   UNL     1      -2.641  -2.720   0.061  0.00  0.00    +0.142 HD
ATOM     13  H   UNL     1      -2.193  -4.325   0.277  0.00  0.00    +0.142 HD
ENDBRANCH   9  11
ENDBRANCH   1   4
BRANCH   1  14
ATOM     14  N   UNL     1      -1.347  -0.472  -0.211  0.00  0.00    -0.183 NA
ATOM     15  H   UNL     1      -1.803  -0.477   0.645  0.00  0.00    +0.149 HD
BRANCH  14  17
ATOM     16  C   UNL     1       0.310   1.230   0.374  0.00  0.00    +0.031 C 
ATOM     17  C   UNL     1       0.077  -0.134  -0.281  0.00  0.00    +0.104 C 
BRANCH  17  18
ATOM     18  C   UNL     1       0.878  -1.183   0.445  0.00  0.00    -0.015 A 
ATOM     19  C   UNL     1       0.295  -1.918   1.460  0.00  0.00    +0.006 A 
ATOM     20  C   UNL     1       1.030  -2.881   2.126  0.00  0.00    +0.000 A 
ATOM     21  C   UNL     1       2.349  -3.110   1.777  0.00  0.00    +0.001 A 
ATOM     22  C   UNL     1       2.932  -2.375   0.762  0.00  0.00    +0.015 A 
ATOM     23  C   UNL     1       2.195  -1.415   0.092  0.00  0.00    +0.023 A 
ATOM     24 BR   UNL     1       2.990  -0.414  -1.302  0.00  0.00    -0.050 Br
ENDBRANCH  17  18
ENDBRANCH  14  17
ENDBRANCH   1  14
TORSDOF 5
