REMARK  Name = ZINC63514890
REMARK  12 active torsions:
REMARK  status: ('A' for Active; 'I' for Inactive)
REMARK    1  A    between atoms: C_1  and  C_2
REMARK    2  A    between atoms: C_4  and  O_31
REMARK    3  A    between atoms: C_5  and  C_30
REMARK    4  A    between atoms: C_7  and  S_8
REMARK    5  A    between atoms: S_8  and  N_11
REMARK    6  A    between atoms: N_11  and  C_12
REMARK    7  A    between atoms: C_12  and  C_13
REMARK    8  A    between atoms: C_13  and  C_14
REMARK    9  A    between atoms: C_17  and  O_25
REMARK   10  A    between atoms: C_22  and  C_24
REMARK   11  A    between atoms: O_25  and  C_26
REMARK   12  A    between atoms: O_31  and  C_32
REMARK                            x       y       z     vdW  Elec       q    Type
REMARK                         _______ _______ _______ _____ _____    ______ ____
ROOT
ATOM      1  C   UNL     1       2.784   3.338   2.999  0.00  0.00    +0.050 C 
ENDROOT
BRANCH   1   2
ATOM      2  C   UNL     1       2.930   4.680   2.329  0.00  0.00    -0.037 C 
ATOM      3  C   UNL     1       2.211   5.150   1.285  0.00  0.00    +0.003 A 
ATOM      4  C   UNL     1       1.120   4.577   0.489  0.00  0.00    +0.056 A 
ATOM      5  C   UNL     1       0.581   5.300  -0.522  0.00  0.00    +0.129 A 
ATOM      6  C   UNL     1       1.031   6.593  -0.844  0.00  0.00    +0.048 A 
ATOM      7  C   UNL     1       2.029   7.204  -0.170  0.00  0.00    +0.029 A 
ATOM      8  C   UNL     1       2.684   6.512   0.945  0.00  0.00    +0.043 A 
ATOM      9  N   UNL     1       3.656   6.869   1.747  0.00  0.00    -0.378 N 
ATOM     10  C   UNL     1       3.907   5.776   2.693  0.00  0.00    +0.103 C 
ATOM     11  C   UNL     1       3.660   6.248   4.127  0.00  0.00    +0.035 C 
ATOM     12  H   UNL     1       4.128   7.716   1.722  0.00  0.00    +0.160 HD
BRANCH   5  13
ATOM     13  O   UNL     1      -0.429   4.756  -1.251  0.00  0.00    -0.420 OA
BRANCH  13  14
ATOM     14  C   UNL     1      -0.968   5.553  -2.308  0.00  0.00    +0.489 C 
ATOM     15  F   UNL     1      -1.483   6.742  -1.780  0.00  0.00    -0.149 F 
ATOM     16  F   UNL     1       0.042   5.851  -3.229  0.00  0.00    -0.149 F 
ATOM     17 CL   UNL     1      -2.286   4.642  -3.135  0.00  0.00    +0.000 Cl
ENDBRANCH  13  14
ENDBRANCH   5  13
ENDBRANCH   1   2
BRANCH   1  18
ATOM     18  C   UNL     1       1.671   2.544   2.312  0.00  0.00    +0.110 C 
BRANCH  18  19
ATOM     19  N   UNL     1       1.528   1.240   2.964  0.00  0.00    -0.190 NA
ATOM     20  H   UNL     1       2.234   0.904   3.536  0.00  0.00    +0.148 HD
BRANCH  19  21
ATOM     21  S   UNL     1       0.159   0.340   2.723  0.00  0.00    +0.059 S 
ATOM     22  O   UNL     1       0.289  -0.822   3.530  0.00  0.00    -0.153 OA
ATOM     23  O   UNL     1      -0.042   0.273   1.317  0.00  0.00    -0.153 OA
BRANCH  21  30
ATOM     24  C   UNL     1      -0.134   1.073   5.641  0.00  0.00    +0.046 C 
ATOM     25  C   UNL     1      -1.239   1.547   4.732  0.00  0.00    -0.021 A 
ATOM     26  C   UNL     1      -2.294   2.274   5.249  0.00  0.00    +0.051 A 
ATOM     27  C   UNL     1      -3.311   2.710   4.412  0.00  0.00    +0.123 A 
ATOM     28  C   UNL     1      -3.264   2.416   3.057  0.00  0.00    -0.007 A 
ATOM     29  C   UNL     1      -2.207   1.690   2.545  0.00  0.00    +0.035 A 
ATOM     30  C   UNL     1      -1.192   1.260   3.380  0.00  0.00    +0.109 A 
ATOM     31  C   UNL     1      -4.367   2.889   2.144  0.00  0.00    +0.047 C 
BRANCH  27  32
ATOM     32  O   UNL     1      -4.350   3.425   4.918  0.00  0.00    -0.495 OA
ATOM     33  C   UNL     1      -4.332   3.689   6.322  0.00  0.00    +0.277 C 
ENDBRANCH  27  32
ENDBRANCH  21  30
ENDBRANCH  19  21
ENDBRANCH  18  19
ENDBRANCH   1  18
TORSDOF 8
