REMARK  Name = ZINC09816982
REMARK  6 active torsions:
REMARK  status: ('A' for Active; 'I' for Inactive)
REMARK    1  A    between atoms: C_1  and  C_2
REMARK    2  A    between atoms: N_10  and  N_14
REMARK    3  A    between atoms: C_15  and  C_17
REMARK    4  A    between atoms: C_17  and  O_18
REMARK    5  A    between atoms: O_18  and  C_19
REMARK    6  A    between atoms: C_19  and  C_21
REMARK                            x       y       z     vdW  Elec       q    Type
REMARK                         _______ _______ _______ _____ _____    ______ ____
ROOT
ATOM      1  N   UNL     1      -2.606  -4.054   0.005  0.00  0.00    -0.221 N 
ATOM      2  C   UNL     1      -2.448  -2.715   0.011  0.00  0.00    +0.267 C 
ATOM      3  O   UNL     1      -3.419  -1.990   0.024  0.00  0.00    -0.271 OA
ATOM      4  H   UNL     1      -1.829  -4.634  -0.005  0.00  0.00    +0.174 HD
ENDROOT
BRANCH   1  14
ATOM      5  C   UNL     1      -9.824  -7.315  -0.502  0.00  0.00    +0.007 C 
ATOM      6  C   UNL     1      -8.452  -6.865  -1.009  0.00  0.00    -0.014 C 
ATOM      7  C   UNL     1      -8.316  -5.351  -0.835  0.00  0.00    +0.006 C 
ATOM      8  C   UNL     1      -6.948  -4.900  -1.354  0.00  0.00    +0.035 C 
ATOM      9  C   UNL     1      -5.846  -5.619  -0.582  0.00  0.00    +0.114 C 
ATOM     10  C   UNL     1      -5.984  -7.130  -0.726  0.00  0.00    +0.035 C 
ATOM     11  C   UNL     1      -7.356  -7.572  -0.210  0.00  0.00    +0.006 C 
ATOM     12  C   UNL     1      -4.486  -5.166  -1.061  0.00  0.00    +0.263 C 
ATOM     13  O   UNL     1      -4.025  -5.280  -2.176  0.00  0.00    -0.271 OA
ATOM     14  N   UNL     1      -3.893  -4.607   0.015  0.00  0.00    -0.137 N 
ATOM     15  C   UNL     1      -4.685  -4.651   1.093  0.00  0.00    +0.326 C 
ATOM     16  O   UNL     1      -4.369  -4.215   2.182  0.00  0.00    -0.251 OA
ATOM     17  N   UNL     1      -5.873  -5.231   0.834  0.00  0.00    -0.284 N 
ATOM     18  H   UNL     1      -6.600  -5.370   1.461  0.00  0.00    +0.151 HD
ENDBRANCH   1  14
BRANCH   2  19
ATOM     19  C   UNL     1      -1.063  -2.120   0.001  0.00  0.00    +0.329 C 
BRANCH  19  20
ATOM     20  O   UNL     1      -1.157  -0.695   0.009  0.00  0.00    -0.451 OA
BRANCH  20  21
ATOM     21  C   UNL     1       0.002  -0.004   0.002  0.00  0.00    +0.346 C 
ATOM     22  O   UNL     1       1.064  -0.598  -0.011  0.00  0.00    -0.244 OA
BRANCH  21  23
ATOM     23  C   UNL     1      -0.018   1.458   0.010  0.00  0.00    +0.097 A 
ATOM     24  C   UNL     1       1.052   2.345   0.005  0.00  0.00    +0.030 A 
ATOM     25  C   UNL     1       0.812   3.693   0.015  0.00  0.00    +0.005 A 
ATOM     26  C   UNL     1      -0.537   4.083   0.027  0.00  0.00    +0.030 A 
ATOM     27  S   UNL     1      -1.425   2.562   0.021  0.00  0.00    -0.081 S 
ATOM     28  C   UNL     1      -0.945   5.482   0.032  0.00  0.00    +0.031 A 
ATOM     29  C   UNL     1      -2.232   5.916   0.306  0.00  0.00    +0.012 A 
ATOM     30  C   UNL     1      -2.513   7.269   0.302  0.00  0.00    +0.001 A 
ATOM     31  C   UNL     1      -1.513   8.185   0.025  0.00  0.00    +0.004 A 
ATOM     32  C   UNL     1      -0.227   7.763  -0.256  0.00  0.00    +0.046 A 
ATOM     33  C   UNL     1       0.075   6.414  -0.266  0.00  0.00    +0.129 A 
ATOM     34  O   UNL     1       1.314   5.971  -0.581  0.00  0.00    -0.487 OA
ATOM     35  C   UNL     1       1.861   4.800   0.022  0.00  0.00    +0.265 C 
ENDBRANCH  21  23
ENDBRANCH  20  21
ENDBRANCH  19  20
ENDBRANCH   2  19
TORSDOF 5
