REMARK  Name = ZINC14680299
REMARK  9 active torsions:
REMARK  status: ('A' for Active; 'I' for Inactive)
REMARK    1  A    between atoms: C_1  and  C_2
REMARK    2  A    between atoms: C_2  and  N_3
REMARK    3  A    between atoms: N_3  and  C_4
REMARK    4  A    between atoms: C_5  and  N_20
REMARK    5  A    between atoms: N_6  and  C_13
REMARK    6  A    between atoms: C_13  and  C_14
REMARK    7  A    between atoms: C_21  and  C_23
REMARK    8  A    between atoms: C_23  and  S_24
REMARK    9  A    between atoms: S_24  and  C_25
REMARK                            x       y       z     vdW  Elec       q    Type
REMARK                         _______ _______ _______ _____ _____    ______ ____
ROOT
ATOM      1  C   UNL     1       1.160   2.937   0.046  0.00  0.00    +0.140 A 
ATOM      2  C   UNL     1       0.749   2.269   1.181  0.00  0.00    +0.128 A 
ATOM      3  N   UNL     1      -0.425   1.551   1.149  0.00  0.00    -0.276 N 
ATOM      4  C   UNL     1      -1.165   1.506   0.027  0.00  0.00    +0.331 A 
ATOM      5  O   UNL     1      -2.201   0.870   0.021  0.00  0.00    -0.246 OA
ATOM      6  N   UNL     1      -0.777   2.146  -1.090  0.00  0.00    -0.273 N 
ATOM      7  H   UNL     1      -1.342   2.090  -1.914  0.00  0.00    +0.173 HD
ATOM      8  C   UNL     1       0.364   2.863  -1.113  0.00  0.00    +0.277 A 
ATOM      9  O   UNL     1       0.704   3.443  -2.130  0.00  0.00    -0.266 OA
ENDROOT
BRANCH   1  10
ATOM     10  N   UNL     1       2.359   3.681   0.046  0.00  0.00    -0.264 N 
ATOM     11  C   UNL     1       2.319   5.023  -0.093  0.00  0.00    +0.230 C 
ATOM     12  O   UNL     1       1.252   5.598  -0.129  0.00  0.00    -0.274 OA
BRANCH  10  14
ATOM     13  C   UNL     1       4.247   2.731  -1.183  0.00  0.00    +0.025 C 
ATOM     14  C   UNL     1       3.646   2.998   0.198  0.00  0.00    +0.110 C 
ENDBRANCH  10  14
BRANCH  11  15
ATOM     15  C   UNL     1       3.602   5.807  -0.205  0.00  0.00    +0.170 C 
BRANCH  15  16
ATOM     16  S   UNL     1       3.218   7.571  -0.381  0.00  0.00    -0.116 S 
BRANCH  16  17
ATOM     17  C   UNL     1       4.799   8.341  -0.497  0.00  0.00    +0.009 A 
ATOM     18  C   UNL     1       5.958   7.557  -0.436  0.00  0.00    +0.015 A 
ATOM     19  C   UNL     1       7.190   8.123  -0.530  0.00  0.00    +0.009 A 
ATOM     20  C   UNL     1       7.311   9.517  -0.678  0.00  0.00    -0.018 A 
ATOM     21  C   UNL     1       8.572  10.130  -0.770  0.00  0.00    +0.008 A 
ATOM     22  C   UNL     1       8.656  11.481  -0.913  0.00  0.00    +0.001 A 
ATOM     23  C   UNL     1       7.509  12.270  -0.969  0.00  0.00    +0.001 A 
ATOM     24  C   UNL     1       6.271  11.711  -0.883  0.00  0.00    +0.008 A 
ATOM     25  C   UNL     1       6.144  10.319  -0.735  0.00  0.00    -0.017 A 
ATOM     26  C   UNL     1       4.883   9.709  -0.642  0.00  0.00    +0.023 A 
ENDBRANCH  16  17
ENDBRANCH  15  16
ENDBRANCH  11  15
ENDBRANCH   1  10
BRANCH   2  27
ATOM     27  N   UNL     1       1.502   2.319   2.329  0.00  0.00    -0.343 N 
ATOM     28  H   UNL     1       2.349   2.792   2.333  0.00  0.00    +0.144 HD
ATOM     29  H   UNL     1       1.187   1.883   3.136  0.00  0.00    +0.144 HD
ENDBRANCH   2  27
BRANCH   3  30
ATOM     30  C   UNL     1      -0.874   0.837   2.347  0.00  0.00    +0.163 C 
BRANCH  30  31
ATOM     31  C   UNL     1      -1.744   1.746   3.177  0.00  0.00    -0.028 A 
ATOM     32  C   UNL     1      -1.177   2.544   4.153  0.00  0.00    +0.005 A 
ATOM     33  C   UNL     1      -1.975   3.381   4.911  0.00  0.00    +0.000 A 
ATOM     34  C   UNL     1      -3.341   3.412   4.699  0.00  0.00    +0.000 A 
ATOM     35  C   UNL     1      -3.908   2.610   3.727  0.00  0.00    +0.000 A 
ATOM     36  C   UNL     1      -3.110   1.777   2.966  0.00  0.00    +0.005 A 
ENDBRANCH  30  31
ENDBRANCH   3  30
TORSDOF 8
