REMARK  Name = ZINC38659577
REMARK  15 active torsions:
REMARK  status: ('A' for Active; 'I' for Inactive)
REMARK    1  A    between atoms: C_1  and  C_2
REMARK    2  A    between atoms: C_2  and  O_3
REMARK    3  A    between atoms: O_3  and  C_4
REMARK    4  A    between atoms: C_7  and  C_12
REMARK    5  A    between atoms: C_9  and  O_10
REMARK    6  A    between atoms: O_10  and  C_11
REMARK    7  A    between atoms: C_17  and  O_26
REMARK    8  A    between atoms: C_21  and  N_25
REMARK    9  A    between atoms: C_22  and  C_23
REMARK   10  A    between atoms: O_26  and  C_27
REMARK   11  A    between atoms: C_27  and  C_29
REMARK   12  A    between atoms: C_32  and  O_35
REMARK   13  A    between atoms: O_35  and  C_36
REMARK   14  A    between atoms: C_36  and  C_37
REMARK   15  A    between atoms: C_36  and  C_38
REMARK                            x       y       z     vdW  Elec       q    Type
REMARK                         _______ _______ _______ _____ _____    ______ ____
ROOT
ATOM      1  C   UNL     1      -2.313  -5.826   0.259  0.00  0.00    +0.098 C 
ATOM      2  C   UNL     1      -1.627  -6.438   1.451  0.00  0.00    +0.008 A 
ATOM      3  C   UNL     1      -2.228  -6.362   2.695  0.00  0.00    +0.012 A 
ATOM      4  C   UNL     1      -1.613  -6.917   3.800  0.00  0.00    +0.047 A 
ATOM      5  C   UNL     1      -0.388  -7.555   3.664  0.00  0.00    +0.135 A 
ATOM      6  C   UNL     1       0.217  -7.633   2.420  0.00  0.00    +0.093 A 
ATOM      7  C   UNL     1      -0.403  -7.073   1.310  0.00  0.00    +0.138 A 
ATOM      8  O   UNL     1       0.201  -7.158   0.099  0.00  0.00    -0.441 OA
ATOM      9  C   UNL     1      -0.518  -6.986  -1.022  0.00  0.00    +0.199 C 
ATOM     10  C   UNL     1      -1.716  -6.362  -1.012  0.00  0.00    +0.098 C 
ENDROOT
BRANCH   1  14
ATOM     11  C   UNL     1      -1.822  -1.579   0.369  0.00  0.00    +0.162 A 
ATOM     12  C   UNL     1      -0.712  -2.406   0.304  0.00  0.00    +0.050 A 
ATOM     13  C   UNL     1      -0.874  -3.779   0.269  0.00  0.00    +0.008 A 
ATOM     14  C   UNL     1      -2.142  -4.329   0.298  0.00  0.00    -0.031 A 
ATOM     15  C   UNL     1      -3.254  -3.510   0.362  0.00  0.00    +0.054 A 
ATOM     16  C   UNL     1      -3.098  -2.133   0.404  0.00  0.00    +0.162 A 
BRANCH  16  17
ATOM     17  O   UNL     1      -4.190  -1.326   0.473  0.00  0.00    -0.491 OA
ATOM     18  C   UNL     1      -5.468  -1.964   0.506  0.00  0.00    +0.277 C 
ENDBRANCH  16  17
BRANCH  11  19
ATOM     19  O   UNL     1      -1.665  -0.229   0.404  0.00  0.00    -0.489 OA
BRANCH  19  21
ATOM     20  C   UNL     1      -0.349   1.798   0.413  0.00  0.00    +0.048 C 
ATOM     21  C   UNL     1      -0.326   0.269   0.365  0.00  0.00    +0.226 C 
ENDBRANCH  19  21
ENDBRANCH  11  19
ENDBRANCH   1  14
BRANCH   9  22
ATOM     22  N   UNL     1      -0.020  -7.457  -2.211  0.00  0.00    -0.328 N 
ATOM     23  H   UNL     1       0.839  -7.906  -2.234  0.00  0.00    +0.145 HD
ATOM     24  H   UNL     1      -0.528  -7.340  -3.030  0.00  0.00    +0.145 HD
ENDBRANCH   9  22
BRANCH  10  25
ATOM     25  C   UNL     1      -2.433  -6.210  -2.242  0.00  0.00    +0.101 C 
ATOM     26  N   UNL     1      -3.002  -6.089  -3.219  0.00  0.00    -0.191 NA
ENDBRANCH  10  25
BRANCH   5  27
ATOM     27  O   UNL     1       0.219  -8.102   4.751  0.00  0.00    -0.422 OA
BRANCH  27  28
ATOM     28  C   UNL     1      -0.365  -9.169   5.331  0.00  0.00    +0.344 C 
ATOM     29  O   UNL     1      -1.347  -9.674   4.824  0.00  0.00    -0.245 OA
BRANCH  28  30
ATOM     30  C   UNL     1       0.189  -9.724   6.580  0.00  0.00    +0.060 A 
ATOM     31  C   UNL     1       1.315  -9.141   7.167  0.00  0.00    +0.018 A 
ATOM     32  C   UNL     1       1.829  -9.662   8.334  0.00  0.00    +0.046 A 
ATOM     33  C   UNL     1       1.228 -10.767   8.927  0.00  0.00    +0.121 A 
ATOM     34  C   UNL     1       0.108 -11.350   8.346  0.00  0.00    +0.046 A 
ATOM     35  C   UNL     1      -0.415 -10.831   7.183  0.00  0.00    +0.018 A 
BRANCH  33  36
ATOM     36  O   UNL     1       1.737 -11.277  10.077  0.00  0.00    -0.489 OA
BRANCH  36  37
ATOM     37  C   UNL     1       2.840 -10.583  10.662  0.00  0.00    +0.167 C 
ATOM     38  C   UNL     1       2.320  -9.409  11.495  0.00  0.00    +0.051 C 
ATOM     39  C   UNL     1       3.625 -11.539  11.563  0.00  0.00    +0.051 C 
ENDBRANCH  36  37
ENDBRANCH  33  36
ENDBRANCH  28  30
ENDBRANCH  27  28
ENDBRANCH   5  27
TORSDOF 11
