REMARK  Name = ZINC01631640
REMARK  4 active torsions:
REMARK  status: ('A' for Active; 'I' for Inactive)
REMARK    1  A    between atoms: N_16  and  CA_17
REMARK    2  A    between atoms: CA_17  and  CB_19
REMARK    3  A    between atoms: CA_17  and  C_21
REMARK    4  A    between atoms: CB_19  and  OG_20
REMARK                            x       y       z     vdW  Elec       q    Type
REMARK                         _______ _______ _______ _____ _____    ______ ____
ROOT
ATOM      1  C   UNK A   0       1.425   4.971   6.849  0.00  0.00    +0.001 A 
ATOM      2  C   UNK A   0       2.300   4.454   5.906  0.00  0.00    +0.002 A 
ATOM      3  C   UNK A   0       1.974   4.468   4.567  0.00  0.00    +0.027 A 
ATOM      4  C   UNK A   0       0.757   4.998   4.151  0.00  0.00    +0.059 A 
ATOM      5  C   UNK A   0      -0.123   5.525   5.106  0.00  0.00    +0.008 A 
ATOM      6  C   UNK A   0       0.217   5.505   6.456  0.00  0.00    +0.010 A 
ATOM      7  C   UNK A   0      -1.304   6.011   4.366  0.00  0.00    +0.008 A 
ATOM      8  C   UNK A   0      -2.494   6.620   4.758  0.00  0.00    +0.010 A 
ATOM      9  C   UNK A   0      -3.431   6.967   3.808  0.00  0.00    +0.001 A 
ATOM     10  C   UNK A   0      -3.192   6.712   2.466  0.00  0.00    +0.002 A 
ATOM     11  C   UNK A   0      -2.018   6.109   2.066  0.00  0.00    +0.027 A 
ATOM     12  C   UNK A   0      -1.061   5.752   3.010  0.00  0.00    +0.059 A 
ATOM     13  N   UNK A   0       0.183   5.147   2.896  0.00  0.00    -0.264 N 
ATOM     14  C   UNK A   0       0.748   4.755   1.737  0.00  0.00    +0.320 C 
ATOM     15  O   UNK A   0       1.454   5.525   1.115  0.00  0.00    -0.249 OA
ATOM     16  N   SER A   1       0.530   3.511   1.268  0.00  0.00    -0.282 N 
ATOM     17  H   SER A   1      -0.033   2.897   1.764  0.00  0.00    +0.151 HD
ENDROOT
BRANCH  16  18
ATOM     18  CA  SER A   1       1.145   3.085   0.008  0.00  0.00    +0.213 C 
BRANCH  18  19
ATOM     19  C   SER A   1       0.276   3.516  -1.146  0.00  0.00    +0.378 C 
ATOM     20  O   SER A   1      -0.751   4.117  -0.936  0.00  0.00    -0.244 OA
ATOM     21  OXT SER A   1       0.643   3.232  -2.405  0.00  0.00    -0.244 OA
ENDBRANCH  18  19
BRANCH  18  22
ATOM     22  CB  SER A   1       1.286   1.562  -0.002  0.00  0.00    +0.189 C 
BRANCH  22  23
ATOM     23  OG  SER A   1      -0.011   0.963   0.007  0.00  0.00    -0.393 OA
ATOM     24  H   SER A   1       0.002  -0.004   0.002  0.00  0.00    +0.209 HD
ENDBRANCH  22  23
ENDBRANCH  18  22
ENDBRANCH  16  18
TORSDOF 4
