REMARK  Name = ZINC11449733
REMARK  5 active torsions:
REMARK  status: ('A' for Active; 'I' for Inactive)
REMARK    1  A    between atoms: C_1  and  C_2
REMARK    2  A    between atoms: C_10  and  C_11
REMARK    3  A    between atoms: C_16  and  N_19
REMARK    4  A    between atoms: N_19  and  S_20
REMARK    5  A    between atoms: S_20  and  C_23
REMARK                            x       y       z     vdW  Elec       q    Type
REMARK                         _______ _______ _______ _____ _____    ______ ____
ROOT
ATOM      1  C   UNL     1      -3.530   6.132  -3.340  0.00  0.00    +0.282 C 
ATOM      2  O   UNL     1      -3.542   5.748  -4.494  0.00  0.00    -0.267 OA
ATOM      3  N   UNL     1      -2.360   6.247  -2.681  0.00  0.00    -0.295 N 
ATOM      4  C   UNL     1      -1.105   5.795  -3.298  0.00  0.00    +0.110 C 
ATOM      5  C   UNL     1      -0.407   4.823  -2.341  0.00  0.00    +0.039 C 
ATOM      6  C   UNL     1      -0.230   5.494  -0.978  0.00  0.00    +0.080 C 
ATOM      7  C   UNL     1      -1.603   5.841  -0.396  0.00  0.00    +0.039 C 
ATOM      8  C   UNL     1      -2.315   6.825  -1.331  0.00  0.00    +0.110 C 
ENDROOT
BRANCH   1  18
ATOM      9  C   UNL     1      -6.011   7.401  -4.719  0.00  0.00    +0.048 C 
ATOM     10  C   UNL     1      -5.874   7.025  -3.266  0.00  0.00    +0.008 A 
ATOM     11  C   UNL     1      -6.882   7.183  -2.218  0.00  0.00    +0.025 A 
ATOM     12  C   UNL     1      -8.187   7.683  -2.189  0.00  0.00    +0.027 A 
ATOM     13  C   UNL     1      -8.882   7.692  -1.012  0.00  0.00    +0.019 A 
ATOM     14  C   UNL     1      -8.301   7.207   0.153  0.00  0.00    +0.019 A 
ATOM     15  C   UNL     1      -7.016   6.710   0.144  0.00  0.00    +0.048 A 
ATOM     16  C   UNL     1      -6.289   6.691  -1.041  0.00  0.00    +0.136 A 
ATOM     17  O   UNL     1      -5.047   6.273  -1.355  0.00  0.00    -0.450 OA
ATOM     18  C   UNL     1      -4.790   6.471  -2.665  0.00  0.00    +0.194 A 
ATOM     19 BR   UNL     1     -10.647   8.369  -0.969  0.00  0.00    -0.050 Br
ENDBRANCH   1  18
BRANCH   6  20
ATOM     20  N   UNL     1       0.467   4.580  -0.070  0.00  0.00    -0.186 NA
ATOM     21  H   UNL     1       0.306   3.625  -0.126  0.00  0.00    +0.148 HD
BRANCH  20  22
ATOM     22  S   UNL     1       1.529   5.176   1.051  0.00  0.00    +0.065 S 
ATOM     23  O   UNL     1       2.013   4.060   1.786  0.00  0.00    -0.153 OA
ATOM     24  O   UNL     1       2.394   6.065   0.358  0.00  0.00    -0.153 OA
BRANCH  22  25
ATOM     25  C   UNL     1       0.599   6.157   2.181  0.00  0.00    +0.142 A 
ATOM     26  C   UNL     1      -0.013   5.785   3.332  0.00  0.00    +0.036 A 
ATOM     27  C   UNL     1      -0.695   6.737   4.067  0.00  0.00    +0.010 A 
ATOM     28  C   UNL     1      -0.731   8.014   3.615  0.00  0.00    +0.047 A 
ATOM     29  S   UNL     1       0.224   7.901   2.111  0.00  0.00    -0.077 S 
ENDBRANCH  22  25
ENDBRANCH  20  22
ENDBRANCH   6  20
TORSDOF 4
