REMARK  Name = ZINC39743025
REMARK  5 active torsions:
REMARK  status: ('A' for Active; 'I' for Inactive)
REMARK    1  A    between atoms: C_1  and  N_2
REMARK    2  A    between atoms: C_3  and  C_23
REMARK    3  A    between atoms: C_7  and  S_9
REMARK    4  A    between atoms: S_9  and  C_10
REMARK    5  A    between atoms: C_10  and  C_11
REMARK                            x       y       z     vdW  Elec       q    Type
REMARK                         _______ _______ _______ _____ _____    ______ ____
ROOT
ATOM      1  C   UNL     1      -0.095   1.502   0.121  0.00  0.00    +0.109 C 
ATOM      2  N   UNL     1       0.027   0.048  -0.047  0.00  0.00    -0.260 NA
ATOM      3  C   UNL     1      -1.288  -0.613   0.087  0.00  0.00    +0.172 C 
ATOM      4  N   UNL     1      -1.165  -1.573   1.208  0.00  0.00    -0.233 NA
ATOM      5  N   UNL     1      -0.057  -1.048   2.021  0.00  0.00    -0.229 NA
ATOM      6  C   UNL     1       0.895  -0.537   1.000  0.00  0.00    +0.200 C 
ATOM      7  H   UNL     1      -2.019  -1.614   1.744  0.00  0.00    +0.143 HD
ATOM      8  H   UNL     1       0.364  -1.780   2.574  0.00  0.00    +0.143 HD
ENDROOT
BRANCH   3   9
ATOM      9  C   UNL     1      -1.631  -1.344  -1.186  0.00  0.00    -0.001 A 
ATOM     10  C   UNL     1      -1.073  -0.943  -2.385  0.00  0.00    +0.007 A 
ATOM     11  C   UNL     1      -1.387  -1.613  -3.552  0.00  0.00    +0.000 A 
ATOM     12  C   UNL     1      -2.259  -2.686  -3.520  0.00  0.00    +0.001 A 
ATOM     13  C   UNL     1      -2.818  -3.087  -2.322  0.00  0.00    +0.015 A 
ATOM     14  C   UNL     1      -2.500  -2.420  -1.153  0.00  0.00    +0.024 A 
ATOM     15 BR   UNL     1      -3.258  -2.973   0.489  0.00  0.00    -0.050 Br
ENDBRANCH   3   9
BRANCH   6  16
ATOM     16  S   UNL     1       1.971   0.736   1.717  0.00  0.00    -0.117 S 
BRANCH  16  17
ATOM     17  C   UNL     1       3.241  -0.210   2.602  0.00  0.00    +0.146 C 
BRANCH  17  18
ATOM     18  C   UNL     1       4.209   0.740   3.258  0.00  0.00    +0.120 A 
ATOM     19  N   UNL     1       5.242   0.219   3.969  0.00  0.00    -0.310 N 
ATOM     20  H   UNL     1       5.338  -0.744   4.042  0.00  0.00    +0.170 HD
ATOM     21  C   UNL     1       6.140   1.030   4.577  0.00  0.00    +0.259 A 
ATOM     22  O   UNL     1       7.071   0.576   5.216  0.00  0.00    -0.267 OA
ATOM     23  C   UNL     1       5.946   2.480   4.434  0.00  0.00    +0.065 A 
ATOM     24  C   UNL     1       6.813   3.401   5.020  0.00  0.00    +0.015 A 
ATOM     25  C   UNL     1       6.584   4.749   4.854  0.00  0.00    +0.001 A 
ATOM     26  C   UNL     1       5.500   5.195   4.110  0.00  0.00    +0.002 A 
ATOM     27  C   UNL     1       4.632   4.302   3.523  0.00  0.00    +0.028 A 
ATOM     28  C   UNL     1       4.843   2.930   3.676  0.00  0.00    +0.078 A 
ATOM     29  N   UNL     1       4.016   2.016   3.110  0.00  0.00    -0.233 NA
ENDBRANCH  17  18
ENDBRANCH  16  17
ENDBRANCH   6  16
TORSDOF 4
