REMARK  Name = ZINC45257822
REMARK  12 active torsions:
REMARK  status: ('A' for Active; 'I' for Inactive)
REMARK    1  A    between atoms: C_1  and  O_2
REMARK    2  A    between atoms: O_2  and  C_3
REMARK    3  A    between atoms: C_6  and  N_9
REMARK    4  A    between atoms: C_10  and  C_31
REMARK    5  A    between atoms: C_12  and  C_18
REMARK    6  A    between atoms: C_18  and  O_20
REMARK    7  A    between atoms: O_20  and  C_21
REMARK    8  A    between atoms: C_21  and  C_22
REMARK    9  A    between atoms: N_27  and  C_28
REMARK   10  A    between atoms: C_28  and  C_29
REMARK   11  A    between atoms: C_36  and  O_37
REMARK   12  A    between atoms: O_37  and  C_38
REMARK                            x       y       z     vdW  Elec       q    Type
REMARK                         _______ _______ _______ _____ _____    ______ ____
ROOT
ATOM      1  N   UNL     1       1.427  -2.829  -4.627  0.00  0.00    -0.263 N 
ATOM      2  C   UNL     1       1.736  -4.249  -4.743  0.00  0.00    +0.129 C 
ATOM      3  C   UNL     1       2.894  -4.468  -5.717  0.00  0.00    +0.123 C 
ATOM      4  C   UNL     1       4.050  -3.541  -5.322  0.00  0.00    +0.026 C 
ATOM      5  C   UNL     1       3.619  -2.094  -5.576  0.00  0.00    +0.097 C 
ATOM      6  C   UNL     1       2.263  -1.851  -4.979  0.00  0.00    +0.220 C 
ATOM      7  O   UNL     1       1.910  -0.704  -4.804  0.00  0.00    -0.275 OA
ENDROOT
BRANCH   1  11
ATOM      8  C   UNL     1      -2.309  -1.757  -3.117  0.00  0.00    +0.120 A 
ATOM      9  C   UNL     1      -1.449  -2.532  -2.353  0.00  0.00    +0.047 A 
ATOM     10  C   UNL     1      -0.211  -2.887  -2.853  0.00  0.00    +0.027 A 
ATOM     11  C   UNL     1       0.172  -2.469  -4.120  0.00  0.00    +0.037 A 
ATOM     12  C   UNL     1      -0.690  -1.694  -4.884  0.00  0.00    +0.027 A 
ATOM     13  C   UNL     1      -1.929  -1.344  -4.386  0.00  0.00    +0.047 A 
BRANCH   8  15
ATOM     14  C   UNL     1      -3.853  -1.868  -1.312  0.00  0.00    +0.277 C 
ATOM     15  O   UNL     1      -3.527  -1.408  -2.625  0.00  0.00    -0.495 OA
ENDBRANCH   8  15
ENDBRANCH   1  11
BRANCH   2  16
ATOM     16  C   UNL     1       0.520  -4.984  -5.247  0.00  0.00    +0.016 A 
ATOM     17  C   UNL     1       0.097  -6.136  -4.614  0.00  0.00    +0.009 A 
ATOM     18  C   UNL     1      -1.018  -6.811  -5.077  0.00  0.00    +0.001 A 
ATOM     19  C   UNL     1      -1.712  -6.333  -6.174  0.00  0.00    +0.004 A 
ATOM     20  C   UNL     1      -1.293  -5.181  -6.810  0.00  0.00    +0.046 A 
ATOM     21  C   UNL     1      -0.177  -4.500  -6.344  0.00  0.00    +0.125 A 
BRANCH  21  22
ATOM     22  O   UNL     1       0.234  -3.363  -6.965  0.00  0.00    -0.495 OA
ATOM     23  C   UNL     1      -0.533  -2.923  -8.088  0.00  0.00    +0.277 C 
ENDBRANCH  21  22
ENDBRANCH   2  16
BRANCH   3  24
ATOM     24  C   UNL     1       3.346  -5.903  -5.651  0.00  0.00    +0.313 C 
ATOM     25  O   UNL     1       3.333  -6.493  -4.596  0.00  0.00    -0.250 OA
BRANCH  24  26
ATOM     26  O   UNL     1       3.765  -6.527  -6.763  0.00  0.00    -0.455 OA
BRANCH  26  27
ATOM     27  C   UNL     1       4.180  -7.888  -6.626  0.00  0.00    +0.328 C 
BRANCH  27  28
ATOM     28  C   UNL     1       4.613  -8.418  -7.969  0.00  0.00    +0.258 C 
ATOM     29  O   UNL     1       4.571  -7.702  -8.946  0.00  0.00    -0.272 OA
ATOM     30  N   UNL     1       5.048  -9.689  -8.083  0.00  0.00    -0.237 N 
ATOM     31  C   UNL     1       5.435 -10.163  -9.284  0.00  0.00    +0.306 C 
ATOM     32  O   UNL     1       5.393  -9.445 -10.264  0.00  0.00    -0.252 OA
ATOM     33  N   UNL     1       5.870 -11.434  -9.398  0.00  0.00    -0.296 N 
ATOM     34  H   UNL     1       5.082 -10.262  -7.302  0.00  0.00    +0.159 HD
ATOM     35  H   UNL     1       5.903 -12.007  -8.617  0.00  0.00    +0.151 HD
BRANCH  33  36
ATOM     36  C   UNL     1       6.291 -11.949 -10.704  0.00  0.00    +0.132 C 
BRANCH  36  37
ATOM     37  C   UNL     1       6.728 -13.384 -10.560  0.00  0.00    -0.016 C 
ATOM     38  C   UNL     1       6.181 -14.313 -11.303  0.00  0.00    +0.005 C 
ENDBRANCH  36  37
ENDBRANCH  33  36
ENDBRANCH  27  28
ENDBRANCH  26  27
ENDBRANCH  24  26
ENDBRANCH   3  24
TORSDOF 10
