REMARK  Name = ZINC09253681
REMARK  6 active torsions:
REMARK  status: ('A' for Active; 'I' for Inactive)
REMARK    1  A    between atoms: C_1  and  C_2
REMARK    2  A    between atoms: C_2  and  O_3
REMARK    3  A    between atoms: O_3  and  C_4
REMARK    4  A    between atoms: C_7  and  C_10
REMARK    5  A    between atoms: N_20  and  C_23
REMARK    6  A    between atoms: C_32  and  C_34
REMARK                            x       y       z     vdW  Elec       q    Type
REMARK                         _______ _______ _______ _____ _____    ______ ____
ROOT
ATOM      1  C   UNL     1      -2.990  -4.330   1.105  0.00  0.00    +0.132 C 
ATOM      2  C   UNL     1      -2.952  -5.522   2.080  0.00  0.00    +0.082 C 
ATOM      3  C   UNL     1      -4.299  -6.187   1.909  0.00  0.00    +0.041 C 
ATOM      4  C   UNL     1      -4.734  -7.316   2.586  0.00  0.00    +0.120 C 
ATOM      5  C   UNL     1      -3.885  -7.989   3.579  0.00  0.00    +0.278 C 
ATOM      6  O   UNL     1      -2.650  -7.524   3.860  0.00  0.00    -0.268 OA
ATOM      7  N   UNL     1      -4.359  -9.062   4.191  0.00  0.00    -0.123 NA
ATOM      8  C   UNL     1      -5.572  -9.543   3.934  0.00  0.00    +0.340 C 
ATOM      9  O   UNL     1      -5.939 -10.535   4.539  0.00  0.00    -0.250 OA
ATOM     10  N   UNL     1      -6.414  -8.994   3.046  0.00  0.00    -0.188 N 
ATOM     11  C   UNL     1      -6.070  -7.891   2.348  0.00  0.00    +0.265 C 
ATOM     12  O   UNL     1      -6.835  -7.389   1.546  0.00  0.00    -0.269 OA
ATOM     13  N   UNL     1      -5.004  -5.507   0.996  0.00  0.00    -0.264 N 
ATOM     14  N   UNL     1      -4.314  -4.410   0.475  0.00  0.00    -0.215 N 
ATOM     15  C   UNL     1      -4.788  -3.559  -0.456  0.00  0.00    +0.229 C 
ATOM     16  O   UNL     1      -4.101  -2.635  -0.838  0.00  0.00    -0.274 OA
ATOM     17  C   UNL     1      -6.170  -3.755  -1.024  0.00  0.00    +0.111 C 
ATOM     18  H   UNL     1      -5.902  -5.752   0.722  0.00  0.00    +0.170 HD
ENDROOT
BRANCH  10  19
ATOM     19  C   UNL     1      -7.675  -9.572   2.842  0.00  0.00    +0.046 A 
ATOM     20  C   UNL     1      -7.841 -10.556   1.877  0.00  0.00    +0.025 A 
ATOM     21  C   UNL     1      -9.084 -11.125   1.678  0.00  0.00    +0.022 A 
ATOM     22  C   UNL     1     -10.163 -10.715   2.441  0.00  0.00    +0.041 A 
ATOM     23  C   UNL     1     -10.000  -9.734   3.404  0.00  0.00    +0.022 A 
ATOM     24  C   UNL     1      -8.758  -9.167   3.610  0.00  0.00    +0.025 A 
ATOM     25 CL   UNL     1     -11.724 -11.431   2.189  0.00  0.00    -0.084 Cl
ENDBRANCH  10  19
BRANCH   1  29
ATOM     26  C   UNL     1      -2.570  -0.648   3.234  0.00  0.00    +0.121 A 
ATOM     27  C   UNL     1      -1.486  -1.186   2.556  0.00  0.00    +0.046 A 
ATOM     28  C   UNL     1      -1.624  -2.377   1.869  0.00  0.00    +0.009 A 
ATOM     29  C   UNL     1      -2.841  -3.032   1.856  0.00  0.00    -0.025 A 
ATOM     30  C   UNL     1      -3.924  -2.497   2.531  0.00  0.00    +0.009 A 
ATOM     31  C   UNL     1      -3.789  -1.310   3.224  0.00  0.00    +0.046 A 
BRANCH  26  32
ATOM     32  O   UNL     1      -2.437   0.523   3.911  0.00  0.00    -0.492 OA
BRANCH  32  34
ATOM     33  C   UNL     1      -1.196   2.445   4.689  0.00  0.00    +0.048 C 
ATOM     34  C   UNL     1      -1.153   1.149   3.877  0.00  0.00    +0.225 C 
ENDBRANCH  32  34
ENDBRANCH  26  32
ENDBRANCH   1  29
TORSDOF 4
