REMARK  Name = ZINC22569488
REMARK  5 active torsions:
REMARK  status: ('A' for Active; 'I' for Inactive)
REMARK    1  A    between atoms: C_6  and  C_7
REMARK    2  A    between atoms: N_9  and  C_10
REMARK    3  A    between atoms: C_10  and  N_12
REMARK    4  A    between atoms: N_12  and  C_13
REMARK    5  A    between atoms: C_15  and  N_20
REMARK                            x       y       z     vdW  Elec       q    Type
REMARK                         _______ _______ _______ _____ _____    ______ ____
ROOT
ATOM      1  C   UNL     1       1.148   1.615  -0.248  0.00  0.00    +0.141 C 
ATOM      2  S   UNL     1       1.113   3.295  -0.575  0.00  0.00    -0.018 S 
ENDROOT
BRANCH   1   5
ATOM      3  C   UNL     1      -1.175   1.525  -0.463  0.00  0.00    +0.250 C 
ATOM      4  O   UNL     1      -1.200   2.718  -0.695  0.00  0.00    -0.270 OA
ATOM      5  N   UNL     1      -0.000   0.909  -0.224  0.00  0.00    -0.264 N 
ATOM      6  H   UNL     1       0.022  -0.170  -0.010  0.00  0.00    +0.157 HD
BRANCH   3  12
ATOM      7  C   UNL     1      -2.407  -0.622  -0.183  0.00  0.00    +0.014 A 
ATOM      8  C   UNL     1      -3.586  -1.338  -0.161  0.00  0.00    +0.015 A 
ATOM      9  C   UNL     1      -4.791  -0.702  -0.406  0.00  0.00    +0.013 A 
ATOM     10  C   UNL     1      -4.822   0.656  -0.671  0.00  0.00    +0.015 A 
ATOM     11  C   UNL     1      -3.652   1.385  -0.690  0.00  0.00    +0.014 A 
ATOM     12  C   UNL     1      -2.433   0.750  -0.443  0.00  0.00    +0.037 A 
ATOM     13  I   UNL     1      -6.574  -1.801  -0.378  0.00  0.00    -0.044 I 
ENDBRANCH   3  12
ENDBRANCH   1   5
BRANCH   1  14
ATOM     14  N   UNL     1       2.323   0.998  -0.015  0.00  0.00    -0.295 N 
ATOM     15  H   UNL     1       2.340  -0.066   0.265  0.00  0.00    +0.154 HD
BRANCH  14  16
ATOM     16  C   UNL     1       3.522   1.710  -0.128  0.00  0.00    +0.053 A 
ATOM     17  C   UNL     1       3.649   2.958   0.469  0.00  0.00    +0.057 A 
ATOM     18  C   UNL     1       4.835   3.657   0.359  0.00  0.00    +0.128 A 
ATOM     19  C   UNL     1       5.893   3.120  -0.353  0.00  0.00    +0.034 A 
ATOM     20  C   UNL     1       5.769   1.881  -0.953  0.00  0.00    +0.024 A 
ATOM     21  C   UNL     1       4.586   1.174  -0.843  0.00  0.00    +0.062 A 
ATOM     22 CL   UNL     1       4.431  -0.383  -1.596  0.00  0.00    -0.082 Cl
BRANCH  18  23
ATOM     23  N   UNL     1       4.973   4.984   0.999  0.00  0.00    +0.056 N 
ATOM     24  O   UNL     1       6.017   5.603   0.899  0.00  0.00    -0.126 OA
ATOM     25  O   UNL     1       4.042   5.457   1.626  0.00  0.00    -0.126 OA
ENDBRANCH  18  23
ENDBRANCH  14  16
ENDBRANCH   1  14
TORSDOF 5
