REMARK  Name = ZINC15676337
REMARK  13 active torsions:
REMARK  status: ('A' for Active; 'I' for Inactive)
REMARK    1  A    between atoms: C_1  and  C_2
REMARK    2  A    between atoms: C_2  and  C_3
REMARK    3  A    between atoms: C_2  and  O_4
REMARK    4  A    between atoms: O_4  and  C_5
REMARK    5  A    between atoms: C_8  and  C_11
REMARK    6  A    between atoms: C_11  and  N_12
REMARK    7  A    between atoms: C_17  and  C_33
REMARK    8  A    between atoms: C_21  and  C_22
REMARK    9  A    between atoms: C_21  and  C_23
REMARK   10  A    between atoms: N_25  and  C_26
REMARK   11  A    between atoms: C_33  and  C_34
REMARK   12  A    between atoms: C_33  and  C_35
REMARK   13  A    between atoms: C_33  and  C_36
REMARK                            x       y       z     vdW  Elec       q    Type
REMARK                         _______ _______ _______ _____ _____    ______ ____
ROOT
ATOM      1  N   UNL     1       4.788   1.856  -4.187  0.00  0.00    -0.276 N 
ATOM      2  C   UNL     1       6.076   1.982  -4.588  0.00  0.00    +0.266 C 
ATOM      3  O   UNL     1       6.954   1.255  -4.162  0.00  0.00    -0.268 OA
ATOM      4  C   UNL     1       6.356   3.044  -5.566  0.00  0.00    +0.124 A 
ATOM      5  C   UNL     1       7.470   3.332  -6.301  0.00  0.00    +0.058 A 
ATOM      6  C   UNL     1       7.126   4.461  -7.056  0.00  0.00    +0.069 A 
ATOM      7  N   UNL     1       5.893   4.791  -6.752  0.00  0.00    -0.175 NA
ATOM      8  N   UNL     1       5.412   3.999  -5.875  0.00  0.00    -0.256 N 
ATOM      9  C   UNL     1       4.099   4.009  -5.220  0.00  0.00    +0.179 C 
ATOM     10  C   UNL     1       3.709   2.578  -4.853  0.00  0.00    +0.130 C 
ATOM     11  C   UNL     1       3.327   1.828  -6.131  0.00  0.00    +0.044 C 
ENDROOT
BRANCH  10  12
ATOM     12  C   UNL     1       2.512   2.618  -3.937  0.00  0.00    +0.239 C 
ATOM     13  O   UNL     1       1.411   2.347  -4.366  0.00  0.00    -0.273 OA
ATOM     14  N   UNL     1       2.667   2.957  -2.642  0.00  0.00    -0.311 N 
ATOM     15  H   UNL     1       3.535   3.239  -2.314  0.00  0.00    +0.149 HD
BRANCH  14  16
ATOM     16  C   UNL     1       1.523   2.899  -1.728  0.00  0.00    +0.073 C 
ATOM     17  C   UNL     1       0.725   4.212  -1.844  0.00  0.00    +0.022 C 
ATOM     18  C   UNL     1      -0.223   4.442  -0.652  0.00  0.00    +0.002 C 
ATOM     19  C   UNL     1      -0.937   3.185  -0.233  0.00  0.00    +0.000 C 
ATOM     20  C   UNL     1      -0.133   2.521   0.903  0.00  0.00    +0.000 C 
ATOM     21  C   UNL     1       1.006   1.763   0.407  0.00  0.00    +0.002 C 
ATOM     22  C   UNL     1       2.027   2.652  -0.332  0.00  0.00    +0.022 C 
ENDBRANCH  14  16
ENDBRANCH  10  12
BRANCH   6  23
ATOM     23  C   UNL     1       8.016   5.171  -8.044  0.00  0.00    +0.006 C 
ATOM     24  C   UNL     1       8.119   4.343  -9.326  0.00  0.00    +0.017 C 
ATOM     25  C   UNL     1       7.423   6.543  -8.369  0.00  0.00    +0.017 C 
ATOM     26  C   UNL     1       9.410   5.349  -7.438  0.00  0.00    +0.017 C 
ENDBRANCH   6  23
BRANCH   1  27
ATOM     27  C   UNL     1       4.471   0.976  -3.059  0.00  0.00    +0.144 C 
BRANCH  27  31
ATOM     28  C   UNL     1       4.041  -3.038  -4.462  0.00  0.00    +0.121 A 
ATOM     29  C   UNL     1       5.290  -2.560  -4.095  0.00  0.00    +0.046 A 
ATOM     30  C   UNL     1       5.427  -1.262  -3.642  0.00  0.00    +0.009 A 
ATOM     31  C   UNL     1       4.319  -0.439  -3.554  0.00  0.00    -0.030 A 
ATOM     32  C   UNL     1       3.072  -0.914  -3.914  0.00  0.00    +0.009 A 
ATOM     33  C   UNL     1       2.931  -2.210  -4.373  0.00  0.00    +0.046 A 
BRANCH  28  34
ATOM     34  O   UNL     1       3.904  -4.314  -4.909  0.00  0.00    -0.489 OA
BRANCH  34  36
ATOM     35  C   UNL     1       5.423  -5.709  -3.650  0.00  0.00    +0.051 C 
ATOM     36  C   UNL     1       5.095  -5.096  -5.013  0.00  0.00    +0.167 C 
ATOM     37  C   UNL     1       4.884  -6.213  -6.037  0.00  0.00    +0.051 C 
ENDBRANCH  34  36
ENDBRANCH  28  34
ENDBRANCH  27  31
ENDBRANCH   1  27
TORSDOF 7
