REMARK  Name = ZINC08798924
REMARK  13 active torsions:
REMARK  status: ('A' for Active; 'I' for Inactive)
REMARK    1  A    between atoms: C_1  and  C_2
REMARK    2  A    between atoms: C_2  and  C_3
REMARK    3  A    between atoms: N_5  and  C_6
REMARK    4  A    between atoms: C_9  and  S_13
REMARK    5  A    between atoms: C_10  and  C_12
REMARK    6  A    between atoms: S_13  and  N_16
REMARK    7  A    between atoms: N_16  and  C_17
REMARK    8  A    between atoms: C_17  and  C_18
REMARK    9  A    between atoms: C_18  and  C_20
REMARK   10  A    between atoms: C_18  and  N_66
REMARK   11  A    between atoms: N_29  and  C_30
REMARK   12  A    between atoms: C_31  and  N_66
REMARK   13  A    between atoms: C_32  and  N_66
REMARK                            x       y       z     vdW  Elec       q    Type
REMARK                         _______ _______ _______ _____ _____    ______ ____
ROOT
ATOM      1  N   UNL     1       2.897  -3.078   7.564  0.00  0.00    -0.191 NA
ATOM      2  H   UNL     1       3.774  -3.418   7.327  0.00  0.00    +0.148 HD
ENDROOT
BRANCH   1   3
ATOM      3  S   UNL     1       2.494  -2.864   9.155  0.00  0.00    +0.059 S 
ATOM      4  O   UNL     1       3.609  -3.300   9.919  0.00  0.00    -0.153 OA
ATOM      5  O   UNL     1       1.961  -1.551   9.266  0.00  0.00    -0.153 OA
BRANCH   3   9
ATOM      6  C   UNL     1      -0.900  -5.719  10.072  0.00  0.00    +0.034 A 
ATOM      7  C   UNL     1      -1.114  -4.348  10.116  0.00  0.00    +0.025 A 
ATOM      8  C   UNL     1      -0.077  -3.479   9.836  0.00  0.00    +0.030 A 
ATOM      9  C   UNL     1       1.173  -3.975   9.513  0.00  0.00    +0.108 A 
ATOM     10  C   UNL     1       1.388  -5.340   9.463  0.00  0.00    -0.022 A 
ATOM     11  C   UNL     1       0.357  -6.213   9.748  0.00  0.00    +0.028 A 
ATOM     12  C   UNL     1       2.751  -5.875   9.105  0.00  0.00    +0.046 C 
BRANCH   6  15
ATOM     13  C   UNL     1      -3.213  -6.275  10.023  0.00  0.00    +0.217 C 
ATOM     14  O   UNL     1      -3.432  -5.259   9.397  0.00  0.00    -0.275 OA
ATOM     15  N   UNL     1      -1.948  -6.602  10.355  0.00  0.00    -0.285 N 
ATOM     16  H   UNL     1      -1.765  -7.449  10.791  0.00  0.00    +0.155 HD
BRANCH  13  18
ATOM     17  C   UNL     1      -5.672  -6.575   9.930  0.00  0.00    +0.013 C 
ATOM     18  C   UNL     1      -4.354  -7.171  10.428  0.00  0.00    +0.093 C 
ENDBRANCH  13  18
ENDBRANCH   6  15
ENDBRANCH   3   9
ENDBRANCH   1   3
BRANCH   1  19
ATOM     19  C   UNL     1       1.929  -2.754   6.513  0.00  0.00    +0.095 C 
BRANCH  19  20
ATOM     20  C   UNL     1       2.636  -2.737   5.156  0.00  0.00    -0.023 C 
BRANCH  20  21
ATOM     21  C   UNL     1       1.621  -2.519   4.064  0.00  0.00    -0.059 A 
ATOM     22  C   UNL     1       0.524  -3.355   3.961  0.00  0.00    +0.004 A 
ATOM     23  C   UNL     1      -0.401  -3.156   2.959  0.00  0.00    +0.023 A 
ATOM     24  C   UNL     1      -0.239  -2.115   2.043  0.00  0.00    +0.033 A 
ATOM     25  C   UNL     1       0.858  -1.278   2.154  0.00  0.00    -0.026 A 
ATOM     26  C   UNL     1       1.785  -1.485   3.163  0.00  0.00    +0.007 A 
ATOM     27  C   UNL     1       1.082  -0.124   1.209  0.00  0.00    +0.038 C 
ATOM     28  C   UNL     1       0.195  -0.292  -0.027  0.00  0.00    +0.024 C 
ATOM     29  C   UNL     1      -1.222  -0.634   0.452  0.00  0.00    +0.105 C 
ATOM     30  N   UNL     1      -1.205  -1.971   1.049  0.00  0.00    -0.333 N 
ATOM     31  C   UNL     1      -2.536  -2.340   1.550  0.00  0.00    +0.129 C 
ENDBRANCH  20  21
BRANCH  20  34
ATOM     32  C   UNL     1       2.537  -5.131   5.505  0.00  0.00    -0.096 C 
ATOM     33  C   UNL     1       3.593  -4.239   3.517  0.00  0.00    -0.096 C 
ATOM     34  N   UNL     1       3.343  -4.019   4.957  0.00  0.00    +0.381 N 
ATOM     35  H   UNL     1       4.242  -3.985   5.450  0.00  0.00    -0.082 HD
ENDBRANCH  20  34
ENDBRANCH  19  20
ENDBRANCH   1  19
TORSDOF 8
