REMARK  Name = ZINC36347643
REMARK  6 active torsions:
REMARK  status: ('A' for Active; 'I' for Inactive)
REMARK    1  A    between atoms: C_1  and  C_2
REMARK    2  A    between atoms: C_2  and  O_3
REMARK    3  A    between atoms: O_3  and  C_4
REMARK    4  A    between atoms: C_9  and  C_10
REMARK    5  A    between atoms: C_10  and  N_11
REMARK    6  A    between atoms: C_20  and  C_22
REMARK                            x       y       z     vdW  Elec       q    Type
REMARK                         _______ _______ _______ _____ _____    ______ ____
ROOT
ATOM      1  N   UNL     1      -4.218  -0.950  -1.272  0.00  0.00    +0.391 N 
ATOM      2  C   UNL     1      -3.188   0.012  -1.672  0.00  0.00    -0.075 C 
ATOM      3  C   UNL     1      -3.368   0.435  -3.124  0.00  0.00    +0.003 C 
ATOM      4  C   UNL     1      -3.915  -0.739  -3.942  0.00  0.00    +0.119 C 
ATOM      5  N   UNL     1      -5.381  -0.719  -3.881  0.00  0.00    -0.352 N 
ATOM      6  C   UNL     1      -6.235  -0.868  -4.931  0.00  0.00    +0.086 A 
ATOM      7  C   UNL     1      -7.497  -0.808  -4.458  0.00  0.00    +0.019 A 
ATOM      8  C   UNL     1      -7.418  -0.610  -3.065  0.00  0.00    +0.021 A 
ATOM      9  C   UNL     1      -6.112  -0.552  -2.740  0.00  0.00    +0.009 A 
ATOM     10  C   UNL     1      -5.547  -0.329  -1.358  0.00  0.00    +0.011 C 
ATOM     11  H   UNL     1      -4.182  -1.750  -1.885  0.00  0.00    -0.080 HD
ENDROOT
BRANCH  10  12
ATOM     12  C   UNL     1      -6.461  -0.951  -0.334  0.00  0.00    -0.055 A 
ATOM     13  C   UNL     1      -7.067  -0.159   0.623  0.00  0.00    +0.005 A 
ATOM     14  C   UNL     1      -7.905  -0.729   1.562  0.00  0.00    +0.038 A 
ATOM     15  C   UNL     1      -8.138  -2.094   1.544  0.00  0.00    +0.123 A 
ATOM     16  C   UNL     1      -7.531  -2.886   0.585  0.00  0.00    +0.038 A 
ATOM     17  C   UNL     1      -6.697  -2.313  -0.356  0.00  0.00    +0.005 A 
ATOM     18  F   UNL     1      -8.957  -2.651   2.462  0.00  0.00    -0.205 F 
ENDBRANCH  10  12
BRANCH   1  19
ATOM     19  C   UNL     1      -3.971  -1.382   0.110  0.00  0.00    -0.038 C 
BRANCH  19  25
ATOM     20  C   UNL     1      -1.467  -1.351   0.243  0.00  0.00    +0.122 A 
ATOM     21  C   UNL     1      -0.245  -2.003   0.319  0.00  0.00    +0.046 A 
ATOM     22  C   UNL     1      -0.200  -3.384   0.330  0.00  0.00    +0.004 A 
ATOM     23  C   UNL     1      -1.372  -4.116   0.268  0.00  0.00    +0.000 A 
ATOM     24  C   UNL     1      -2.591  -3.468   0.192  0.00  0.00    +0.005 A 
ATOM     25  C   UNL     1      -2.642  -2.087   0.186  0.00  0.00    -0.022 A 
BRANCH  20  26
ATOM     26  O   UNL     1      -1.514   0.007   0.232  0.00  0.00    -0.492 OA
BRANCH  26  28
ATOM     27  C   UNL     1      -0.519   2.209   0.271  0.00  0.00    +0.048 C 
ATOM     28  C   UNL     1      -0.266   0.700   0.294  0.00  0.00    +0.225 C 
ENDBRANCH  26  28
ENDBRANCH  20  26
ENDBRANCH  19  25
ENDBRANCH   1  19
TORSDOF 5
