REMARK  Name = ZINC04863315
REMARK  7 active torsions:
REMARK  status: ('A' for Active; 'I' for Inactive)
REMARK    1  A    between atoms: C_1  and  C_2
REMARK    2  A    between atoms: C_2  and  C_3
REMARK    3  A    between atoms: C_2  and  C_4
REMARK    4  A    between atoms: C_6  and  C_26
REMARK    5  A    between atoms: C_8  and  C_20
REMARK    6  A    between atoms: C_11  and  C_12
REMARK    7  A    between atoms: C_11  and  O_19
REMARK                            x       y       z     vdW  Elec       q    Type
REMARK                         _______ _______ _______ _____ _____    ______ ____
ROOT
ATOM      1  C   UNL     1       2.058   2.360  -0.230  0.00  0.00    +0.018 C 
ATOM      2  C   UNL     1       2.499   1.201  -1.128  0.00  0.00    -0.034 C 
ATOM      3  C   UNL     1       2.398  -0.352   0.729  0.00  0.00    -0.037 C 
ATOM      4  C   UNL     1       1.955   0.760   1.683  0.00  0.00    +0.028 C 
ATOM      5  C   UNL     1       2.529   2.096   1.203  0.00  0.00    +0.092 C 
ATOM      6  N   UNL     1       1.915  -0.061  -0.634  0.00  0.00    +0.388 N 
ATOM      7  H   UNL     1       2.187  -0.827  -1.260  0.00  0.00    -0.084 HD
ATOM      8  H   UNL     1       0.892   0.023  -0.620  0.00  0.00    -0.084 HD
ENDROOT
BRANCH   5   9
ATOM      9  C   UNL     1       2.047   3.204   2.104  0.00  0.00    -0.016 A 
ATOM     10  C   UNL     1       2.214   4.523   1.725  0.00  0.00    +0.009 A 
ATOM     11  C   UNL     1       1.768   5.540   2.548  0.00  0.00    +0.039 A 
ATOM     12  C   UNL     1       1.164   5.237   3.757  0.00  0.00    +0.123 A 
ATOM     13  C   UNL     1       1.002   3.915   4.137  0.00  0.00    +0.039 A 
ATOM     14  C   UNL     1       1.444   2.900   3.310  0.00  0.00    +0.009 A 
ATOM     15  F   UNL     1       0.732   6.230   4.564  0.00  0.00    -0.205 F 
ENDBRANCH   5   9
BRANCH   3  16
ATOM     16  C   UNL     1       1.818  -1.666   1.187  0.00  0.00    -0.061 A 
ATOM     17  C   UNL     1       0.504  -1.980   0.895  0.00  0.00    +0.002 A 
ATOM     18  C   UNL     1      -0.026  -3.188   1.310  0.00  0.00    +0.000 A 
ATOM     19  C   UNL     1       0.755  -4.076   2.026  0.00  0.00    +0.000 A 
ATOM     20  C   UNL     1       2.067  -3.759   2.323  0.00  0.00    +0.000 A 
ATOM     21  C   UNL     1       2.599  -2.554   1.903  0.00  0.00    +0.002 A 
ENDBRANCH   3  16
BRANCH   2  22
ATOM     22  C   UNL     1       2.020   1.447  -2.535  0.00  0.00    -0.061 A 
ATOM     23  C   UNL     1       1.061   0.623  -3.094  0.00  0.00    +0.002 A 
ATOM     24  C   UNL     1       0.619   0.851  -4.383  0.00  0.00    +0.000 A 
ATOM     25  C   UNL     1       1.143   1.898  -5.118  0.00  0.00    +0.000 A 
ATOM     26  C   UNL     1       2.106   2.720  -4.562  0.00  0.00    +0.000 A 
ATOM     27  C   UNL     1       2.544   2.494  -3.271  0.00  0.00    +0.002 A 
ENDBRANCH   2  22
BRANCH   1  29
ATOM     28  C   UNL     1       0.112   3.455  -1.349  0.00  0.00    +0.007 C 
ATOM     29  C   UNL     1       0.533   2.473  -0.254  0.00  0.00    -0.012 C 
ATOM     30  C   UNL     1       0.038   2.979   1.103  0.00  0.00    +0.007 C 
ENDBRANCH   1  29
BRANCH   5  31
ATOM     31  O   UNL     1       3.957   2.040   1.234  0.00  0.00    -0.384 OA
ATOM     32  H   UNL     1       4.325   1.876   2.113  0.00  0.00    +0.211 HD
ENDBRANCH   5  31
TORSDOF 5
