REMARK  Name = ZINC16215650
REMARK  7 active torsions:
REMARK  status: ('A' for Active; 'I' for Inactive)
REMARK    1  A    between atoms: C_3  and  C_6
REMARK    2  A    between atoms: C_6  and  N_7
REMARK    3  A    between atoms: C_11  and  C_13
REMARK    4  A    between atoms: C_13  and  O_14
REMARK    5  A    between atoms: O_14  and  C_15
REMARK    6  A    between atoms: C_15  and  C_17
REMARK    7  A    between atoms: C_22  and  N_23
REMARK                            x       y       z     vdW  Elec       q    Type
REMARK                         _______ _______ _______ _____ _____    ______ ____
ROOT
ATOM      1  C   UNL     1       7.634   3.264   4.507  0.00  0.00    +0.328 C 
ENDROOT
BRANCH   1   6
ATOM      2  N   UNL     1       4.186   2.149   1.349  0.00  0.00    -0.294 N 
ATOM      3  C   UNL     1       5.440   2.582   1.586  0.00  0.00    +0.306 C 
ATOM      4  O   UNL     1       6.170   2.867   0.658  0.00  0.00    -0.252 OA
ATOM      5  N   UNL     1       5.884   2.700   2.853  0.00  0.00    -0.237 N 
ATOM      6  C   UNL     1       7.138   3.133   3.091  0.00  0.00    +0.258 C 
ATOM      7  O   UNL     1       7.866   3.417   2.164  0.00  0.00    -0.272 OA
ATOM      8  H   UNL     1       3.603   1.921   2.090  0.00  0.00    +0.151 HD
ATOM      9  H   UNL     1       5.301   2.472   3.595  0.00  0.00    +0.159 HD
BRANCH   2  10
ATOM     10  C   UNL     1       3.703   2.021  -0.028  0.00  0.00    +0.148 C 
BRANCH  10  13
ATOM     11  C   UNL     1      -0.077   1.553   0.020  0.00  0.00    +0.008 A 
ATOM     12  C   UNL     1       1.127   2.231   0.018  0.00  0.00    +0.013 A 
ATOM     13  C   UNL     1       2.282   1.522  -0.018  0.00  0.00    +0.007 A 
ATOM     14  S   UNL     1       1.681  -0.159  -0.051  0.00  0.00    -0.100 S 
ATOM     15  C   UNL     1      -0.068   0.198  -0.014  0.00  0.00    +0.045 A 
ENDBRANCH  10  13
ENDBRANCH   2  10
ENDBRANCH   1   6
BRANCH   1  16
ATOM     16  O   UNL     1       8.982   3.738   4.498  0.00  0.00    -0.452 OA
BRANCH  16  17
ATOM     17  C   UNL     1       9.579   3.911   5.694  0.00  0.00    +0.342 C 
ATOM     18  O   UNL     1       8.971   3.666   6.717  0.00  0.00    -0.245 OA
BRANCH  17  19
ATOM     19  C   UNL     1      10.968   4.397   5.761  0.00  0.00    +0.082 A 
ATOM     20  C   UNL     1      11.712   4.563   4.589  0.00  0.00    +0.037 A 
ATOM     21  C   UNL     1      13.011   5.018   4.658  0.00  0.00    +0.043 A 
ATOM     22  C   UNL     1      13.586   5.313   5.886  0.00  0.00    +0.042 A 
ATOM     23  C   UNL     1      12.864   5.154   7.052  0.00  0.00    +0.064 A 
ATOM     24  C   UNL     1      11.550   4.702   7.001  0.00  0.00    +0.057 A 
ATOM     25 CL   UNL     1      13.594   5.527   8.582  0.00  0.00    -0.082 Cl
ATOM     26 CL   UNL     1      13.934   5.222   3.202  0.00  0.00    -0.083 Cl
BRANCH  24  27
ATOM     27  N   UNL     1      10.819   4.548   8.172  0.00  0.00    -0.356 N 
ATOM     28  H   UNL     1       9.933   4.154   8.143  0.00  0.00    +0.142 HD
ATOM     29  H   UNL     1      11.194   4.835   9.020  0.00  0.00    +0.142 HD
ENDBRANCH  24  27
ENDBRANCH  17  19
ENDBRANCH  16  17
ENDBRANCH   1  16
TORSDOF 7
