REMARK  Name = ZINC14201417
REMARK  5 active torsions:
REMARK  status: ('A' for Active; 'I' for Inactive)
REMARK    1  A    between atoms: C_7  and  C_11
REMARK    2  A    between atoms: C_11  and  C_12
REMARK    3  A    between atoms: N_16  and  C_20
REMARK    4  A    between atoms: C_20  and  C_21
REMARK    5  A    between atoms: C_27  and  C_29
REMARK                            x       y       z     vdW  Elec       q    Type
REMARK                         _______ _______ _______ _____ _____    ______ ____
ROOT
ATOM      1  C   UNL     1       2.353  -3.554   1.398  0.00  0.00    +0.165 C 
ATOM      2  C   UNL     1       3.253  -4.773   1.425  0.00  0.00    +0.244 C 
ATOM      3  O   UNL     1       2.968  -5.901   1.083  0.00  0.00    -0.273 OA
ATOM      4  N   UNL     1       4.435  -4.343   1.908  0.00  0.00    -0.216 N 
ATOM      5  C   UNL     1       4.407  -3.035   2.188  0.00  0.00    +0.310 C 
ATOM      6  O   UNL     1       5.355  -2.419   2.635  0.00  0.00    -0.252 OA
ATOM      7  N   UNL     1       3.213  -2.477   1.918  0.00  0.00    -0.287 N 
ATOM      8  H   UNL     1       2.966  -1.547   2.042  0.00  0.00    +0.151 HD
ENDROOT
BRANCH   1   9
ATOM      9  C   UNL     1       1.909  -3.244  -0.033  0.00  0.00    +0.069 C 
BRANCH   9  16
ATOM     10  C   UNL     1       2.386   1.419  -0.013  0.00  0.00    +0.001 A 
ATOM     11  C   UNL     1       1.169   2.087   0.002  0.00  0.00    +0.002 A 
ATOM     12  C   UNL     1      -0.017   1.387   0.010  0.00  0.00    +0.026 A 
ATOM     13  C   UNL     1       0.002  -0.004   0.002  0.00  0.00    +0.047 A 
ATOM     14  C   UNL     1       1.238  -0.676  -0.013  0.00  0.00    +0.003 A 
ATOM     15  C   UNL     1       2.428   0.054  -0.021  0.00  0.00    +0.010 A 
ATOM     16  C   UNL     1       0.920  -2.106  -0.017  0.00  0.00    -0.020 A 
ATOM     17  C   UNL     1      -0.418  -2.211  -0.005  0.00  0.00    +0.087 A 
ATOM     18  N   UNL     1      -0.984  -0.966   0.007  0.00  0.00    -0.360 N 
ATOM     19  H   UNL     1      -1.937  -0.786   0.017  0.00  0.00    +0.165 HD
ENDBRANCH   9  16
ENDBRANCH   1   9
BRANCH   4  20
ATOM     20  C   UNL     1       5.606  -5.201   2.103  0.00  0.00    +0.213 C 
BRANCH  20  21
ATOM     21  C   UNL     1       6.441  -5.203   0.849  0.00  0.00    +0.234 C 
ATOM     22  O   UNL     1       6.093  -4.552  -0.113  0.00  0.00    -0.274 OA
ATOM     23  N   UNL     1       7.576  -5.929   0.796  0.00  0.00    -0.293 N 
ATOM     24  C   UNL     1       8.114  -6.763   1.886  0.00  0.00    +0.108 C 
ATOM     25  C   UNL     1       9.633  -6.859   1.599  0.00  0.00    +0.021 C 
ATOM     26  C   UNL     1       9.652  -6.939   0.050  0.00  0.00    +0.029 C 
ATOM     27  C   UNL     1       8.478  -6.025  -0.360  0.00  0.00    +0.106 C 
BRANCH  27  28
ATOM     28  C   UNL     1       7.746  -6.623  -1.534  0.00  0.00    -0.023 A 
ATOM     29  C   UNL     1       6.863  -7.669  -1.337  0.00  0.00    +0.009 A 
ATOM     30  C   UNL     1       6.191  -8.221  -2.410  0.00  0.00    +0.050 A 
ATOM     31  C   UNL     1       6.399  -7.726  -3.689  0.00  0.00    +0.162 A 
ATOM     32  C   UNL     1       7.284  -6.673  -3.887  0.00  0.00    +0.162 A 
ATOM     33  C   UNL     1       7.952  -6.121  -2.805  0.00  0.00    +0.055 A 
ATOM     34  O   UNL     1       7.497  -6.168  -5.133  0.00  0.00    -0.485 OA
ATOM     35  C   UNL     1       7.095  -6.986  -6.237  0.00  0.00    +0.270 C 
ATOM     36  C   UNL     1       5.686  -7.522  -5.949  0.00  0.00    +0.270 C 
ATOM     37  O   UNL     1       5.736  -8.285  -4.738  0.00  0.00    -0.485 OA
ENDBRANCH  27  28
ENDBRANCH  20  21
ENDBRANCH   4  20
TORSDOF 5
