REMARK  Name = ZINC13125235
REMARK  8 active torsions:
REMARK  status: ('A' for Active; 'I' for Inactive)
REMARK    1  A    between atoms: C_1  and  C_2
REMARK    2  A    between atoms: C_2  and  O_3
REMARK    3  A    between atoms: O_3  and  C_4
REMARK    4  A    between atoms: C_7  and  C_12
REMARK    5  A    between atoms: C_9  and  O_10
REMARK    6  A    between atoms: O_10  and  C_11
REMARK    7  A    between atoms: C_14  and  C_23
REMARK    8  A    between atoms: C_15  and  C_22
REMARK                            x       y       z     vdW  Elec       q    Type
REMARK                         _______ _______ _______ _____ _____    ______ ____
ROOT
ATOM      1  C   UNL     1       1.147  -5.804  -1.520  0.00  0.00    +0.164 C 
ATOM      2  C   UNL     1       2.383  -6.532  -1.020  0.00  0.00    +0.061 C 
ATOM      3  C   UNL     1       2.183  -7.638  -0.244  0.00  0.00    +0.052 C 
ATOM      4  N   UNL     1       0.969  -8.067   0.067  0.00  0.00    -0.218 NA
ATOM      5  C   UNL     1      -0.157  -7.495  -0.324  0.00  0.00    +0.237 C 
ATOM      6  N   UNL     1      -0.141  -6.371  -1.108  0.00  0.00    -0.208 N 
ATOM      7  N   UNL     1      -1.476  -6.025  -1.335  0.00  0.00    -0.251 N 
ATOM      8  C   UNL     1      -2.226  -6.943  -0.684  0.00  0.00    +0.203 C 
ATOM      9  N   UNL     1      -1.448  -7.802  -0.098  0.00  0.00    -0.205 NA
ATOM     10  C   UNL     1       3.380  -8.393   0.275  0.00  0.00    +0.066 C 
ATOM     11  H   UNL     1      -1.800  -5.274  -1.857  0.00  0.00    +0.171 HD
ENDROOT
BRANCH   1  15
ATOM     12  C   UNL     1       1.328  -1.765  -0.126  0.00  0.00    +0.162 A 
ATOM     13  C   UNL     1       0.827  -2.762   0.695  0.00  0.00    +0.050 A 
ATOM     14  C   UNL     1       0.770  -4.067   0.242  0.00  0.00    +0.009 A 
ATOM     15  C   UNL     1       1.212  -4.380  -1.030  0.00  0.00    -0.017 A 
ATOM     16  C   UNL     1       1.712  -3.389  -1.855  0.00  0.00    +0.055 A 
ATOM     17  C   UNL     1       1.767  -2.079  -1.408  0.00  0.00    +0.162 A 
BRANCH  17  18
ATOM     18  O   UNL     1       2.254  -1.102  -2.220  0.00  0.00    -0.491 OA
ATOM     19  C   UNL     1       2.687  -1.497  -3.523  0.00  0.00    +0.277 C 
ENDBRANCH  17  18
BRANCH  12  20
ATOM     20  O   UNL     1       1.384  -0.481   0.319  0.00  0.00    -0.489 OA
BRANCH  20  22
ATOM     21  C   UNL     1       1.057   1.257   1.966  0.00  0.00    +0.048 C 
ATOM     22  C   UNL     1       0.916  -0.232   1.646  0.00  0.00    +0.226 C 
ENDBRANCH  20  22
ENDBRANCH  12  20
ENDBRANCH   1  15
BRANCH   2  23
ATOM     23  C   UNL     1       3.678  -6.087  -1.344  0.00  0.00    +0.241 C 
ATOM     24  O   UNL     1       4.156  -6.345  -2.435  0.00  0.00    -0.271 OA
ATOM     25  N   UNL     1       4.390  -5.376  -0.447  0.00  0.00    -0.325 N 
ATOM     26  H   UNL     1       3.985  -5.110   0.393  0.00  0.00    +0.145 HD
ATOM     27  H   UNL     1       5.308  -5.129  -0.642  0.00  0.00    +0.145 HD
ENDBRANCH   2  23
TORSDOF 5
