REMARK  Name = ZINC38650906
REMARK  9 active torsions:
REMARK  status: ('A' for Active; 'I' for Inactive)
REMARK    1  A    between atoms: C_4  and  C_7
REMARK    2  A    between atoms: C_7  and  O_8
REMARK    3  A    between atoms: O_8  and  C_9
REMARK    4  A    between atoms: C_12  and  C_15
REMARK    5  A    between atoms: C_20  and  O_29
REMARK    6  A    between atoms: C_24  and  N_28
REMARK    7  A    between atoms: C_25  and  C_26
REMARK    8  A    between atoms: O_29  and  C_30
REMARK    9  A    between atoms: C_30  and  C_32
REMARK                            x       y       z     vdW  Elec       q    Type
REMARK                         _______ _______ _______ _____ _____    ______ ____
ROOT
ATOM      1  C   UNL     1       8.993  -3.691   2.033  0.00  0.00    +0.098 C 
ATOM      2  C   UNL     1       9.960  -2.812   2.782  0.00  0.00    +0.008 A 
ATOM      3  C   UNL     1      10.657  -1.831   2.099  0.00  0.00    +0.012 A 
ATOM      4  C   UNL     1      11.548  -1.016   2.768  0.00  0.00    +0.047 A 
ATOM      5  C   UNL     1      11.746  -1.179   4.133  0.00  0.00    +0.135 A 
ATOM      6  C   UNL     1      11.049  -2.159   4.820  0.00  0.00    +0.093 A 
ATOM      7  C   UNL     1      10.153  -2.978   4.144  0.00  0.00    +0.138 A 
ATOM      8  O   UNL     1       9.479  -3.934   4.831  0.00  0.00    -0.441 OA
ATOM      9  C   UNL     1       8.923  -4.965   4.173  0.00  0.00    +0.199 C 
ATOM     10  C   UNL     1       8.667  -4.911   2.848  0.00  0.00    +0.098 C 
ENDROOT
BRANCH   1  14
ATOM     11  C   UNL     1       5.403  -1.508   1.255  0.00  0.00    +0.121 A 
ATOM     12  C   UNL     1       6.156  -2.005   0.201  0.00  0.00    +0.046 A 
ATOM     13  C   UNL     1       7.317  -2.710   0.455  0.00  0.00    +0.008 A 
ATOM     14  C   UNL     1       7.727  -2.921   1.758  0.00  0.00    -0.034 A 
ATOM     15  C   UNL     1       6.978  -2.427   2.810  0.00  0.00    +0.008 A 
ATOM     16  C   UNL     1       5.820  -1.716   2.561  0.00  0.00    +0.046 A 
BRANCH  11  17
ATOM     17  O   UNL     1       4.261  -0.814   1.007  0.00  0.00    -0.487 OA
BRANCH  17  18
ATOM     18  C   UNL     1       3.893  -0.638  -0.362  0.00  0.00    +0.264 C 
BRANCH  18  22
ATOM     19  C   UNL     1       0.258   1.594  -0.586  0.00  0.00    +0.000 A 
ATOM     20  C   UNL     1       1.474   2.252  -0.587  0.00  0.00    +0.000 A 
ATOM     21  C   UNL     1       2.650   1.529  -0.515  0.00  0.00    +0.007 A 
ATOM     22  C   UNL     1       2.610   0.149  -0.441  0.00  0.00    -0.010 A 
ATOM     23  C   UNL     1       1.394  -0.508  -0.438  0.00  0.00    +0.007 A 
ATOM     24  C   UNL     1       0.218   0.214  -0.512  0.00  0.00    +0.000 A 
ENDBRANCH  18  22
ENDBRANCH  17  18
ENDBRANCH  11  17
ENDBRANCH   1  14
BRANCH   9  25
ATOM     25  N   UNL     1       8.605  -6.105   4.869  0.00  0.00    -0.328 N 
ATOM     26  H   UNL     1       8.783  -6.157   5.821  0.00  0.00    +0.145 HD
ATOM     27  H   UNL     1       8.203  -6.858   4.408  0.00  0.00    +0.145 HD
ENDBRANCH   9  25
BRANCH  10  28
ATOM     28  C   UNL     1       8.072  -6.044   2.207  0.00  0.00    +0.101 C 
ATOM     29  N   UNL     1       7.599  -6.944   1.698  0.00  0.00    -0.191 NA
ENDBRANCH  10  28
BRANCH   5  30
ATOM     30  O   UNL     1      12.622  -0.377   4.794  0.00  0.00    -0.422 OA
BRANCH  30  31
ATOM     31  C   UNL     1      13.761  -0.929   5.255  0.00  0.00    +0.346 C 
ATOM     32  O   UNL     1      14.028  -2.084   4.986  0.00  0.00    -0.244 OA
BRANCH  31  33
ATOM     33  C   UNL     1      14.683  -0.133   6.088  0.00  0.00    +0.078 A 
ATOM     34  C   UNL     1      14.376   1.193   6.404  0.00  0.00    +0.016 A 
ATOM     35  C   UNL     1      15.243   1.932   7.181  0.00  0.00    +0.001 A 
ATOM     36  C   UNL     1      16.415   1.363   7.649  0.00  0.00    +0.001 A 
ATOM     37  C   UNL     1      16.727   0.052   7.341  0.00  0.00    +0.021 A 
ATOM     38  C   UNL     1      15.866  -0.702   6.568  0.00  0.00    +0.055 A 
ATOM     39 CL   UNL     1      16.254  -2.351   6.188  0.00  0.00    -0.083 Cl
ENDBRANCH  31  33
ENDBRANCH  30  31
ENDBRANCH   5  30
TORSDOF 9
