REMARK  Name = ZINC59501140
REMARK  13 active torsions:
REMARK  status: ('A' for Active; 'I' for Inactive)
REMARK    1  A    between atoms: C_1  and  C_2
REMARK    2  A    between atoms: C_2  and  N_3
REMARK    3  A    between atoms: N_3  and  C_4
REMARK    4  A    between atoms: N_3  and  C_6
REMARK    5  A    between atoms: C_4  and  C_5
REMARK    6  A    between atoms: C_10  and  C_12
REMARK    7  A    between atoms: C_12  and  O_14
REMARK    8  A    between atoms: O_14  and  C_15
REMARK    9  A    between atoms: C_15  and  C_16
REMARK   10  A    between atoms: C_16  and  C_18
REMARK   11  A    between atoms: C_18  and  O_41
REMARK   12  A    between atoms: C_23  and  C_40
REMARK   13  A    between atoms: C_38  and  C_39
REMARK                            x       y       z     vdW  Elec       q    Type
REMARK                         _______ _______ _______ _____ _____    ______ ____
ROOT
ATOM      1  C   UNL     1       9.217  -3.280   5.387  0.00  0.00    +0.133 C 
ATOM      2  C   UNL     1       9.389  -4.821   5.356  0.00  0.00    +0.043 C 
ATOM      3  C   UNL     1      10.922  -5.088   5.349  0.00  0.00    +0.008 C 
ATOM      4  C   UNL     1      11.470  -3.772   5.926  0.00  0.00    +0.002 C 
ATOM      5  C   UNL     1      10.642  -2.735   5.139  0.00  0.00    +0.007 C 
ATOM      6  C   UNL     1      10.889  -1.343   5.660  0.00  0.00    +0.010 C 
ATOM      7  C   UNL     1      12.381  -1.101   5.939  0.00  0.00    +0.005 C 
ATOM      8  C   UNL     1      13.266  -2.151   5.295  0.00  0.00    +0.006 C 
ATOM      9  C   UNL     1      12.948  -3.547   5.828  0.00  0.00    -0.003 C 
ATOM     10  C   UNL     1      13.671  -4.596   4.982  0.00  0.00    +0.008 C 
ATOM     11  C   UNL     1      15.185  -4.398   5.167  0.00  0.00    +0.032 C 
ATOM     12  C   UNL     1      15.519  -2.964   4.798  0.00  0.00    -0.056 C 
ATOM     13  C   UNL     1      16.459  -2.746   3.889  0.00  0.00    +0.051 C 
ATOM     14  C   UNL     1      16.799  -1.377   3.472  0.00  0.00    +0.179 C 
ATOM     15  O   UNL     1      17.694  -1.172   2.674  0.00  0.00    -0.288 OA
ATOM     16  C   UNL     1      16.024  -0.261   4.040  0.00  0.00    +0.047 C 
ATOM     17  C   UNL     1      15.093  -0.500   4.949  0.00  0.00    -0.012 C 
ATOM     18  C   UNL     1      14.758  -1.855   5.475  0.00  0.00    +0.011 C 
ATOM     19  C   UNL     1      15.114  -1.863   6.959  0.00  0.00    +0.020 C 
ATOM     20  C   UNL     1      10.868  -2.810   3.628  0.00  0.00    +0.015 C 
ENDROOT
BRANCH   1  21
ATOM     21  C   UNL     1       8.299  -2.828   4.286  0.00  0.00    +0.202 C 
ATOM     22  O   UNL     1       8.124  -3.530   3.319  0.00  0.00    -0.291 OA
BRANCH  21  23
ATOM     23  C   UNL     1       7.597  -1.499   4.389  0.00  0.00    +0.309 C 
BRANCH  23  24
ATOM     24  O   UNL     1       6.787  -1.297   3.229  0.00  0.00    -0.453 OA
BRANCH  24  25
ATOM     25  C   UNL     1       6.088  -0.147   3.164  0.00  0.00    +0.340 C 
ATOM     26  O   UNL     1       6.163   0.661   4.067  0.00  0.00    -0.245 OA
BRANCH  25  31
ATOM     27  C   UNL     1       3.698   1.571   0.824  0.00  0.00    +0.030 A 
ATOM     28  C   UNL     1       3.617   0.640  -0.205  0.00  0.00    +0.023 A 
ATOM     29  C   UNL     1       4.337  -0.538  -0.137  0.00  0.00    +0.003 A 
ATOM     30  C   UNL     1       5.140  -0.799   0.955  0.00  0.00    +0.015 A 
ATOM     31  C   UNL     1       5.229   0.129   1.994  0.00  0.00    +0.061 A 
ATOM     32  C   UNL     1       4.507   1.322   1.922  0.00  0.00    +0.038 A 
BRANCH  27  33
ATOM     33  N   UNL     1       2.970   2.761   0.749  0.00  0.00    -0.330 N 
BRANCH  33  35
ATOM     34  C   UNL     1       2.925   3.753  -1.486  0.00  0.00    +0.024 C 
ATOM     35  C   UNL     1       2.115   3.025  -0.411  0.00  0.00    +0.102 C 
ENDBRANCH  33  35
BRANCH  33  36
ATOM     36  C   UNL     1       3.060   3.744   1.831  0.00  0.00    +0.102 C 
ATOM     37  C   UNL     1       1.984   3.450   2.879  0.00  0.00    +0.024 C 
ENDBRANCH  33  36
ENDBRANCH  27  33
ENDBRANCH  25  31
ENDBRANCH  24  25
ENDBRANCH  23  24
ENDBRANCH  21  23
ENDBRANCH   1  21
BRANCH   1  38
ATOM     38  O   UNL     1       8.741  -2.856   6.660  0.00  0.00    -0.380 OA
ATOM     39  H   UNL     1       7.859  -3.185   6.880  0.00  0.00    +0.211 HD
ENDBRANCH   1  38
TORSDOF 9
