REMARK  Name = ZINC04722029
REMARK  10 active torsions:
REMARK  status: ('A' for Active; 'I' for Inactive)
REMARK    1  A    between atoms: C_4  and  C_7
REMARK    2  A    between atoms: C_7  and  C_8
REMARK    3  A    between atoms: C_7  and  C_14
REMARK    4  A    between atoms: C_7  and  O_20
REMARK    5  A    between atoms: O_20  and  C_21
REMARK    6  A    between atoms: C_21  and  C_22
REMARK    7  A    between atoms: C_24  and  O_36
REMARK    8  A    between atoms: C_26  and  O_35
REMARK    9  A    between atoms: C_28  and  O_34
REMARK   10  A    between atoms: C_30  and  O_33
REMARK                            x       y       z     vdW  Elec       q    Type
REMARK                         _______ _______ _______ _____ _____    ______ ____
ROOT
ATOM      1  C   UNL     1       3.625  -0.786  -0.214  0.00  0.00    +0.144 C 
ENDROOT
BRANCH   1   5
ATOM      2  C   UNL     1       1.054   2.351   1.126  0.00  0.00    +0.000 A 
ATOM      3  C   UNL     1       1.787   2.506  -0.036  0.00  0.00    +0.000 A 
ATOM      4  C   UNL     1       2.619   1.491  -0.470  0.00  0.00    +0.007 A 
ATOM      5  C   UNL     1       2.719   0.321   0.259  0.00  0.00    -0.007 A 
ATOM      6  C   UNL     1       1.987   0.166   1.422  0.00  0.00    +0.007 A 
ATOM      7  C   UNL     1       1.154   1.180   1.855  0.00  0.00    +0.000 A 
ENDBRANCH   1   5
BRANCH   1   8
ATOM      8  C   UNL     1       3.272  -2.065   0.500  0.00  0.00    -0.007 A 
ATOM      9  C   UNL     1       2.060  -2.683   0.252  0.00  0.00    +0.007 A 
ATOM     10  C   UNL     1       1.736  -3.857   0.907  0.00  0.00    +0.000 A 
ATOM     11  C   UNL     1       2.623  -4.412   1.810  0.00  0.00    +0.000 A 
ATOM     12  C   UNL     1       3.834  -3.794   2.058  0.00  0.00    +0.000 A 
ATOM     13  C   UNL     1       4.161  -2.623   1.400  0.00  0.00    +0.007 A 
ENDBRANCH   1   8
BRANCH   1  14
ATOM     14  C   UNL     1       3.453  -0.976  -1.699  0.00  0.00    -0.007 A 
ATOM     15  C   UNL     1       2.238  -0.696  -2.296  0.00  0.00    +0.007 A 
ATOM     16  C   UNL     1       2.080  -0.870  -3.658  0.00  0.00    +0.000 A 
ATOM     17  C   UNL     1       3.137  -1.324  -4.424  0.00  0.00    +0.000 A 
ATOM     18  C   UNL     1       4.352  -1.604  -3.828  0.00  0.00    +0.000 A 
ATOM     19  C   UNL     1       4.512  -1.426  -2.466  0.00  0.00    +0.007 A 
ENDBRANCH   1  14
BRANCH   1  20
ATOM     20  O   UNL     1       4.984  -0.443   0.068  0.00  0.00    -0.357 OA
BRANCH  20  21
ATOM     21  C   UNL     1       5.395   0.807  -0.490  0.00  0.00    +0.196 C 
BRANCH  21  22
ATOM     22  C   UNL     1       6.869   1.052  -0.159  0.00  0.00    +0.178 C 
ATOM     23  C   UNL     1       7.343   2.328  -0.859  0.00  0.00    +0.177 C 
ATOM     24  C   UNL     1       8.801   2.600  -0.476  0.00  0.00    +0.179 C 
ATOM     25  C   UNL     1       8.906   2.700   1.049  0.00  0.00    +0.201 C 
ATOM     26  C   UNL     1       8.371   1.409   1.676  0.00  0.00    +0.279 C 
ATOM     27  O   UNL     1       7.022   1.200   1.254  0.00  0.00    -0.341 OA
BRANCH  26  28
ATOM     28  O   UNL     1       9.178   0.306   1.257  0.00  0.00    -0.365 OA
ATOM     29  H   UNL     1       8.896  -0.546   1.617  0.00  0.00    +0.213 HD
ENDBRANCH  26  28
BRANCH  25  30
ATOM     30  O   UNL     1      10.273   2.882   1.423  0.00  0.00    -0.384 OA
ATOM     31  H   UNL     1      10.414   2.954   2.377  0.00  0.00    +0.210 HD
ENDBRANCH  25  30
BRANCH  24  32
ATOM     32  O   UNL     1       9.626   1.531  -0.944  0.00  0.00    -0.386 OA
ATOM     33  H   UNL     1      10.564   1.637  -0.735  0.00  0.00    +0.210 HD
ENDBRANCH  24  32
BRANCH  23  34
ATOM     34  O   UNL     1       6.528   3.428  -0.451  0.00  0.00    -0.386 OA
ATOM     35  H   UNL     1       6.773   4.271  -0.857  0.00  0.00    +0.210 HD
ENDBRANCH  23  34
ENDBRANCH  21  22
ENDBRANCH  20  21
ENDBRANCH   1  20
TORSDOF 10
