REMARK  Name = ZINC59830701
REMARK  8 active torsions:
REMARK  status: ('A' for Active; 'I' for Inactive)
REMARK    1  A    between atoms: C_1  and  C_2
REMARK    2  A    between atoms: C_2  and  C_26
REMARK    3  A    between atoms: N_3  and  N_4
REMARK    4  A    between atoms: C_7  and  S_10
REMARK    5  A    between atoms: S_10  and  C_11
REMARK    6  A    between atoms: C_11  and  C_12
REMARK    7  A    between atoms: N_14  and  C_15
REMARK    8  A    between atoms: C_31  and  O_32
REMARK                            x       y       z     vdW  Elec       q    Type
REMARK                         _______ _______ _______ _____ _____    ______ ____
ROOT
ATOM      1  N   UNL     1       0.024   0.035   2.340  0.00  0.00    -0.205 N 
ATOM      2  C   UNL     1       0.044  -0.663   3.533  0.00  0.00    +0.232 A 
ATOM      3  N   UNL     1       0.069  -1.973   3.664  0.00  0.00    -0.186 NA
ATOM      4  C   UNL     1       0.085  -2.295   4.962  0.00  0.00    +0.211 A 
ATOM      5  N   UNL     1       0.070  -1.194   5.675  0.00  0.00    -0.144 NA
ATOM      6  N   UNL     1       0.049  -0.121   4.770  0.00  0.00    -0.245 N 
ATOM      7  H   UNL     1       0.011   1.005   2.345  0.00  0.00    +0.177 HD
ATOM      8  H   UNL     1       0.038   0.824   4.990  0.00  0.00    +0.192 HD
ENDROOT
BRANCH   1  11
ATOM      9  C   UNL     1      -0.018   1.503   0.010  0.00  0.00    +0.068 C 
ATOM     10  C   UNL     1       0.002  -0.004   0.002  0.00  0.00    +0.067 C 
ATOM     11  N   UNL     1       0.022  -0.659   1.123  0.00  0.00    -0.184 NA
BRANCH  10  12
ATOM     12  C   UNL     1      -0.000  -0.734  -1.278  0.00  0.00    +0.039 A 
ATOM     13  C   UNL     1      -0.015  -0.033  -2.486  0.00  0.00    +0.013 A 
ATOM     14  C   UNL     1      -0.017  -0.722  -3.681  0.00  0.00    +0.001 A 
ATOM     15  C   UNL     1      -0.005  -2.107  -3.688  0.00  0.00    +0.004 A 
ATOM     16  C   UNL     1       0.010  -2.812  -2.499  0.00  0.00    +0.046 A 
ATOM     17  C   UNL     1       0.019  -2.135  -1.291  0.00  0.00    +0.126 A 
BRANCH  17  18
ATOM     18  O   UNL     1       0.040  -2.827  -0.122  0.00  0.00    -0.506 OA
ATOM     19  H   UNL     1      -0.837  -3.040   0.225  0.00  0.00    +0.292 HD
ENDBRANCH  17  18
ENDBRANCH  10  12
ENDBRANCH   1  11
BRANCH   4  20
ATOM     20  S   UNL     1       0.119  -3.934   5.609  0.00  0.00    -0.075 S 
BRANCH  20  21
ATOM     21  C   UNL     1       0.128  -3.695   7.407  0.00  0.00    +0.173 C 
BRANCH  21  22
ATOM     22  C   UNL     1       0.158  -5.037   8.092  0.00  0.00    +0.224 C 
ATOM     23  O   UNL     1       0.172  -6.054   7.432  0.00  0.00    -0.275 OA
ATOM     24  N   UNL     1       0.169  -5.107   9.438  0.00  0.00    -0.308 N 
ATOM     25  H   UNL     1       0.158  -4.293   9.966  0.00  0.00    +0.149 HD
BRANCH  24  26
ATOM     26  C   UNL     1       0.198  -6.411  10.104  0.00  0.00    +0.103 C 
ATOM     27  C   UNL     1      -0.416  -6.280  11.496  0.00  0.00    +0.027 C 
ATOM     28  C   UNL     1      -0.181  -7.592  12.254  0.00  0.00    +0.007 C 
ATOM     29  C   UNL     1       1.309  -7.704  12.570  0.00  0.00    +0.035 C 
ATOM     30  C   UNL     1       2.132  -7.488  11.327  0.00  0.00    -0.042 A 
ATOM     31  C   UNL     1       1.623  -6.890  10.197  0.00  0.00    -0.024 A 
ATOM     32  C   UNL     1       2.438  -6.714   9.086  0.00  0.00    +0.006 A 
ATOM     33  C   UNL     1       3.752  -7.136   9.107  0.00  0.00    +0.000 A 
ATOM     34  C   UNL     1       4.261  -7.739  10.242  0.00  0.00    +0.000 A 
ATOM     35  C   UNL     1       3.454  -7.914  11.345  0.00  0.00    +0.004 A 
ENDBRANCH  24  26
ENDBRANCH  21  22
ENDBRANCH  20  21
ENDBRANCH   4  20
TORSDOF 7
