REMARK  Name = ZINC64031609
REMARK  5 active torsions:
REMARK  status: ('A' for Active; 'I' for Inactive)
REMARK    1  A    between atoms: C_1  and  C_2
REMARK    2  A    between atoms: C_2  and  C_3
REMARK    3  A    between atoms: C_6  and  C_9
REMARK    4  A    between atoms: C_24  and  C_26
REMARK    5  A    between atoms: C_26  and  N_27
REMARK                            x       y       z     vdW  Elec       q    Type
REMARK                         _______ _______ _______ _____ _____    ______ ____
ROOT
ATOM      1  C   UNL     1      -5.424  -1.993   0.056  0.00  0.00    +0.133 C 
ATOM      2  C   UNL     1      -5.417  -3.476  -0.330  0.00  0.00    +0.131 C 
ATOM      3  C   UNL     1      -6.867  -3.864  -0.590  0.00  0.00    -0.035 C 
ATOM      4  C   UNL     1      -7.130  -4.890   0.211  0.00  0.00    -0.001 A 
ATOM      5  C   UNL     1      -8.328  -5.731   0.363  0.00  0.00    +0.010 A 
ATOM      6  C   UNL     1      -8.259  -6.707   1.307  0.00  0.00    +0.001 A 
ATOM      7  C   UNL     1      -7.132  -6.927   2.105  0.00  0.00    +0.002 A 
ATOM      8  C   UNL     1      -5.986  -6.205   2.029  0.00  0.00    +0.026 A 
ATOM      9  C   UNL     1      -5.935  -5.153   1.070  0.00  0.00    +0.043 A 
ATOM     10  N   UNL     1      -4.952  -4.322   0.771  0.00  0.00    -0.375 N 
ATOM     11  C   UNL     1      -7.752  -3.098  -1.542  0.00  0.00    +0.052 C 
ATOM     12  C   UNL     1      -7.639  -1.613  -1.153  0.00  0.00    +0.113 C 
ATOM     13  N   UNL     1      -6.229  -1.270  -0.941  0.00  0.00    -0.290 N 
ATOM     14  C   UNL     1      -5.665  -0.284  -1.667  0.00  0.00    +0.238 C 
ATOM     15  O   UNL     1      -4.476  -0.067  -1.574  0.00  0.00    -0.274 OA
ATOM     16  H   UNL     1      -4.082  -4.271   1.198  0.00  0.00    +0.160 HD
ENDROOT
BRANCH   1  20
ATOM     17  C   UNL     1      -1.429  -0.479   0.057  0.00  0.00    -0.048 A 
ATOM     18  C   UNL     1      -1.749  -1.586  -0.707  0.00  0.00    +0.004 A 
ATOM     19  C   UNL     1      -3.042  -2.076  -0.708  0.00  0.00    +0.006 A 
ATOM     20  C   UNL     1      -4.014  -1.459   0.057  0.00  0.00    -0.025 A 
ATOM     21  C   UNL     1      -3.695  -0.353   0.821  0.00  0.00    +0.006 A 
ATOM     22  C   UNL     1      -2.401   0.134   0.825  0.00  0.00    +0.004 A 
BRANCH  17  24
ATOM     23  C   UNL     1       0.785  -0.630   1.163  0.00  0.00    +0.009 C 
ATOM     24  C   UNL     1      -0.020   0.054   0.057  0.00  0.00    +0.032 C 
ENDBRANCH  17  24
ENDBRANCH   1  20
BRANCH  14  25
ATOM     25  C   UNL     1      -6.513   0.547  -2.595  0.00  0.00    +0.241 C 
BRANCH  25  26
ATOM     26  N   UNL     1      -5.671   1.543  -3.264  0.00  0.00    -0.243 N 
ATOM     27  C   UNL     1      -5.551   1.737  -4.589  0.00  0.00    +0.219 A 
ATOM     28  N   UNL     1      -4.707   2.717  -4.780  0.00  0.00    -0.223 NA
ATOM     29  C   UNL     1      -4.269   3.173  -3.607  0.00  0.00    +0.245 A 
ATOM     30  N   UNL     1      -4.835   2.489  -2.648  0.00  0.00    -0.158 NA
ENDBRANCH  25  26
ENDBRANCH  14  25
TORSDOF 4
