REMARK  Name = ZINC39167740
REMARK  6 active torsions:
REMARK  status: ('A' for Active; 'I' for Inactive)
REMARK    1  A    between atoms: C_7  and  C_10
REMARK    2  A    between atoms: N_11  and  N_12
REMARK    3  A    between atoms: C_13  and  C_15
REMARK    4  A    between atoms: C_16  and  N_28
REMARK    5  A    between atoms: N_18  and  C_20
REMARK    6  A    between atoms: C_20  and  C_21
REMARK                            x       y       z     vdW  Elec       q    Type
REMARK                         _______ _______ _______ _____ _____    ______ ____
ROOT
ATOM      1  N   UNL     1       0.368  -5.437  -0.032  0.00  0.00    -0.202 N 
ATOM      2  C   UNL     1       0.860  -6.691  -0.044  0.00  0.00    +0.286 C 
ATOM      3  O   UNL     1       2.061  -6.872  -0.057  0.00  0.00    -0.267 OA
ATOM      4  H   UNL     1      -0.592  -5.292  -0.022  0.00  0.00    +0.178 HD
ENDROOT
BRANCH   2   5
ATOM      5  C   UNL     1      -0.060  -7.845  -0.043  0.00  0.00    +0.179 A 
ATOM      6  C   UNL     1       0.306  -9.212  -0.048  0.00  0.00    +0.176 A 
ATOM      7  C   UNL     1      -0.860  -9.899  -0.044  0.00  0.00    +0.142 A 
ATOM      8  N   UNL     1      -1.863  -8.986  -0.035  0.00  0.00    -0.264 N 
ATOM      9  N   UNL     1      -1.378  -7.797  -0.029  0.00  0.00    -0.164 NA
BRANCH   6  10
ATOM     10  N   UNL     1       1.675  -9.773  -0.058  0.00  0.00    +0.060 N 
ATOM     11  O   UNL     1       1.853 -11.078  -0.063  0.00  0.00    -0.126 OA
ATOM     12  O   UNL     1       2.717  -8.967  -0.062  0.00  0.00    -0.126 OA
ENDBRANCH   6  10
BRANCH   8  13
ATOM     13  C   UNL     1      -3.292  -9.309  -0.028  0.00  0.00    +0.178 C 
BRANCH  13  14
ATOM     14  C   UNL     1      -3.955  -8.629   1.141  0.00  0.00    -0.025 A 
ATOM     15  C   UNL     1      -4.034  -9.273   2.362  0.00  0.00    +0.005 A 
ATOM     16  C   UNL     1      -4.642  -8.649   3.435  0.00  0.00    +0.001 A 
ATOM     17  C   UNL     1      -5.172  -7.380   3.288  0.00  0.00    +0.015 A 
ATOM     18  C   UNL     1      -5.093  -6.736   2.067  0.00  0.00    +0.018 A 
ATOM     19  C   UNL     1      -4.479  -7.358   0.995  0.00  0.00    +0.020 A 
ATOM     20 BR   UNL     1      -5.818  -5.001   1.865  0.00  0.00    -0.050 Br
ENDBRANCH  13  14
ENDBRANCH   8  13
ENDBRANCH   2   5
BRANCH   1  22
ATOM     21  C   UNL     1       0.688  -3.195  -0.022  0.00  0.00    +0.136 C 
ATOM     22  N   UNL     1       1.172  -4.428  -0.034  0.00  0.00    -0.188 NA
BRANCH  21  29
ATOM     23  C   UNL     1      -0.017   1.391   0.010  0.00  0.00    +0.001 A 
ATOM     24  C   UNL     1       1.149   2.141   0.003  0.00  0.00    +0.002 A 
ATOM     25  C   UNL     1       2.390   1.544  -0.013  0.00  0.00    +0.026 A 
ATOM     26  C   UNL     1       2.475   0.072  -0.022  0.00  0.00    +0.043 A 
ATOM     27  N   UNL     1       3.497  -0.734  -0.036  0.00  0.00    -0.380 N 
ATOM     28  C   UNL     1       3.064  -2.133  -0.039  0.00  0.00    +0.150 C 
ATOM     29  C   UNL     1       1.550  -2.113  -0.024  0.00  0.00    +0.000 C 
ATOM     30  C   UNL     1       1.205  -0.689  -0.013  0.00  0.00    +0.004 A 
ATOM     31  C   UNL     1       0.002  -0.004   0.002  0.00  0.00    +0.010 A 
ATOM     32  H   UNL     1       4.423  -0.446  -0.044  0.00  0.00    +0.160 HD
ENDBRANCH  21  29
ENDBRANCH   1  22
TORSDOF 6
