REMARK  Name = ZINC58849926
REMARK  6 active torsions:
REMARK  status: ('A' for Active; 'I' for Inactive)
REMARK    1  A    between atoms: C_4  and  N_36
REMARK    2  A    between atoms: C_5  and  C_7
REMARK    3  A    between atoms: C_18  and  S_23
REMARK    4  A    between atoms: S_23  and  N_26
REMARK    5  A    between atoms: N_26  and  C_27
REMARK    6  A    between atoms: C_30  and  C_33
REMARK                            x       y       z     vdW  Elec       q    Type
REMARK                         _______ _______ _______ _____ _____    ______ ____
ROOT
ATOM      1  C   UNL     1       0.857  -4.064   4.207  0.00  0.00    +0.107 C 
ATOM      2  C   UNL     1       1.272  -3.500   2.881  0.00  0.00    +0.029 C 
ATOM      3  C   UNL     1       0.518  -2.199   2.536  0.00  0.00    +0.033 C 
ATOM      4  C   UNL     1       0.502  -2.181   1.022  0.00  0.00    -0.030 C 
ATOM      5  C   UNL     1       0.760  -3.368   0.538  0.00  0.00    -0.023 C 
ATOM      6  C   UNL     1       0.955  -4.359   1.660  0.00  0.00    +0.049 C 
ATOM      7  C   UNL     1      -0.315  -5.150   1.806  0.00  0.00    -0.018 A 
ATOM      8  C   UNL     1      -0.868  -5.722   0.670  0.00  0.00    +0.034 A 
ATOM      9  C   UNL     1      -2.039  -6.449   0.752  0.00  0.00    +0.109 A 
ATOM     10  C   UNL     1      -2.672  -6.610   1.971  0.00  0.00    +0.030 A 
ATOM     11  C   UNL     1      -2.127  -6.048   3.107  0.00  0.00    +0.025 A 
ATOM     12  C   UNL     1      -0.943  -5.320   3.027  0.00  0.00    +0.031 A 
ATOM     13  N   UNL     1      -0.387  -4.805   4.183  0.00  0.00    -0.336 N 
ATOM     14  H   UNL     1      -0.873  -4.926   5.013  0.00  0.00    +0.147 HD
ENDROOT
BRANCH   1  19
ATOM     15  C   UNL     1      -0.671  -1.408   6.413  0.00  0.00    +0.000 A 
ATOM     16  C   UNL     1       0.454  -0.838   6.979  0.00  0.00    +0.002 A 
ATOM     17  C   UNL     1       1.710  -1.312   6.647  0.00  0.00    +0.033 A 
ATOM     18  C   UNL     1       1.840  -2.356   5.750  0.00  0.00    +0.131 A 
ATOM     19  C   UNL     1       0.715  -2.926   5.186  0.00  0.00    +0.003 A 
ATOM     20  C   UNL     1      -0.541  -2.451   5.516  0.00  0.00    +0.008 A 
BRANCH  18  21
ATOM     21  N   UNL     1       3.184  -2.862   5.395  0.00  0.00    +0.057 N 
ATOM     22  O   UNL     1       4.169  -2.363   5.888  0.00  0.00    -0.126 OA
ATOM     23  O   UNL     1       3.299  -3.776   4.611  0.00  0.00    -0.126 OA
ENDBRANCH  18  21
ENDBRANCH   1  19
BRANCH   9  24
ATOM     24  S   UNL     1      -2.730  -7.170  -0.699  0.00  0.00    +0.072 S 
ATOM     25  O   UNL     1      -4.135  -7.224  -0.497  0.00  0.00    -0.150 OA
ATOM     26  O   UNL     1      -2.144  -6.497  -1.806  0.00  0.00    -0.150 OA
BRANCH  24  27
ATOM     27  N   UNL     1      -2.200  -8.738  -0.765  0.00  0.00    -0.216 N 
ATOM     28  H   UNL     1      -2.834  -9.468  -0.682  0.00  0.00    +0.174 HD
BRANCH  27  29
ATOM     29  C   UNL     1      -0.849  -9.008  -0.940  0.00  0.00    +0.048 A 
ATOM     30  C   UNL     1      -0.262  -8.832  -2.191  0.00  0.00    +0.025 A 
ATOM     31  C   UNL     1       1.067  -9.097  -2.367  0.00  0.00    +0.017 A 
ATOM     32  C   UNL     1       1.838  -9.545  -1.288  0.00  0.00    +0.063 A 
ATOM     33  C   UNL     1       1.244  -9.721  -0.033  0.00  0.00    +0.017 A 
ATOM     34  C   UNL     1      -0.084  -9.449   0.137  0.00  0.00    +0.025 A 
BRANCH  32  35
ATOM     35  C   UNL     1       3.269  -9.832  -1.474  0.00  0.00    +0.387 C 
ATOM     36  O   UNL     1       3.787  -9.678  -2.571  0.00  0.00    -0.241 OA
ATOM     37  O   UNL     1       3.942 -10.224  -0.530  0.00  0.00    -0.241 OA
ENDBRANCH  32  35
ENDBRANCH  27  29
ENDBRANCH  24  27
ENDBRANCH   9  24
TORSDOF 6
