REMARK  Name = ZINC46772997
REMARK  7 active torsions:
REMARK  status: ('A' for Active; 'I' for Inactive)
REMARK    1  A    between atoms: C_1  and  C_2
REMARK    2  A    between atoms: C_3  and  N_9
REMARK    3  A    between atoms: N_9  and  C_10
REMARK    4  A    between atoms: C_10  and  N_12
REMARK    5  A    between atoms: N_12  and  N_13
REMARK    6  A    between atoms: C_14  and  C_16
REMARK    7  A    between atoms: C_16  and  C_17
REMARK                            x       y       z     vdW  Elec       q    Type
REMARK                         _______ _______ _______ _____ _____    ______ ____
ROOT
ATOM      1  N   UNL     1       0.162   1.431  -4.730  0.00  0.00    -0.235 N 
ATOM      2  C   UNL     1       0.249   2.114  -5.888  0.00  0.00    +0.235 C 
ATOM      3  O   UNL     1       0.343   1.516  -6.939  0.00  0.00    -0.274 OA
ATOM      4  H   UNL     1       0.086   1.909  -3.889  0.00  0.00    +0.173 HD
ENDROOT
BRANCH   1   5
ATOM      5  N   UNL     1       0.182   0.030  -4.739  0.00  0.00    -0.246 N 
ATOM      6  H   UNL     1       0.258  -0.448  -5.580  0.00  0.00    +0.172 HD
BRANCH   5   7
ATOM      7  C   UNL     1       0.095  -0.653  -3.581  0.00  0.00    +0.151 C 
ATOM      8  S   UNL     1       0.119  -2.365  -3.593  0.00  0.00    -0.017 S 
BRANCH   7   9
ATOM      9  N   UNL     1      -0.010   0.011  -2.413  0.00  0.00    -0.296 N 
ATOM     10  H   UNL     1      -0.104   0.976  -2.411  0.00  0.00    +0.154 HD
BRANCH   9  13
ATOM     11  C   UNL     1      -1.912   0.706  -0.414  0.00  0.00    +0.047 C 
ATOM     12  C   UNL     1      -0.895  -0.385  -0.201  0.00  0.00    -0.011 A 
ATOM     13  C   UNL     1       0.016  -0.692  -1.204  0.00  0.00    +0.037 A 
ATOM     14  C   UNL     1       0.952  -1.698  -1.004  0.00  0.00    +0.023 A 
ATOM     15  C   UNL     1       0.975  -2.391   0.191  0.00  0.00    +0.003 A 
ATOM     16  C   UNL     1       0.068  -2.084   1.188  0.00  0.00    +0.020 A 
ATOM     17  C   UNL     1      -0.863  -1.078   0.994  0.00  0.00    +0.046 A 
ATOM     18 CL   UNL     1      -1.996  -0.691   2.251  0.00  0.00    -0.083 Cl
ENDBRANCH   9  13
ENDBRANCH   7   9
ENDBRANCH   5   7
ENDBRANCH   1   5
BRANCH   2  19
ATOM     19  C   UNL     1       0.228   3.621  -5.878  0.00  0.00    +0.155 C 
BRANCH  19  20
ATOM     20  C   UNL     1       0.337   4.134  -7.290  0.00  0.00    +0.078 A 
ATOM     21  C   UNL     1       0.345   5.575  -7.546  0.00  0.00    +0.011 A 
ATOM     22  C   UNL     1       0.254   6.508  -6.511  0.00  0.00    +0.010 A 
ATOM     23  C   UNL     1       0.265   7.843  -6.801  0.00  0.00    +0.001 A 
ATOM     24  C   UNL     1       0.367   8.288  -8.113  0.00  0.00    +0.001 A 
ATOM     25  C   UNL     1       0.458   7.391  -9.155  0.00  0.00    +0.014 A 
ATOM     26  C   UNL     1       0.449   6.023  -8.883  0.00  0.00    +0.050 A 
ATOM     27  C   UNL     1       0.544   5.017  -9.947  0.00  0.00    +0.272 A 
ATOM     28  O   UNL     1       0.636   5.355 -11.114  0.00  0.00    -0.266 OA
ATOM     29  N   UNL     1       0.528   3.711  -9.609  0.00  0.00    -0.242 N 
ATOM     30  H   UNL     1       0.591   3.041 -10.309  0.00  0.00    +0.192 HD
ATOM     31  N   UNL     1       0.430   3.298  -8.280  0.00  0.00    -0.175 NA
ENDBRANCH  19  20
ENDBRANCH   2  19
TORSDOF 6
