REMARK  Name = ZINC58903514
REMARK  6 active torsions:
REMARK  status: ('A' for Active; 'I' for Inactive)
REMARK    1  A    between atoms: C_1  and  C_2
REMARK    2  A    between atoms: N_5  and  C_7
REMARK    3  A    between atoms: C_14  and  N_29
REMARK    4  A    between atoms: C_15  and  C_26
REMARK    5  A    between atoms: C_16  and  C_18
REMARK    6  A    between atoms: C_21  and  C_24
REMARK                            x       y       z     vdW  Elec       q    Type
REMARK                         _______ _______ _______ _____ _____    ______ ____
ROOT
ATOM      1  C   UNL     1       0.500   1.530  -0.089  0.00  0.00    +0.068 C 
ATOM      2  C   UNL     1       0.286   0.038  -0.053  0.00  0.00    +0.068 A 
ATOM      3  C   UNL     1       0.164  -0.794  -1.158  0.00  0.00    +0.049 A 
ATOM      4  C   UNL     1      -0.018  -2.072  -0.709  0.00  0.00    +0.230 A 
ATOM      5  N   UNL     1      -0.008  -2.033   0.642  0.00  0.00    -0.200 N 
ATOM      6  N   UNL     1       0.189  -0.698   1.029  0.00  0.00    -0.168 NA
ATOM      7  O   UNL     1      -0.174  -3.128  -1.545  0.00  0.00    -0.423 OA
ATOM      8  C   UNL     1      -0.422  -2.865  -2.843  0.00  0.00    +0.195 C 
ATOM      9  C   UNL     1      -0.266  -1.644  -3.407  0.00  0.00    +0.083 C 
ATOM     10  C   UNL     1       0.210  -0.446  -2.623  0.00  0.00    +0.096 C 
ENDROOT
BRANCH   5  11
ATOM     11  C   UNL     1      -0.162  -3.129   1.502  0.00  0.00    +0.069 A 
ATOM     12  C   UNL     1      -1.004  -4.176   1.151  0.00  0.00    +0.028 A 
ATOM     13  C   UNL     1      -1.153  -5.255   2.000  0.00  0.00    +0.002 A 
ATOM     14  C   UNL     1      -0.465  -5.293   3.199  0.00  0.00    +0.000 A 
ATOM     15  C   UNL     1       0.375  -4.253   3.551  0.00  0.00    +0.002 A 
ATOM     16  C   UNL     1       0.532  -3.174   2.703  0.00  0.00    +0.028 A 
ENDBRANCH   5  11
BRANCH  10  17
ATOM     17  C   UNL     1       1.624  -0.109  -3.022  0.00  0.00    -0.035 A 
ATOM     18  C   UNL     1       2.624  -1.054  -2.877  0.00  0.00    +0.006 A 
ATOM     19  C   UNL     1       3.921  -0.752  -3.240  0.00  0.00    +0.019 A 
ATOM     20  C   UNL     1       4.222   0.511  -3.754  0.00  0.00    +0.052 A 
ATOM     21  C   UNL     1       3.207   1.460  -3.898  0.00  0.00    +0.019 A 
ATOM     22  C   UNL     1       1.915   1.142  -3.536  0.00  0.00    +0.006 A 
BRANCH  20  23
ATOM     23  C   UNL     1       5.565   0.832  -4.132  0.00  0.00    +0.099 C 
ATOM     24  N   UNL     1       6.631   1.086  -4.432  0.00  0.00    -0.191 NA
ENDBRANCH  20  23
ENDBRANCH  10  17
BRANCH   9  25
ATOM     25  C   UNL     1      -0.558  -1.487  -4.772  0.00  0.00    +0.243 C 
ATOM     26  O   UNL     1      -1.613  -0.980  -5.114  0.00  0.00    -0.271 OA
ATOM     27  N   UNL     1       0.326  -1.897  -5.702  0.00  0.00    -0.325 N 
ATOM     28  H   UNL     1       1.165  -2.300  -5.430  0.00  0.00    +0.145 HD
ATOM     29  H   UNL     1       0.124  -1.789  -6.645  0.00  0.00    +0.145 HD
ENDBRANCH   9  25
BRANCH   8  30
ATOM     30  N   UNL     1      -0.856  -3.892  -3.638  0.00  0.00    -0.329 N 
ATOM     31  H   UNL     1      -0.893  -4.795  -3.287  0.00  0.00    +0.145 HD
ATOM     32  H   UNL     1      -1.126  -3.716  -4.553  0.00  0.00    +0.145 HD
ENDBRANCH   8  30
TORSDOF 5
