REMARK  Name = ZINC11847317
REMARK  11 active torsions:
REMARK  status: ('A' for Active; 'I' for Inactive)
REMARK    1  A    between atoms: C_1  and  C_2
REMARK    2  A    between atoms: C_5  and  O_12
REMARK    3  A    between atoms: C_8  and  C_10
REMARK    4  A    between atoms: C_8  and  C_11
REMARK    5  A    between atoms: O_12  and  C_13
REMARK    6  A    between atoms: C_13  and  C_14
REMARK    7  A    between atoms: C_14  and  C_16
REMARK    8  A    between atoms: C_14  and  O_38
REMARK    9  A    between atoms: C_16  and  N_76
REMARK   10  A    between atoms: C_19  and  C_22
REMARK   11  A    between atoms: C_22  and  N_23
REMARK                            x       y       z     vdW  Elec       q    Type
REMARK                         _______ _______ _______ _____ _____    ______ ____
ROOT
ATOM      1  C   UNL     1      -0.620   3.022   1.329  0.00  0.00    -0.078 C 
ATOM      2  C   UNL     1      -1.466   3.491   2.514  0.00  0.00    -0.014 C 
ATOM      3  C   UNL     1      -0.950   2.833   3.797  0.00  0.00    +0.003 C 
ATOM      4  C   UNL     1      -0.998   1.311   3.635  0.00  0.00    -0.014 C 
ATOM      5  C   UNL     1      -0.165   0.905   2.417  0.00  0.00    -0.078 C 
ATOM      6  N   UNL     1      -0.729   1.552   1.213  0.00  0.00    +0.381 N 
ATOM      7  H   UNL     1      -1.720   1.296   1.131  0.00  0.00    -0.082 HD
ENDROOT
BRANCH   6   8
ATOM      8  C   UNL     1      -0.013   1.086   0.008  0.00  0.00    -0.045 C 
BRANCH   8   9
ATOM      9  C   UNL     1      -0.753   1.593  -1.232  0.00  0.00    +0.124 C 
BRANCH   9  10
ATOM     10  O   UNL     1      -2.093   1.098  -1.221  0.00  0.00    -0.391 OA
ATOM     11  H   UNL     1      -2.157   0.133  -1.226  0.00  0.00    +0.210 HD
ENDBRANCH   9  10
BRANCH   9  12
ATOM     12  C   UNL     1      -0.037   1.099  -2.490  0.00  0.00    +0.189 C 
BRANCH  12  13
ATOM     13  O   UNL     1      -0.658   1.667  -3.645  0.00  0.00    -0.374 OA
BRANCH  13  17
ATOM     14  C   UNL     1       2.800   2.808  -6.947  0.00  0.00    +0.007 C 
ATOM     15  C   UNL     1       1.688   1.824  -6.575  0.00  0.00    -0.011 C 
ATOM     16  C   UNL     1       1.050   2.252  -5.252  0.00  0.00    +0.035 C 
ATOM     17  C   UNL     1      -0.062   1.268  -4.881  0.00  0.00    +0.119 C 
ATOM     18  C   UNL     1      -1.125   1.261  -5.981  0.00  0.00    +0.038 C 
ATOM     19  C   UNL     1      -0.487   0.834  -7.305  0.00  0.00    -0.032 C 
ATOM     20  C   UNL     1       0.625   1.818  -7.676  0.00  0.00    +0.009 C 
ATOM     21  C   UNL     1       0.103  -0.570  -7.157  0.00  0.00    +0.011 C 
ATOM     22  C   UNL     1      -1.550   0.827  -8.405  0.00  0.00    +0.011 C 
ENDBRANCH  13  17
ENDBRANCH  12  13
ENDBRANCH   9  12
ENDBRANCH   8   9
ENDBRANCH   6   8
BRANCH   3  23
ATOM     23  C   UNL     1      -1.829   3.250   4.976  0.00  0.00    +0.120 C 
BRANCH  23  24
ATOM     24  N   UNL     1      -1.689   4.691   5.205  0.00  0.00    -0.234 N 
ATOM     25  C   UNL     1      -0.735   5.123   6.051  0.00  0.00    +0.254 C 
ATOM     26  O   UNL     1      -0.011   4.319   6.607  0.00  0.00    -0.270 OA
ATOM     27  C   UNL     1      -0.560   6.561   6.301  0.00  0.00    +0.046 A 
ATOM     28  C   UNL     1       0.413   7.050   7.160  0.00  0.00    +0.014 A 
ATOM     29  C   UNL     1       0.537   8.419   7.368  0.00  0.00    +0.001 A 
ATOM     30  C   UNL     1      -0.284   9.314   6.745  0.00  0.00    +0.008 A 
ATOM     31  C   UNL     1      -1.283   8.860   5.866  0.00  0.00    -0.016 A 
ATOM     32  C   UNL     1      -1.418   7.473   5.646  0.00  0.00    +0.006 A 
ATOM     33  C   UNL     1      -2.413   6.985   4.769  0.00  0.00    +0.046 A 
ATOM     34  C   UNL     1      -3.250   7.888   4.130  0.00  0.00    +0.014 A 
ATOM     35  C   UNL     1      -3.107   9.252   4.355  0.00  0.00    +0.001 A 
ATOM     36  C   UNL     1      -2.152   9.741   5.199  0.00  0.00    +0.008 A 
ATOM     37  C   UNL     1      -2.523   5.533   4.565  0.00  0.00    +0.254 C 
ATOM     38  O   UNL     1      -3.371   5.090   3.815  0.00  0.00    -0.270 OA
ENDBRANCH  23  24
ENDBRANCH   3  23
TORSDOF 8
