REMARK  Name = ZINC16739619
REMARK  8 active torsions:
REMARK  status: ('A' for Active; 'I' for Inactive)
REMARK    1  A    between atoms: C_1  and  O_2
REMARK    2  A    between atoms: O_2  and  C_3
REMARK    3  A    between atoms: C_5  and  C_10
REMARK    4  A    between atoms: C_8  and  O_9
REMARK    5  A    between atoms: N_11  and  N_12
REMARK    6  A    between atoms: C_17  and  C_20
REMARK    7  A    between atoms: C_20  and  C_21
REMARK    8  A    between atoms: C_21  and  C_23
REMARK                            x       y       z     vdW  Elec       q    Type
REMARK                         _______ _______ _______ _____ _____    ______ ____
ROOT
ATOM      1  N   UNL     1      -7.382   0.141   3.199  0.00  0.00    -0.127 NA
ATOM      2  C   UNL     1      -6.706   0.431   2.108  0.00  0.00    +0.183 C 
ATOM      3  N   UNL     1      -7.087   1.242   1.060  0.00  0.00    -0.263 N 
ATOM      4  C   UNL     1      -6.311   1.455   0.010  0.00  0.00    +0.232 C 
ATOM      5  O   UNL     1      -6.651   2.169  -0.910  0.00  0.00    -0.274 OA
ATOM      6  C   UNL     1      -4.965   0.749   0.030  0.00  0.00    +0.147 C 
ATOM      7  S   UNL     1      -5.078  -0.134   1.636  0.00  0.00    -0.075 S 
ATOM      8  H   UNL     1      -7.956   1.672   1.093  0.00  0.00    +0.157 HD
ENDROOT
BRANCH   1  10
ATOM      9  C   UNL     1      -9.228   0.354   4.465  0.00  0.00    +0.143 C 
ATOM     10  N   UNL     1      -8.557   0.641   3.382  0.00  0.00    -0.155 NA
BRANCH   9  13
ATOM     11  C   UNL     1     -12.546   1.157   6.022  0.00  0.00    +0.162 A 
ATOM     12  C   UNL     1     -11.290   0.613   5.829  0.00  0.00    +0.059 A 
ATOM     13  C   UNL     1     -10.568   0.924   4.673  0.00  0.00    -0.002 A 
ATOM     14  C   UNL     1     -11.125   1.775   3.713  0.00  0.00    +0.013 A 
ATOM     15  C   UNL     1     -12.381   2.308   3.910  0.00  0.00    +0.050 A 
ATOM     16  C   UNL     1     -13.095   2.003   5.060  0.00  0.00    +0.158 A 
BRANCH  11  18
ATOM     17  C   UNL     1     -12.627  -0.014   8.091  0.00  0.00    +0.277 C 
ATOM     18  O   UNL     1     -13.250   0.860   7.147  0.00  0.00    -0.491 OA
ENDBRANCH  11  18
BRANCH  16  19
ATOM     19  O   UNL     1     -14.333   2.531   5.250  0.00  0.00    -0.503 OA
ATOM     20  H   UNL     1     -15.051   1.988   4.897  0.00  0.00    +0.292 HD
ENDBRANCH  16  19
ENDBRANCH   9  13
ENDBRANCH   1  10
BRANCH   6  21
ATOM     21  C   UNL     1      -3.812   1.754   0.030  0.00  0.00    +0.103 C 
BRANCH  21  22
ATOM     22  C   UNL     1      -2.499   1.013   0.019  0.00  0.00    +0.165 C 
ATOM     23  O   UNL     1      -2.488  -0.200   0.013  0.00  0.00    -0.292 OA
BRANCH  22  24
ATOM     24  C   UNL     1      -1.232   1.760   0.017  0.00  0.00    +0.018 A 
ATOM     25  C   UNL     1      -0.013   1.076   0.008  0.00  0.00    +0.013 A 
ATOM     26  C   UNL     1       1.170   1.783   0.001  0.00  0.00    +0.020 A 
ATOM     27  C   UNL     1       1.153   3.168   0.008  0.00  0.00    +0.041 A 
ATOM     28  C   UNL     1      -0.051   3.853   0.022  0.00  0.00    +0.020 A 
ATOM     29  C   UNL     1      -1.242   3.159   0.029  0.00  0.00    +0.013 A 
ATOM     30 CL   UNL     1       2.649   4.050  -0.002  0.00  0.00    -0.084 Cl
ENDBRANCH  22  24
ENDBRANCH  21  22
ENDBRANCH   6  21
TORSDOF 7
