REMARK  Name = ZINC61595278
REMARK  9 active torsions:
REMARK  status: ('A' for Active; 'I' for Inactive)
REMARK    1  A    between atoms: C_1  and  C_2
REMARK    2  A    between atoms: C_2  and  C_4
REMARK    3  A    between atoms: C_2  and  N_23
REMARK    4  A    between atoms: C_4  and  C_6
REMARK    5  A    between atoms: C_4  and  S_12
REMARK    6  A    between atoms: S_12  and  C_13
REMARK    7  A    between atoms: N_19  and  C_20
REMARK    8  A    between atoms: C_20  and  C_21
REMARK    9  A    between atoms: C_20  and  C_22
REMARK                            x       y       z     vdW  Elec       q    Type
REMARK                         _______ _______ _______ _____ _____    ______ ____
ROOT
ATOM      1  C   UNL     1       0.854  -0.524   1.162  0.00  0.00    +0.070 C 
ENDROOT
BRANCH   1   2
ATOM      2  C   UNL     1       0.972  -2.001   0.888  0.00  0.00    -0.033 A 
ATOM      3  C   UNL     1       1.498  -2.461  -0.310  0.00  0.00    +0.024 A 
ATOM      4  C   UNL     1       1.591  -3.823  -0.526  0.00  0.00    +0.111 A 
ATOM      5  N   UNL     1       1.186  -4.681   0.390  0.00  0.00    -0.263 NA
ATOM      6  C   UNL     1       0.681  -4.279   1.540  0.00  0.00    +0.111 A 
ATOM      7  C   UNL     1       0.563  -2.933   1.829  0.00  0.00    +0.024 A 
ENDBRANCH   1   2
BRANCH   1   9
ATOM      8  C   UNL     1      -0.224   1.606   0.425  0.00  0.00    -0.013 C 
ATOM      9  C   UNL     1      -0.051   0.119   0.109  0.00  0.00    -0.060 C 
BRANCH   9  10
ATOM     10  N   UNL     1      -1.363  -0.541   0.121  0.00  0.00    +0.381 N 
ATOM     11  H   UNL     1      -1.782  -0.438   1.033  0.00  0.00    -0.090 HD
ATOM     12  H   UNL     1      -1.959  -0.117  -0.573  0.00  0.00    -0.090 HD
ATOM     13  H   UNL     1      -1.248  -1.521  -0.087  0.00  0.00    -0.090 HD
ENDBRANCH   9  10
ENDBRANCH   1   9
BRANCH   1  14
ATOM     14  S   UNL     1       2.499   0.237   1.092  0.00  0.00    -0.080 S 
BRANCH  14  15
ATOM     15  C   UNL     1       3.339  -0.435   2.488  0.00  0.00    +0.193 A 
ATOM     16  N   UNL     1       2.809  -1.205   3.394  0.00  0.00    -0.145 NA
ATOM     17  N   UNL     1       3.804  -1.521   4.330  0.00  0.00    -0.226 N 
ATOM     18  H   UNL     1       3.697  -2.080   5.115  0.00  0.00    +0.194 HD
ATOM     19  C   UNL     1       4.939  -0.906   3.937  0.00  0.00    +0.345 A 
ATOM     20  O   UNL     1       6.016  -0.950   4.504  0.00  0.00    -0.245 OA
ATOM     21  N   UNL     1       4.665  -0.237   2.799  0.00  0.00    -0.268 N 
BRANCH  21  22
ATOM     22  C   UNL     1       5.617   0.566   2.026  0.00  0.00    +0.088 C 
ATOM     23  C   UNL     1       6.160   1.696   2.903  0.00  0.00    +0.031 C 
ATOM     24  C   UNL     1       6.774  -0.321   1.562  0.00  0.00    +0.031 C 
ENDBRANCH  21  22
ENDBRANCH  14  15
ENDBRANCH   1  14
TORSDOF 6
