REMARK  Name = ZINC36073375
REMARK  12 active torsions:
REMARK  status: ('A' for Active; 'I' for Inactive)
REMARK    1  A    between atoms: C_1  and  C_2
REMARK    2  A    between atoms: C_2  and  C_4
REMARK    3  A    between atoms: C_2  and  N_10
REMARK    4  A    between atoms: N_10  and  C_11
REMARK    5  A    between atoms: N_10  and  C_20
REMARK    6  A    between atoms: C_11  and  C_12
REMARK    7  A    between atoms: C_20  and  C_21
REMARK    8  A    between atoms: C_23  and  C_26
REMARK    9  A    between atoms: N_28  and  C_29
REMARK   10  A    between atoms: C_29  and  C_30
REMARK   11  A    between atoms: C_30  and  C_31
REMARK   12  A    between atoms: C_30  and  C_32
REMARK                            x       y       z     vdW  Elec       q    Type
REMARK                         _______ _______ _______ _____ _____    ______ ____
ROOT
ATOM      1  N   UNL     1       1.351  -0.578  -1.823  0.00  0.00    +0.393 N 
ATOM      2  H   UNL     1       2.264  -0.216  -2.055  0.00  0.00    -0.080 HD
ENDROOT
BRANCH   1   4
ATOM      3  C   UNL     1       0.621   1.216  -0.325  0.00  0.00    -0.008 C 
ATOM      4  C   UNL     1       1.036  -0.253  -0.426  0.00  0.00    -0.040 C 
BRANCH   4   5
ATOM      5  C   UNL     1       2.252  -0.492   0.432  0.00  0.00    -0.061 A 
ATOM      6  C   UNL     1       3.511  -0.188  -0.053  0.00  0.00    +0.002 A 
ATOM      7  C   UNL     1       4.626  -0.406   0.734  0.00  0.00    +0.000 A 
ATOM      8  C   UNL     1       4.483  -0.929   2.006  0.00  0.00    +0.000 A 
ATOM      9  C   UNL     1       3.225  -1.232   2.491  0.00  0.00    +0.000 A 
ATOM     10  C   UNL     1       2.109  -1.009   1.706  0.00  0.00    +0.002 A 
ENDBRANCH   4   5
ENDBRANCH   1   4
BRANCH   1  11
ATOM     11  C   UNL     1       1.343  -2.036  -2.001  0.00  0.00    -0.040 C 
BRANCH  11  12
ATOM     12  C   UNL     1       2.501  -2.640  -1.249  0.00  0.00    -0.045 A 
ATOM     13  C   UNL     1       3.790  -2.487  -1.725  0.00  0.00    +0.004 A 
ATOM     14  C   UNL     1       4.852  -3.041  -1.036  0.00  0.00    +0.020 A 
ATOM     15  C   UNL     1       4.626  -3.749   0.131  0.00  0.00    +0.042 A 
ATOM     16  C   UNL     1       3.337  -3.903   0.608  0.00  0.00    +0.040 A 
ATOM     17  C   UNL     1       2.275  -3.344  -0.080  0.00  0.00    +0.044 A 
ATOM     18 CL   UNL     1       0.657  -3.532   0.521  0.00  0.00    -0.083 Cl
ATOM     19 CL   UNL     1       5.961  -4.445   0.996  0.00  0.00    -0.083 Cl
ENDBRANCH  11  12
ENDBRANCH   1  11
BRANCH   1  20
ATOM     20  C   UNL     1       0.346   0.029  -2.706  0.00  0.00    +0.020 C 
BRANCH  20  21
ATOM     21  C   UNL     1       0.768   1.431  -3.059  0.00  0.00    +0.179 A 
ATOM     22  N   UNL     1       1.639   1.748  -3.970  0.00  0.00    -0.210 NA
ATOM     23  C   UNL     1       1.757   3.103  -4.002  0.00  0.00    +0.163 A 
ATOM     24  C   UNL     1       0.910   3.601  -3.059  0.00  0.00    +0.230 A 
ATOM     25  O   UNL     1       0.301   2.550  -2.487  0.00  0.00    -0.449 OA
BRANCH  23  26
ATOM     26  C   UNL     1       2.637   3.885  -4.889  0.00  0.00    +0.266 C 
ATOM     27  O   UNL     1       2.649   5.099  -4.817  0.00  0.00    -0.268 OA
ATOM     28  N   UNL     1       3.427   3.255  -5.780  0.00  0.00    -0.310 N 
ATOM     29  H   UNL     1       3.417   2.287  -5.838  0.00  0.00    +0.149 HD
BRANCH  28  30
ATOM     30  C   UNL     1       4.301   4.032  -6.662  0.00  0.00    +0.107 C 
BRANCH  30  31
ATOM     31  C   UNL     1       5.086   3.082  -7.569  0.00  0.00    -0.000 C 
ATOM     32  C   UNL     1       5.905   3.896  -8.573  0.00  0.00    +0.009 C 
ATOM     33  C   UNL     1       6.027   2.226  -6.719  0.00  0.00    +0.009 C 
ENDBRANCH  30  31
ENDBRANCH  28  30
ENDBRANCH  23  26
ENDBRANCH  20  21
ENDBRANCH   1  20
TORSDOF 9
