REMARK  Name = ZINC14742884
REMARK  6 active torsions:
REMARK  status: ('A' for Active; 'I' for Inactive)
REMARK    1  A    between atoms: C_1  and  O_2
REMARK    2  A    between atoms: O_2  and  C_3
REMARK    3  A    between atoms: C_5  and  C_12
REMARK    4  A    between atoms: C_12  and  N_55
REMARK    5  A    between atoms: C_14  and  O_27
REMARK    6  A    between atoms: N_17  and  C_21
REMARK                            x       y       z     vdW  Elec       q    Type
REMARK                         _______ _______ _______ _____ _____    ______ ____
ROOT
ATOM      1  C   UNL     1       1.032  -1.260  -4.228  0.00  0.00    -0.044 C 
ATOM      2  C   UNL     1      -0.188  -1.142  -3.334  0.00  0.00    +0.115 C 
ATOM      3  C   UNL     1      -0.779   0.269  -3.405  0.00  0.00    +0.137 C 
ATOM      4  N   UNL     1      -0.067   1.120  -2.437  0.00  0.00    -0.298 N 
ATOM      5  C   UNL     1       1.204   1.465  -2.663  0.00  0.00    +0.199 C 
ATOM      6  O   UNL     1       1.792   2.162  -1.863  0.00  0.00    -0.278 OA
ATOM      7  C   UNL     1       1.914   0.985  -3.911  0.00  0.00    +0.019 C 
ATOM      8  N   UNL     1       2.182  -0.465  -3.753  0.00  0.00    +0.390 N 
ATOM      9  H   UNL     1       2.335  -0.666  -2.758  0.00  0.00    -0.081 HD
ENDROOT
BRANCH   4  10
ATOM     10  C   UNL     1      -0.753   1.593  -1.232  0.00  0.00    +0.076 C 
ATOM     11  C   UNL     1      -0.013   1.086   0.008  0.00  0.00    +0.022 C 
ATOM     12  C   UNL     1      -0.729   1.579   1.267  0.00  0.00    +0.002 C 
ATOM     13  C   UNL     1      -0.750   3.109   1.275  0.00  0.00    +0.000 C 
ATOM     14  C   UNL     1      -1.490   3.616   0.036  0.00  0.00    +0.002 C 
ATOM     15  C   UNL     1      -0.773   3.123  -1.223  0.00  0.00    +0.022 C 
ENDBRANCH   4  10
BRANCH   2  16
ATOM     16  O   UNL     1      -1.174  -2.086  -3.756  0.00  0.00    -0.392 OA
ATOM     17  H   UNL     1      -0.872  -3.005  -3.738  0.00  0.00    +0.210 HD
ENDBRANCH   2  16
BRANCH   8  18
ATOM     18  C   UNL     1       3.390  -0.840  -4.504  0.00  0.00    -0.042 C 
BRANCH  18  21
ATOM     19  C   UNL     1       6.348  -0.196  -2.242  0.00  0.00    +0.166 A 
ATOM     20  C   UNL     1       5.255  -0.807  -2.837  0.00  0.00    +0.051 A 
ATOM     21  C   UNL     1       4.578  -0.172  -3.861  0.00  0.00    -0.057 A 
ATOM     22  C   UNL     1       4.992   1.071  -4.301  0.00  0.00    +0.051 A 
ATOM     23  C   UNL     1       6.081   1.693  -3.708  0.00  0.00    +0.170 A 
ATOM     24  C   UNL     1       6.764   1.057  -2.677  0.00  0.00    +0.208 A 
ATOM     25  O   UNL     1       7.790   1.862  -2.270  0.00  0.00    -0.449 OA
ATOM     26  C   UNL     1       7.976   2.814  -3.335  0.00  0.00    +0.467 C 
ATOM     27  O   UNL     1       6.676   2.897  -3.949  0.00  0.00    -0.452 OA
BRANCH  19  29
ATOM     28  C   UNL     1       6.530  -2.106  -0.837  0.00  0.00    +0.277 C 
ATOM     29  O   UNL     1       7.013  -0.821  -1.234  0.00  0.00    -0.491 OA
ENDBRANCH  19  29
ENDBRANCH  18  21
ENDBRANCH   8  18
TORSDOF 5
