REMARK  Name = ZINC00621857
REMARK  6 active torsions:
REMARK  status: ('A' for Active; 'I' for Inactive)
REMARK    1  A    between atoms: C_1  and  C_2
REMARK    2  A    between atoms: C_18  and  C_29
REMARK    3  A    between atoms: C_23  and  C_24
REMARK    4  A    between atoms: C_23  and  O_28
REMARK    5  A    between atoms: C_24  and  C_26
REMARK    6  A    between atoms: C_26  and  O_27
REMARK                            x       y       z     vdW  Elec       q    Type
REMARK                         _______ _______ _______ _____ _____    ______ ____
ROOT
ATOM      1  C   UNL     1      -0.265   2.014  -0.094  0.00  0.00    +0.016 C 
ATOM      2  C   UNL     1      -0.563   0.511  -0.154  0.00  0.00    -0.001 C 
ATOM      3  C   UNL     1      -2.080   0.433  -0.118  0.00  0.00    +0.019 C 
ATOM      4  C   UNL     1      -2.610  -0.761   0.664  0.00  0.00    +0.080 C 
ATOM      5  C   UNL     1      -1.976  -0.753   2.041  0.00  0.00    +0.156 C 
ATOM      6  O   UNL     1      -2.638  -0.848   3.053  0.00  0.00    -0.293 OA
ATOM      7  C   UNL     1      -0.516  -0.619   2.075  0.00  0.00    +0.046 C 
ATOM      8  C   UNL     1       0.115  -0.083   1.038  0.00  0.00    -0.060 C 
ATOM      9  C   UNL     1       1.637  -0.107   1.026  0.00  0.00    +0.032 C 
ATOM     10  C   UNL     1       2.013  -0.951  -0.198  0.00  0.00    +0.009 C 
ATOM     11  C   UNL     1       1.486  -0.304  -1.474  0.00  0.00    +0.004 C 
ATOM     12  C   UNL     1      -0.013  -0.040  -1.457  0.00  0.00    +0.069 C 
ATOM     13  C   UNL     1      -0.439   0.839  -2.612  0.00  0.00    +0.138 C 
ATOM     14  O   UNL     1      -1.521   0.639  -3.135  0.00  0.00    -0.297 OA
ATOM     15  C   UNL     1       0.433   1.954  -3.151  0.00  0.00    +0.084 C 
ATOM     16  C   UNL     1       1.857   1.436  -3.240  0.00  0.00    +0.013 C 
ATOM     17  C   UNL     1       2.268   0.928  -1.838  0.00  0.00    +0.002 C 
ATOM     18  C   UNL     1       3.784   0.736  -2.007  0.00  0.00    +0.008 C 
ATOM     19  C   UNL     1       4.200   1.992  -2.818  0.00  0.00    +0.043 C 
ATOM     20  C   UNL     1       2.923   2.497  -3.533  0.00  0.00    +0.132 C 
ATOM     21  C   UNL     1       1.946   0.340  -4.302  0.00  0.00    +0.015 C 
ENDROOT
BRANCH  20  22
ATOM     22  C   UNL     1       3.157   2.601  -5.016  0.00  0.00    +0.190 C 
ATOM     23  O   UNL     1       4.043   1.965  -5.534  0.00  0.00    -0.292 OA
BRANCH  22  24
ATOM     24  C   UNL     1       2.286   3.500  -5.856  0.00  0.00    +0.233 C 
BRANCH  24  25
ATOM     25  O   UNL     1       2.702   3.428  -7.221  0.00  0.00    -0.387 OA
ATOM     26  H   UNL     1       2.183   3.982  -7.820  0.00  0.00    +0.210 HD
ENDBRANCH  24  25
ENDBRANCH  22  24
ENDBRANCH  20  22
BRANCH  20  27
ATOM     27  O   UNL     1       2.527   3.761  -3.000  0.00  0.00    -0.380 OA
ATOM     28  H   UNL     1       3.165   4.471  -3.156  0.00  0.00    +0.211 HD
ENDBRANCH  20  27
TORSDOF 4
