REMARK  Name = ZINC41108013
REMARK  5 active torsions:
REMARK  status: ('A' for Active; 'I' for Inactive)
REMARK    1  A    between atoms: C_5  and  C_7
REMARK    2  A    between atoms: C_13  and  C_14
REMARK    3  A    between atoms: C_18  and  O_20
REMARK    4  A    between atoms: O_20  and  C_21
REMARK    5  A    between atoms: C_21  and  C_22
REMARK                            x       y       z     vdW  Elec       q    Type
REMARK                         _______ _______ _______ _____ _____    ______ ____
ROOT
ATOM      1  C   UNL     1       0.771  -3.166   1.767  0.00  0.00    +0.131 C 
ATOM      2  N   UNL     1       1.808  -3.588   1.085  0.00  0.00    -0.164 NA
ATOM      3  N   UNL     1       2.116  -4.930   1.018  0.00  0.00    -0.152 N 
ATOM      4  C   UNL     1       3.256  -5.483   0.394  0.00  0.00    +0.153 C 
ATOM      5  N   UNL     1       4.352  -4.809   0.173  0.00  0.00    -0.283 NA
ATOM      6  C   UNL     1       3.083  -6.915   0.012  0.00  0.00    +0.081 C 
ATOM      7  C   UNL     1       3.680  -7.440  -1.097  0.00  0.00    +0.024 C 
ATOM      8  C   UNL     1       2.226  -7.737   0.904  0.00  0.00    +0.273 C 
ATOM      9  O   UNL     1       2.368  -8.948   0.970  0.00  0.00    -0.268 OA
ATOM     10  N   UNL     1       1.288  -7.109   1.638  0.00  0.00    -0.152 NA
ATOM     11  C   UNL     1       1.247  -5.800   1.641  0.00  0.00    +0.181 C 
ATOM     12  S   UNL     1       0.093  -4.691   2.407  0.00  0.00    -0.033 S 
ATOM     13  H   UNL     1       4.412  -3.879   0.442  0.00  0.00    +0.188 HD
ENDROOT
BRANCH   1  18
ATOM     14  C   UNL     1      -1.290  -0.244   2.917  0.00  0.00    +0.001 A 
ATOM     15  C   UNL     1      -0.614   0.811   2.330  0.00  0.00    +0.001 A 
ATOM     16  C   UNL     1       0.510   0.578   1.560  0.00  0.00    +0.020 A 
ATOM     17  C   UNL     1       0.967  -0.713   1.373  0.00  0.00    +0.051 A 
ATOM     18  C   UNL     1       0.289  -1.781   1.963  0.00  0.00    +0.027 A 
ATOM     19  C   UNL     1      -0.845  -1.537   2.738  0.00  0.00    +0.012 A 
ATOM     20 CL   UNL     1       2.378  -1.006   0.406  0.00  0.00    -0.083 Cl
ENDBRANCH   1  18
BRANCH   7  21
ATOM     21  C   UNL     1       3.337  -8.796  -1.543  0.00  0.00    -0.021 A 
ATOM     22  C   UNL     1       2.018  -9.258  -1.437  0.00  0.00    +0.008 A 
ATOM     23  C   UNL     1       1.701 -10.532  -1.858  0.00  0.00    +0.004 A 
ATOM     24  C   UNL     1       2.680 -11.357  -2.385  0.00  0.00    +0.046 A 
ATOM     25  C   UNL     1       3.990 -10.908  -2.494  0.00  0.00    +0.122 A 
ATOM     26  C   UNL     1       4.323  -9.630  -2.081  0.00  0.00    +0.053 A 
BRANCH  25  27
ATOM     27  O   UNL     1       4.946 -11.725  -3.012  0.00  0.00    -0.487 OA
BRANCH  27  28
ATOM     28  C   UNL     1       4.532 -13.029  -3.422  0.00  0.00    +0.264 C 
BRANCH  28  29
ATOM     29  C   UNL     1       5.717 -13.784  -3.966  0.00  0.00    -0.010 A 
ATOM     30  C   UNL     1       6.028 -13.706  -5.311  0.00  0.00    +0.010 A 
ATOM     31  C   UNL     1       7.115 -14.398  -5.810  0.00  0.00    +0.039 A 
ATOM     32  C   UNL     1       7.893 -15.170  -4.964  0.00  0.00    +0.123 A 
ATOM     33  C   UNL     1       7.580 -15.248  -3.617  0.00  0.00    +0.039 A 
ATOM     34  C   UNL     1       6.495 -14.551  -3.119  0.00  0.00    +0.010 A 
ATOM     35  F   UNL     1       8.955 -15.847  -5.451  0.00  0.00    -0.205 F 
ENDBRANCH  28  29
ENDBRANCH  27  28
ENDBRANCH  25  27
ENDBRANCH   7  21
TORSDOF 5
