REMARK  Name = ZINC11185672
REMARK  14 active torsions:
REMARK  status: ('A' for Active; 'I' for Inactive)
REMARK    1  A    between atoms: C_1  and  C_2
REMARK    2  A    between atoms: C_5  and  C_35
REMARK    3  A    between atoms: C_6  and  N_8
REMARK    4  A    between atoms: C_14  and  C_19
REMARK    5  A    between atoms: C_19  and  O_21
REMARK    6  A    between atoms: O_21  and  C_22
REMARK    7  A    between atoms: C_22  and  C_24
REMARK    8  A    between atoms: C_22  and  C_25
REMARK    9  A    between atoms: N_27  and  C_28
REMARK   10  A    between atoms: C_28  and  C_29
REMARK   11  A    between atoms: C_28  and  C_30
REMARK   12  A    between atoms: C_28  and  C_32
REMARK   13  A    between atoms: C_32  and  C_33
REMARK   14  A    between atoms: C_32  and  C_34
REMARK                            x       y       z     vdW  Elec       q    Type
REMARK                         _______ _______ _______ _____ _____    ______ ____
ROOT
ATOM      1  N   UNL     1       0.002  -0.004   0.002  0.00  0.00    -0.202 N 
ATOM      2  C   UNL     1      -0.004  -0.759  -1.111  0.00  0.00    +0.258 C 
ATOM      3  O   UNL     1      -0.026  -0.341  -2.251  0.00  0.00    -0.269 OA
ATOM      4  C   UNL     1       0.024  -2.185  -0.714  0.00  0.00    +0.050 A 
ATOM      5  C   UNL     1       0.033  -3.381  -1.413  0.00  0.00    +0.014 A 
ATOM      6  C   UNL     1       0.055  -4.582  -0.726  0.00  0.00    +0.016 A 
ATOM      7  C   UNL     1       0.069  -4.595   0.669  0.00  0.00    +0.060 A 
ATOM      8  C   UNL     1       0.060  -3.393   1.382  0.00  0.00    +0.028 A 
ATOM      9  C   UNL     1       0.038  -2.191   0.696  0.00  0.00    +0.051 A 
ATOM     10  C   UNL     1       0.023  -0.771   1.107  0.00  0.00    +0.258 C 
ATOM     11  O   UNL     1       0.029  -0.364   2.251  0.00  0.00    -0.269 OA
ENDROOT
BRANCH   1  17
ATOM     12  C   UNL     1       2.447   4.263   0.002  0.00  0.00    +0.044 C 
ATOM     13  C   UNL     1       1.153   3.490   0.010  0.00  0.00    -0.049 A 
ATOM     14  C   UNL     1      -0.054   4.164   0.025  0.00  0.00    +0.004 A 
ATOM     15  C   UNL     1      -1.243   3.458   0.032  0.00  0.00    +0.005 A 
ATOM     16  C   UNL     1      -1.228   2.076   0.019  0.00  0.00    -0.029 A 
ATOM     17  C   UNL     1      -0.017   1.397   0.010  0.00  0.00    +0.048 A 
ATOM     18  C   UNL     1       1.175   2.109   0.002  0.00  0.00    +0.027 A 
ATOM     19  C   UNL     1      -2.524   1.307   0.021  0.00  0.00    +0.045 C 
ENDBRANCH   1  17
BRANCH   7  20
ATOM     20  C   UNL     1       0.093  -5.883   1.395  0.00  0.00    +0.340 C 
ATOM     21  O   UNL     1       0.105  -5.896   2.609  0.00  0.00    -0.245 OA
BRANCH  20  22
ATOM     22  O   UNL     1       0.101  -7.043   0.710  0.00  0.00    -0.449 OA
BRANCH  22  23
ATOM     23  C   UNL     1       0.125  -8.269   1.487  0.00  0.00    +0.259 C 
ATOM     24  C   UNL     1      -1.308  -8.718   1.775  0.00  0.00    +0.062 C 
BRANCH  23  25
ATOM     25  C   UNL     1       0.842  -9.343   0.711  0.00  0.00    +0.255 C 
ATOM     26  O   UNL     1       1.289  -9.099  -0.390  0.00  0.00    -0.272 OA
ATOM     27  N   UNL     1       0.987 -10.574   1.239  0.00  0.00    -0.294 N 
ATOM     28  H   UNL     1       0.630 -10.769   2.120  0.00  0.00    +0.150 HD
BRANCH  27  29
ATOM     29  C   UNL     1       1.684 -11.618   0.484  0.00  0.00    +0.121 C 
ATOM     30  C   UNL     1       0.952 -11.867  -0.837  0.00  0.00    +0.048 C 
BRANCH  29  31
ATOM     31  C   UNL     1       1.709 -12.910   1.304  0.00  0.00    +0.020 C 
ATOM     32  C   UNL     1       2.325 -14.033   0.467  0.00  0.00    +0.010 C 
ATOM     33  C   UNL     1       2.546 -12.696   2.566  0.00  0.00    +0.010 C 
ENDBRANCH  29  31
BRANCH  29  34
ATOM     34  C   UNL     1       3.063 -11.186   0.207  0.00  0.00    +0.088 C 
ATOM     35  N   UNL     1       4.128 -10.852  -0.006  0.00  0.00    -0.194 NA
ENDBRANCH  29  34
ENDBRANCH  27  29
ENDBRANCH  23  25
ENDBRANCH  22  23
ENDBRANCH  20  22
ENDBRANCH   7  20
TORSDOF 8
