REMARK  Name = ZINC30883363
REMARK  12 active torsions:
REMARK  status: ('A' for Active; 'I' for Inactive)
REMARK    1  A    between atoms: C_1  and  C_2
REMARK    2  A    between atoms: C_4  and  C_29
REMARK    3  A    between atoms: C_6  and  C_26
REMARK    4  A    between atoms: C_9  and  C_11
REMARK    5  A    between atoms: C_11  and  C_12
REMARK    6  A    between atoms: C_15  and  C_17
REMARK    7  A    between atoms: C_20  and  N_23
REMARK    8  A    between atoms: C_26  and  C_27
REMARK    9  A    between atoms: C_26  and  C_28
REMARK   10  A    between atoms: C_29  and  N_30
REMARK   11  A    between atoms: N_30  and  C_31
REMARK   12  A    between atoms: C_31  and  C_32
REMARK                            x       y       z     vdW  Elec       q    Type
REMARK                         _______ _______ _______ _____ _____    ______ ____
ROOT
ATOM      1  C   UNL     1      -0.094   5.196   4.575  0.00  0.00    +0.039 C 
ATOM      2  C   UNL     1      -0.266   3.703   4.686  0.00  0.00    -0.073 C 
ATOM      3  C   UNL     1      -0.326   3.016   3.590  0.00  0.00    -0.026 C 
ATOM      4  C   UNL     1      -0.505   1.527   3.540  0.00  0.00    -0.002 C 
ATOM      5  C   UNL     1      -0.182   0.911   4.903  0.00  0.00    -0.003 C 
ATOM      6  C   UNL     1      -0.942   1.694   5.982  0.00  0.00    +0.012 C 
ATOM      7  C   UNL     1      -0.356   3.105   6.059  0.00  0.00    +0.024 C 
ENDROOT
BRANCH   5   8
ATOM      8  C   UNL     1      -0.623  -0.554   4.924  0.00  0.00    -0.014 C 
ATOM      9  C   UNL     1      -0.170  -1.204   6.232  0.00  0.00    +0.007 C 
ATOM     10  C   UNL     1      -2.147  -0.629   4.817  0.00  0.00    +0.007 C 
ENDBRANCH   5   8
BRANCH   7  11
ATOM     11  C   UNL     1       1.041   3.041   6.678  0.00  0.00    +0.105 C 
BRANCH  11  12
ATOM     12  C   UNL     1       1.571   4.439   6.868  0.00  0.00    +0.218 A 
ATOM     13  N   UNL     1       1.417   5.183   7.928  0.00  0.00    -0.112 NA
ATOM     14  N   UNL     1       1.999   6.316   7.747  0.00  0.00    -0.107 NA
ATOM     15  C   UNL     1       2.548   6.334   6.555  0.00  0.00    +0.248 A 
ATOM     16  O   UNL     1       2.292   5.143   5.979  0.00  0.00    -0.420 OA
BRANCH  15  17
ATOM     17  C   UNL     1       3.312   7.451   5.958  0.00  0.00    +0.039 A 
ATOM     18  C   UNL     1       3.847   7.327   4.676  0.00  0.00    +0.015 A 
ATOM     19  C   UNL     1       4.554   8.375   4.123  0.00  0.00    +0.033 A 
ATOM     20  C   UNL     1       4.742   9.542   4.841  0.00  0.00    +0.126 A 
ATOM     21  C   UNL     1       4.218   9.669   6.115  0.00  0.00    +0.033 A 
ATOM     22  C   UNL     1       3.505   8.631   6.678  0.00  0.00    +0.015 A 
BRANCH  20  23
ATOM     23  N   UNL     1       5.508  10.660   4.244  0.00  0.00    +0.056 N 
ATOM     24  O   UNL     1       5.674  11.689   4.874  0.00  0.00    -0.126 OA
ATOM     25  O   UNL     1       5.970  10.550   3.123  0.00  0.00    -0.126 OA
ENDBRANCH  20  23
ENDBRANCH  15  17
ENDBRANCH  11  12
ENDBRANCH   7  11
BRANCH   4  26
ATOM     26  C   UNL     1       0.432   0.939   2.483  0.00  0.00    -0.074 C 
BRANCH  26  27
ATOM     27  N   UNL     1       0.054   1.446   1.157  0.00  0.00    +0.382 N 
ATOM     28  H   UNL     1      -0.982   1.152   0.934  0.00  0.00    -0.085 HD
ATOM     29  H   UNL     1       0.134   2.543   1.148  0.00  0.00    -0.085 HD
BRANCH  27  30
ATOM     30  C   UNL     1       0.934   0.901   0.115  0.00  0.00    -0.047 C 
BRANCH  30  31
ATOM     31  C   UNL     1       0.517   1.443  -1.228  0.00  0.00    -0.062 A 
ATOM     32  C   UNL     1      -0.415   0.773  -2.006  0.00  0.00    +0.021 A 
ATOM     33  C   UNL     1      -0.777   1.303  -3.230  0.00  0.00    +0.111 A 
ATOM     34  N   UNL     1      -0.239   2.426  -3.664  0.00  0.00    -0.263 NA
ATOM     35  C   UNL     1       0.654   3.087  -2.954  0.00  0.00    +0.111 A 
ATOM     36  C   UNL     1       1.060   2.621  -1.718  0.00  0.00    +0.021 A 
ENDBRANCH  30  31
ENDBRANCH  27  30
ENDBRANCH  26  27
ENDBRANCH   4  26
TORSDOF 9
