REMARK  Name = ZINC08413268
REMARK  6 active torsions:
REMARK  status: ('A' for Active; 'I' for Inactive)
REMARK    1  A    between atoms: C_1  and  C_2
REMARK    2  A    between atoms: C_5  and  C_18
REMARK    3  A    between atoms: N_6  and  C_7
REMARK    4  A    between atoms: C_10  and  C_14
REMARK    5  A    between atoms: C_11  and  O_13
REMARK    6  A    between atoms: N_16  and  N_17
REMARK                            x       y       z     vdW  Elec       q    Type
REMARK                         _______ _______ _______ _____ _____    ______ ____
ROOT
ATOM      1  C   UNL     1      -4.955  -0.375  -0.058  0.00  0.00    +0.050 A 
ATOM      2  C   UNL     1      -3.688  -0.951  -0.104  0.00  0.00    +0.027 A 
ATOM      3  C   UNL     1      -2.567  -0.155  -0.152  0.00  0.00    +0.019 A 
ATOM      4  C   UNL     1      -2.697   1.237  -0.145  0.00  0.00    +0.079 A 
ATOM      5  C   UNL     1      -3.974   1.816  -0.099  0.00  0.00    +0.131 A 
ATOM      6  C   UNL     1      -5.095   1.005  -0.055  0.00  0.00    +0.072 A 
ENDROOT
BRANCH   1  12
ATOM      7  C   UNL     1      -6.814  -0.601   2.367  0.00  0.00    +0.064 C 
ATOM      8  C   UNL     1      -6.940  -1.317   1.047  0.00  0.00    +0.021 A 
ATOM      9  C   UNL     1      -7.914  -2.189   0.712  0.00  0.00    +0.023 A 
ATOM     10  C   UNL     1      -7.662  -2.632  -0.598  0.00  0.00    +0.028 A 
ATOM     11  C   UNL     1      -6.532  -2.005  -1.028  0.00  0.00    +0.054 A 
ATOM     12  N   UNL     1      -6.089  -1.190  -0.014  0.00  0.00    -0.313 N 
BRANCH  11  13
ATOM     13  C   UNL     1      -5.895  -2.170  -2.353  0.00  0.00    -0.001 A 
ATOM     14  C   UNL     1      -5.014  -1.200  -2.833  0.00  0.00    +0.010 A 
ATOM     15  C   UNL     1      -4.419  -1.363  -4.066  0.00  0.00    +0.001 A 
ATOM     16  C   UNL     1      -4.704  -2.480  -4.833  0.00  0.00    +0.000 A 
ATOM     17  C   UNL     1      -5.581  -3.442  -4.365  0.00  0.00    +0.001 A 
ATOM     18  C   UNL     1      -6.178  -3.294  -3.131  0.00  0.00    +0.010 A 
ENDBRANCH  11  13
ENDBRANCH   1  12
BRANCH   4  19
ATOM     19  C   UNL     1      -1.498   2.092  -0.192  0.00  0.00    +0.261 C 
ATOM     20  O   UNL     1      -1.615   3.303  -0.191  0.00  0.00    -0.269 OA
ATOM     21  N   UNL     1      -0.273   1.533  -0.236  0.00  0.00    -0.249 N 
ATOM     22  H   UNL     1      -0.180   0.567  -0.237  0.00  0.00    +0.169 HD
BRANCH  21  23
ATOM     23  N   UNL     1       0.838   2.326  -0.285  0.00  0.00    -0.254 NA
ATOM     24  H   UNL     1       1.679   1.769  -0.319  0.00  0.00    +0.140 HD
ATOM     25  H   UNL     1       0.794   2.962  -1.068  0.00  0.00    +0.140 HD
ENDBRANCH  21  23
ENDBRANCH   4  19
BRANCH   5  26
ATOM     26  O   UNL     1      -4.109   3.166  -0.098  0.00  0.00    -0.506 OA
ATOM     27  H   UNL     1      -4.181   3.555  -0.980  0.00  0.00    +0.292 HD
ENDBRANCH   5  26
TORSDOF 5
