REMARK  Name = ZINC09124137
REMARK  8 active torsions:
REMARK  status: ('A' for Active; 'I' for Inactive)
REMARK    1  A    between atoms: C_1  and  O_2
REMARK    2  A    between atoms: O_2  and  C_3
REMARK    3  A    between atoms: C_6  and  C_9
REMARK    4  A    between atoms: C_9  and  C_10
REMARK    5  A    between atoms: C_10  and  N_11
REMARK    6  A    between atoms: C_12  and  C_30
REMARK    7  A    between atoms: C_15  and  C_22
REMARK    8  A    between atoms: C_27  and  O_28
REMARK                            x       y       z     vdW  Elec       q    Type
REMARK                         _______ _______ _______ _____ _____    ______ ____
ROOT
ATOM      1  N   UNL     1       2.249  -3.470   6.551  0.00  0.00    -0.285 N 
ATOM      2  C   UNL     1       2.394  -4.920   6.732  0.00  0.00    +0.141 C 
ATOM      3  C   UNL     1       3.151  -5.106   8.019  0.00  0.00    +0.035 A 
ATOM      4  C   UNL     1       3.712  -5.998   8.939  0.00  0.00    +0.102 A 
ATOM      5  N   UNL     1       4.255  -5.281   9.903  0.00  0.00    -0.173 NA
ATOM      6  N   UNL     1       4.093  -4.025   9.682  0.00  0.00    -0.272 N 
ATOM      7  H   UNL     1       4.411  -3.313  10.259  0.00  0.00    +0.189 HD
ATOM      8  C   UNL     1       3.407  -3.842   8.516  0.00  0.00    +0.126 A 
ATOM      9  C   UNL     1       2.845  -2.854   7.588  0.00  0.00    +0.265 C 
ATOM     10  O   UNL     1       2.907  -1.648   7.737  0.00  0.00    -0.268 OA
ENDROOT
BRANCH   4  11
ATOM     11  C   UNL     1       3.697  -7.479   8.847  0.00  0.00    +0.047 A 
ATOM     12  C   UNL     1       3.088  -8.107   7.764  0.00  0.00    +0.052 A 
ATOM     13  C   UNL     1       3.077  -9.486   7.683  0.00  0.00    +0.124 A 
ATOM     14  C   UNL     1       3.671 -10.247   8.677  0.00  0.00    +0.042 A 
ATOM     15  C   UNL     1       4.278  -9.632   9.756  0.00  0.00    +0.049 A 
ATOM     16  C   UNL     1       4.300  -8.250   9.845  0.00  0.00    +0.126 A 
ATOM     17  F   UNL     1       2.485 -10.095   6.632  0.00  0.00    -0.205 F 
BRANCH  16  18
ATOM     18  O   UNL     1       4.902  -7.645  10.903  0.00  0.00    -0.506 OA
ATOM     19  H   UNL     1       4.314  -7.490  11.654  0.00  0.00    +0.292 HD
ENDBRANCH  16  18
ENDBRANCH   4  11
BRANCH   2  20
ATOM     20  C   UNL     1       1.037  -5.569   6.829  0.00  0.00    -0.022 A 
ATOM     21  C   UNL     1       0.023  -4.947   7.532  0.00  0.00    +0.006 A 
ATOM     22  C   UNL     1      -1.222  -5.542   7.621  0.00  0.00    +0.000 A 
ATOM     23  C   UNL     1      -1.452  -6.758   7.005  0.00  0.00    +0.000 A 
ATOM     24  C   UNL     1      -0.438  -7.379   6.300  0.00  0.00    +0.000 A 
ATOM     25  C   UNL     1       0.806  -6.782   6.208  0.00  0.00    +0.006 A 
ENDBRANCH   2  20
BRANCH   1  26
ATOM     26  C   UNL     1       1.577  -2.808   5.431  0.00  0.00    +0.114 C 
BRANCH  26  27
ATOM     27  C   UNL     1       2.587  -2.550   4.310  0.00  0.00    +0.054 C 
BRANCH  27  31
ATOM     28  C   UNL     1       0.626  -0.618   1.042  0.00  0.00    +0.120 A 
ATOM     29  C   UNL     1       1.202   0.138   2.051  0.00  0.00    +0.046 A 
ATOM     30  C   UNL     1       1.835  -0.488   3.107  0.00  0.00    +0.007 A 
ATOM     31  C   UNL     1       1.895  -1.869   3.158  0.00  0.00    -0.046 A 
ATOM     32  C   UNL     1       1.322  -2.625   2.152  0.00  0.00    +0.007 A 
ATOM     33  C   UNL     1       0.682  -2.003   1.098  0.00  0.00    +0.046 A 
BRANCH  28  35
ATOM     34  C   UNL     1      -0.017   1.425   0.010  0.00  0.00    +0.277 C 
ATOM     35  O   UNL     1       0.002  -0.004   0.002  0.00  0.00    -0.495 OA
ENDBRANCH  28  35
ENDBRANCH  27  31
ENDBRANCH  26  27
ENDBRANCH   1  26
TORSDOF 7
