REMARK  Name = ZINC36206639
REMARK  14 active torsions:
REMARK  status: ('A' for Active; 'I' for Inactive)
REMARK    1  A    between atoms: C_1  and  C_2
REMARK    2  A    between atoms: C_2  and  O_3
REMARK    3  A    between atoms: O_3  and  C_4
REMARK    4  A    between atoms: C_4  and  C_6
REMARK    5  A    between atoms: C_7  and  C_36
REMARK    6  A    between atoms: C_13  and  C_17
REMARK    7  A    between atoms: C_17  and  N_18
REMARK    8  A    between atoms: N_18  and  C_19
REMARK    9  A    between atoms: N_18  and  C_25
REMARK   10  A    between atoms: C_19  and  C_20
REMARK   11  A    between atoms: C_25  and  C_26
REMARK   12  A    between atoms: C_26  and  C_28
REMARK   13  A    between atoms: C_26  and  O_35
REMARK   14  A    between atoms: C_28  and  C_29
REMARK                            x       y       z     vdW  Elec       q    Type
REMARK                         _______ _______ _______ _____ _____    ______ ____
ROOT
ATOM      1  N   UNL     1       4.948  -2.705   8.093  0.00  0.00    +0.391 N 
ATOM      2  H   UNL     1       5.500  -2.080   7.524  0.00  0.00    -0.080 HD
ENDROOT
BRANCH   1   3
ATOM      3  C   UNL     1       4.660  -3.931   7.337  0.00  0.00    -0.003 C 
BRANCH   3  11
ATOM      4  C   UNL     1       2.299  -0.985   2.262  0.00  0.00    +0.102 A 
ATOM      5  C   UNL     1       2.414  -2.338   2.402  0.00  0.00    -0.015 A 
ATOM      6  C   UNL     1       2.954  -2.872   3.574  0.00  0.00    +0.076 A 
ATOM      7  C   UNL     1       3.172  -4.290   3.942  0.00  0.00    +0.260 A 
ATOM      8  O   UNL     1       2.869  -5.188   3.177  0.00  0.00    -0.267 OA
ATOM      9  N   UNL     1       3.715  -4.560   5.145  0.00  0.00    -0.312 N 
ATOM     10  H   UNL     1       3.864  -5.483   5.402  0.00  0.00    +0.170 HD
ATOM     11  C   UNL     1       4.057  -3.568   6.004  0.00  0.00    +0.094 A 
ATOM     12  N   UNL     1       3.878  -2.309   5.711  0.00  0.00    -0.229 NA
ATOM     13  C   UNL     1       3.351  -1.933   4.553  0.00  0.00    +0.116 A 
ATOM     14  S   UNL     1       2.965  -0.372   3.801  0.00  0.00    -0.062 S 
ATOM     15  C   UNL     1       1.959  -3.253   1.294  0.00  0.00    +0.046 C 
BRANCH   4  16
ATOM     16  C   UNL     1       1.768  -0.225   1.129  0.00  0.00    +0.346 C 
ATOM     17  O   UNL     1       1.350  -0.809   0.147  0.00  0.00    -0.244 OA
BRANCH  16  18
ATOM     18  O   UNL     1       1.742   1.123   1.174  0.00  0.00    -0.461 OA
BRANCH  18  20
ATOM     19  C   UNL     1       1.262   3.311   0.266  0.00  0.00    +0.048 C 
ATOM     20  C   UNL     1       1.210   1.800   0.033  0.00  0.00    +0.229 C 
ENDBRANCH  18  20
ENDBRANCH  16  18
ENDBRANCH   4  16
ENDBRANCH   3  11
ENDBRANCH   1   3
BRANCH   1  21
ATOM     21  C   UNL     1       3.686  -2.048   8.459  0.00  0.00    -0.002 C 
BRANCH  21  22
ATOM     22  C   UNL     1       3.982  -0.740   9.147  0.00  0.00    +0.089 A 
ATOM     23  C   UNL     1       4.219   0.435   8.535  0.00  0.00    +0.042 A 
ATOM     24  C   UNL     1       4.447   1.389   9.553  0.00  0.00    +0.041 A 
ATOM     25  C   UNL     1       4.336   0.740  10.727  0.00  0.00    +0.195 A 
ATOM     26  O   UNL     1       4.048  -0.547  10.474  0.00  0.00    -0.470 OA
ENDBRANCH  21  22
ENDBRANCH   1  21
BRANCH   1  27
ATOM     27  C   UNL     1       5.694  -3.045   9.312  0.00  0.00    -0.046 C 
BRANCH  27  28
ATOM     28  C   UNL     1       7.092  -3.539   8.933  0.00  0.00    +0.102 C 
BRANCH  28  29
ATOM     29  O   UNL     1       6.992  -4.824   8.316  0.00  0.00    -0.393 OA
ATOM     30  H   UNL     1       6.593  -5.501   8.879  0.00  0.00    +0.210 HD
ENDBRANCH  28  29
BRANCH  28  31
ATOM     31  C   UNL     1       7.955  -3.644  10.192  0.00  0.00    +0.064 C 
BRANCH  31  32
ATOM     32  C   UNL     1       9.364  -4.011   9.806  0.00  0.00    -0.045 A 
ATOM     33  C   UNL     1       9.732  -5.341   9.717  0.00  0.00    +0.004 A 
ATOM     34  C   UNL     1      11.025  -5.678   9.363  0.00  0.00    +0.000 A 
ATOM     35  C   UNL     1      11.950  -4.686   9.098  0.00  0.00    +0.000 A 
ATOM     36  C   UNL     1      11.582  -3.356   9.186  0.00  0.00    +0.000 A 
ATOM     37  C   UNL     1      10.288  -3.019   9.536  0.00  0.00    +0.004 A 
ENDBRANCH  31  32
ENDBRANCH  28  31
ENDBRANCH  27  28
ENDBRANCH   1  27
TORSDOF 12
