REMARK  Name = ZINC16487094
REMARK  10 active torsions:
REMARK  status: ('A' for Active; 'I' for Inactive)
REMARK    1  A    between atoms: C_1  and  C_2
REMARK    2  A    between atoms: C_2  and  O_3
REMARK    3  A    between atoms: O_3  and  C_4
REMARK    4  A    between atoms: C_4  and  C_5
REMARK    5  A    between atoms: C_5  and  C_6
REMARK    6  A    between atoms: C_6  and  N_7
REMARK    7  A    between atoms: N_7  and  C_8
REMARK    8  A    between atoms: C_8  and  C_9
REMARK    9  A    between atoms: C_19  and  C_21
REMARK   10  A    between atoms: C_27  and  C_29
REMARK                            x       y       z     vdW  Elec       q    Type
REMARK                         _______ _______ _______ _____ _____    ______ ____
ROOT
ATOM      1  C   UNL     1       5.340   3.333   0.884  0.00  0.00    +0.204 C 
ENDROOT
BRANCH   1   2
ATOM      2  C   UNL     1       4.569   3.823   2.083  0.00  0.00    +0.234 C 
ATOM      3  O   UNL     1       4.351   3.073   3.011  0.00  0.00    -0.274 OA
ATOM      4  N   UNL     1       4.122   5.093   2.123  0.00  0.00    -0.289 N 
ATOM      5  C   UNL     1       4.290   5.981   0.962  0.00  0.00    +0.114 C 
ATOM      6  C   UNL     1       2.889   6.332   0.423  0.00  0.00    +0.062 C 
ATOM      7  C   UNL     1       1.994   6.637   1.579  0.00  0.00    -0.003 A 
ATOM      8  C   UNL     1       2.193   6.340   2.892  0.00  0.00    -0.012 A 
ATOM      9  C   UNL     1       1.193   6.731   3.781  0.00  0.00    +0.013 A 
ATOM     10  C   UNL     1       0.095   7.375   3.323  0.00  0.00    +0.046 A 
ATOM     11  S   UNL     1       0.424   7.462   1.569  0.00  0.00    -0.101 S 
ATOM     12  C   UNL     1       3.464   5.614   3.329  0.00  0.00    +0.137 C 
BRANCH  12  13
ATOM     13  C   UNL     1       3.110   4.474   4.249  0.00  0.00    -0.023 A 
ATOM     14  C   UNL     1       2.230   3.494   3.829  0.00  0.00    +0.006 A 
ATOM     15  C   UNL     1       1.908   2.446   4.671  0.00  0.00    +0.000 A 
ATOM     16  C   UNL     1       2.459   2.383   5.937  0.00  0.00    +0.000 A 
ATOM     17  C   UNL     1       3.335   3.366   6.360  0.00  0.00    +0.000 A 
ATOM     18  C   UNL     1       3.660   4.411   5.516  0.00  0.00    +0.006 A 
ENDBRANCH  12  13
ENDBRANCH   1   2
BRANCH   1  19
ATOM     19  N   UNL     1       5.609   1.900   1.028  0.00  0.00    -0.289 N 
ATOM     20  C   UNL     1       4.686   0.999   0.637  0.00  0.00    +0.247 C 
ATOM     21  O   UNL     1       3.683   1.369   0.058  0.00  0.00    -0.270 OA
BRANCH  20  22
ATOM     22  C   UNL     1       4.893  -0.439   0.911  0.00  0.00    +0.038 A 
ATOM     23  C   UNL     1       3.797  -1.280   1.109  0.00  0.00    +0.013 A 
ATOM     24  C   UNL     1       3.997  -2.619   1.372  0.00  0.00    +0.002 A 
ATOM     25  C   UNL     1       5.281  -3.132   1.427  0.00  0.00    +0.020 A 
ATOM     26  C   UNL     1       6.373  -2.304   1.232  0.00  0.00    +0.042 A 
ATOM     27  C   UNL     1       6.186  -0.960   0.974  0.00  0.00    +0.033 A 
ATOM     28 CL   UNL     1       7.980  -2.956   1.311  0.00  0.00    -0.084 Cl
ENDBRANCH  20  22
BRANCH  19  29
ATOM     29  C   UNL     1       6.880   1.446   1.597  0.00  0.00    +0.111 C 
BRANCH  29  30
ATOM     30  C   UNL     1       7.963   1.481   0.517  0.00  0.00    +0.047 C 
BRANCH  30  31
ATOM     31  C   UNL     1       9.291   1.008   1.111  0.00  0.00    +0.161 C 
BRANCH  31  32
ATOM     32  O   UNL     1      10.303   1.040   0.103  0.00  0.00    -0.380 OA
BRANCH  32  34
ATOM     33  C   UNL     1      12.588   0.689  -0.600  0.00  0.00    +0.034 C 
ATOM     34  C   UNL     1      11.589   0.614   0.556  0.00  0.00    +0.156 C 
ENDBRANCH  32  34
ENDBRANCH  31  32
ENDBRANCH  30  31
ENDBRANCH  29  30
ENDBRANCH  19  29
ENDBRANCH   1  19
TORSDOF 9
