REMARK  Name = ZINC14457229
REMARK  8 active torsions:
REMARK  status: ('A' for Active; 'I' for Inactive)
REMARK    1  A    between atoms: C_1  and  O_2
REMARK    2  A    between atoms: O_2  and  C_3
REMARK    3  A    between atoms: C_6  and  C_10
REMARK    4  A    between atoms: C_8  and  O_9
REMARK    5  A    between atoms: C_21  and  S_26
REMARK    6  A    between atoms: S_26  and  N_29
REMARK    7  A    between atoms: N_29  and  C_30
REMARK    8  A    between atoms: C_30  and  C_31
REMARK                            x       y       z     vdW  Elec       q    Type
REMARK                         _______ _______ _______ _____ _____    ______ ____
ROOT
ATOM      1  C   UNL     1       2.338   5.267  -0.474  0.00  0.00    +0.105 C 
ATOM      2  C   UNL     1       1.232   6.025   0.235  0.00  0.00    +0.029 C 
ATOM      3  C   UNL     1       1.383   5.922   1.771  0.00  0.00    +0.033 C 
ATOM      4  C   UNL     1      -0.046   6.066   2.262  0.00  0.00    -0.030 C 
ATOM      5  C   UNL     1      -0.891   5.758   1.310  0.00  0.00    -0.023 C 
ATOM      6  C   UNL     1      -0.143   5.359   0.045  0.00  0.00    +0.049 C 
ATOM      7  C   UNL     1      -0.054   3.857   0.027  0.00  0.00    -0.018 A 
ATOM      8  C   UNL     1      -1.240   3.134   0.032  0.00  0.00    +0.034 A 
ATOM      9  C   UNL     1      -1.218   1.754   0.017  0.00  0.00    +0.106 A 
ATOM     10  C   UNL     1      -0.013   1.076   0.008  0.00  0.00    +0.030 A 
ATOM     11  C   UNL     1       1.172   1.785   0.001  0.00  0.00    +0.025 A 
ATOM     12  C   UNL     1       1.149   3.175   0.009  0.00  0.00    +0.031 A 
ATOM     13  N   UNL     1       2.360   3.877  -0.004  0.00  0.00    -0.336 N 
ATOM     14  H   UNL     1       3.185   3.459   0.288  0.00  0.00    +0.147 HD
ENDROOT
BRANCH   1  18
ATOM     15  C   UNL     1       1.631   5.329  -4.691  0.00  0.00    +0.161 A 
ATOM     16  C   UNL     1       0.948   4.433  -3.885  0.00  0.00    +0.050 A 
ATOM     17  C   UNL     1       1.183   4.412  -2.523  0.00  0.00    +0.009 A 
ATOM     18  C   UNL     1       2.091   5.290  -1.961  0.00  0.00    -0.023 A 
ATOM     19  C   UNL     1       2.776   6.187  -2.760  0.00  0.00    +0.054 A 
ATOM     20  C   UNL     1       2.549   6.210  -4.127  0.00  0.00    +0.159 A 
BRANCH  15  22
ATOM     21  C   UNL     1       0.450   4.416  -6.542  0.00  0.00    +0.277 C 
ATOM     22  O   UNL     1       1.405   5.348  -6.032  0.00  0.00    -0.491 OA
ENDBRANCH  15  22
BRANCH  20  23
ATOM     23  O   UNL     1       3.221   7.091  -4.914  0.00  0.00    -0.503 OA
ATOM     24  H   UNL     1       4.059   6.752  -5.258  0.00  0.00    +0.292 HD
ENDBRANCH  20  23
ENDBRANCH   1  18
BRANCH   9  25
ATOM     25  S   UNL     1      -2.732   0.853   0.017  0.00  0.00    +0.059 S 
ATOM     26  O   UNL     1      -3.720   1.718  -0.524  0.00  0.00    -0.153 OA
ATOM     27  O   UNL     1      -2.446  -0.421  -0.544  0.00  0.00    -0.153 OA
BRANCH  25  28
ATOM     28  N   UNL     1      -3.147   0.591   1.599  0.00  0.00    -0.186 NA
ATOM     29  H   UNL     1      -3.170  -0.313   1.951  0.00  0.00    +0.148 HD
BRANCH  28  30
ATOM     30  C   UNL     1      -3.478   1.724   2.466  0.00  0.00    +0.132 C 
BRANCH  30  31
ATOM     31  C   UNL     1      -4.162   1.221   3.711  0.00  0.00    -0.018 C 
ATOM     32  C   UNL     1      -3.687   1.531   4.891  0.00  0.00    +0.005 C 
ENDBRANCH  30  31
ENDBRANCH  28  30
ENDBRANCH  25  28
ENDBRANCH   9  25
TORSDOF 7
