REMARK  Name = ZINC34998628
REMARK  10 active torsions:
REMARK  status: ('A' for Active; 'I' for Inactive)
REMARK    1  A    between atoms: C_1  and  O_2
REMARK    2  A    between atoms: O_2  and  C_3
REMARK    3  A    between atoms: C_6  and  N_9
REMARK    4  A    between atoms: N_9  and  C_10
REMARK    5  A    between atoms: C_10  and  C_11
REMARK    6  A    between atoms: C_11  and  C_12
REMARK    7  A    between atoms: C_12  and  N_13
REMARK    8  A    between atoms: N_16  and  C_17
REMARK    9  A    between atoms: N_29  and  C_30
REMARK   10  A    between atoms: C_33  and  N_36
REMARK                            x       y       z     vdW  Elec       q    Type
REMARK                         _______ _______ _______ _____ _____    ______ ____
ROOT
ATOM      1  N   UNL     1       2.886  -2.579  -4.166  0.00  0.00    -0.255 N 
ATOM      2  C   UNL     1       3.259  -1.790  -5.193  0.00  0.00    +0.311 C 
ATOM      3  O   UNL     1       3.444  -0.602  -5.012  0.00  0.00    -0.252 OA
ATOM      4  N   UNL     1       3.426  -2.318  -6.422  0.00  0.00    -0.269 N 
ATOM      5  H   UNL     1       3.149  -3.231  -6.599  0.00  0.00    +0.156 HD
ENDROOT
BRANCH   1   9
ATOM      6  C   UNL     1       1.930  -0.883  -0.478  0.00  0.00    +0.120 A 
ATOM      7  C   UNL     1       3.002  -1.758  -0.582  0.00  0.00    +0.047 A 
ATOM      8  C   UNL     1       3.319  -2.320  -1.803  0.00  0.00    +0.027 A 
ATOM      9  C   UNL     1       2.565  -2.009  -2.926  0.00  0.00    +0.038 A 
ATOM     10  C   UNL     1       1.492  -1.134  -2.822  0.00  0.00    +0.027 A 
ATOM     11  C   UNL     1       1.173  -0.576  -1.599  0.00  0.00    +0.047 A 
BRANCH   6  13
ATOM     12  C   UNL     1       2.440  -0.690   1.837  0.00  0.00    +0.277 C 
ATOM     13  O   UNL     1       1.618  -0.330   0.725  0.00  0.00    -0.495 OA
ENDBRANCH   6  13
ENDBRANCH   1   9
BRANCH   4  14
ATOM     14  C   UNL     1       3.999  -1.550  -7.442  0.00  0.00    +0.035 A 
ATOM     15  C   UNL     1       3.959  -0.164  -7.375  0.00  0.00    +0.025 A 
ATOM     16  C   UNL     1       4.527   0.591  -8.383  0.00  0.00    +0.034 A 
ATOM     17  C   UNL     1       5.134  -0.032  -9.457  0.00  0.00    +0.126 A 
ATOM     18  C   UNL     1       5.175  -1.413  -9.527  0.00  0.00    +0.034 A 
ATOM     19  C   UNL     1       4.614  -2.173  -8.520  0.00  0.00    +0.025 A 
BRANCH  17  20
ATOM     20  N   UNL     1       5.741   0.780 -10.536  0.00  0.00    +0.056 N 
ATOM     21  O   UNL     1       5.705   1.987 -10.476  0.00  0.00    -0.126 OA
ATOM     22  O   UNL     1       6.272   0.237 -11.476  0.00  0.00    -0.126 OA
ENDBRANCH  17  20
ENDBRANCH   4  14
BRANCH   1  23
ATOM     23  C   UNL     1       2.818  -4.031  -4.344  0.00  0.00    +0.117 C 
BRANCH  23  24
ATOM     24  C   UNL     1       1.416  -4.421  -4.817  0.00  0.00    +0.038 C 
BRANCH  24  25
ATOM     25  C   UNL     1       1.345  -5.938  -5.004  0.00  0.00    +0.107 C 
BRANCH  25  26
ATOM     26  N   UNL     1       0.002  -6.311  -5.457  0.00  0.00    -0.299 N 
ATOM     27  C   UNL     1      -0.295  -7.605  -5.688  0.00  0.00    +0.300 C 
ATOM     28  O   UNL     1       0.551  -8.463  -5.521  0.00  0.00    -0.253 OA
ATOM     29  N   UNL     1      -1.530  -7.949  -6.105  0.00  0.00    -0.294 N 
ATOM     30  H   UNL     1      -0.672  -5.627  -5.590  0.00  0.00    +0.150 HD
ATOM     31  H   UNL     1      -2.205  -7.265  -6.238  0.00  0.00    +0.151 HD
BRANCH  29  32
ATOM     32  C   UNL     1      -1.853  -9.355  -6.357  0.00  0.00    +0.037 C 
ATOM     33  C   UNL     1      -0.929  -9.904  -7.446  0.00  0.00    +0.029 C 
ATOM     34  C   UNL     1      -1.267 -11.373  -7.709  0.00  0.00    -0.008 C 
ATOM     35  C   UNL     1      -2.722 -11.487  -8.169  0.00  0.00    +0.007 C 
ATOM     36  C   UNL     1      -3.645 -10.939  -7.079  0.00  0.00    -0.008 C 
ATOM     37  C   UNL     1      -3.308  -9.470  -6.816  0.00  0.00    +0.029 C 
ATOM     38  C   UNL     1      -3.452 -11.745  -5.793  0.00  0.00    +0.007 C 
ATOM     39  C   UNL     1      -1.997 -11.630  -5.334  0.00  0.00    -0.008 C 
ATOM     40  C   UNL     1      -1.073 -12.179  -6.423  0.00  0.00    +0.007 C 
ATOM     41  C   UNL     1      -1.659 -10.162  -5.071  0.00  0.00    +0.029 C 
ENDBRANCH  29  32
ENDBRANCH  25  26
ENDBRANCH  24  25
ENDBRANCH  23  24
ENDBRANCH   1  23
TORSDOF 9
