REMARK  Name = ZINC16888626
REMARK  8 active torsions:
REMARK  status: ('A' for Active; 'I' for Inactive)
REMARK    1  A    between atoms: C_1  and  C_2
REMARK    2  A    between atoms: C_2  and  C_4
REMARK    3  A    between atoms: C_2  and  N_22
REMARK    4  A    between atoms: C_4  and  C_5
REMARK    5  A    between atoms: N_7  and  C_15
REMARK    6  A    between atoms: C_15  and  C_16
REMARK    7  A    between atoms: C_23  and  C_25
REMARK    8  A    between atoms: C_25  and  C_30
REMARK                            x       y       z     vdW  Elec       q    Type
REMARK                         _______ _______ _______ _____ _____    ______ ____
ROOT
ATOM      1  C   UNL     1       4.339   5.985  -1.910  0.00  0.00    +0.059 C 
ENDROOT
BRANCH   1   2
ATOM      2  C   UNL     1       4.587   6.815  -0.677  0.00  0.00    -0.020 A 
ATOM      3  C   UNL     1       5.036   8.080  -0.643  0.00  0.00    +0.091 A 
ATOM      4  N   UNL     1       5.137   8.505   0.654  0.00  0.00    -0.342 N 
ATOM      5  C   UNL     1       4.745   7.497   1.508  0.00  0.00    +0.050 A 
ATOM      6  C   UNL     1       4.377   6.398   0.712  0.00  0.00    +0.004 A 
ATOM      7  C   UNL     1       3.927   5.221   1.313  0.00  0.00    +0.025 A 
ATOM      8  C   UNL     1       3.842   5.146   2.685  0.00  0.00    +0.019 A 
ATOM      9  C   UNL     1       4.202   6.234   3.471  0.00  0.00    +0.017 A 
ATOM     10  C   UNL     1       4.656   7.399   2.893  0.00  0.00    +0.027 A 
ATOM     11 BR   UNL     1       3.234   3.555   3.505  0.00  0.00    -0.050 Br
BRANCH   4  12
ATOM     12  C   UNL     1       5.593   9.832   1.071  0.00  0.00    +0.157 C 
BRANCH  12  13
ATOM     13  C   UNL     1       7.067   9.781   1.384  0.00  0.00    -0.028 A 
ATOM     14  C   UNL     1       7.491   9.492   2.668  0.00  0.00    +0.005 A 
ATOM     15  C   UNL     1       8.843   9.440   2.953  0.00  0.00    +0.000 A 
ATOM     16  C   UNL     1       9.770   9.689   1.958  0.00  0.00    +0.000 A 
ATOM     17  C   UNL     1       9.345   9.983   0.676  0.00  0.00    +0.000 A 
ATOM     18  C   UNL     1       7.994  10.030   0.389  0.00  0.00    +0.005 A 
ENDBRANCH  12  13
ENDBRANCH   4  12
ENDBRANCH   1   2
BRANCH   1  20
ATOM     19  C   UNL     1       2.639   5.350  -3.627  0.00  0.00    +0.028 C 
ATOM     20  C   UNL     1       2.865   6.090  -2.308  0.00  0.00    +0.074 C 
BRANCH  20  21
ATOM     21  N   UNL     1       2.033   5.490  -1.262  0.00  0.00    -0.312 N 
ATOM     22  C   UNL     1       0.752   5.881  -1.113  0.00  0.00    +0.224 C 
ATOM     23  O   UNL     1       0.261   6.663  -1.899  0.00  0.00    -0.275 OA
ATOM     24  H   UNL     1       2.404   4.811  -0.677  0.00  0.00    +0.149 HD
BRANCH  22  25
ATOM     25  C   UNL     1      -0.071   5.346   0.031  0.00  0.00    +0.072 C 
ATOM     26  C   UNL     1       0.559   5.763   1.376  0.00  0.00    +0.021 C 
ATOM     27  C   UNL     1      -0.213   7.044   1.776  0.00  0.00    +0.001 C 
ATOM     28  C   UNL     1      -1.660   6.727   1.324  0.00  0.00    +0.001 C 
ATOM     29  C   UNL     1      -1.482   5.960  -0.003  0.00  0.00    +0.021 C 
BRANCH  25  30
ATOM     30  C   UNL     1      -0.159   3.844  -0.055  0.00  0.00    -0.032 A 
ATOM     31  C   UNL     1       0.345   3.184  -1.160  0.00  0.00    +0.004 A 
ATOM     32  C   UNL     1       0.265   1.806  -1.238  0.00  0.00    +0.000 A 
ATOM     33  C   UNL     1      -0.319   1.089  -0.211  0.00  0.00    +0.000 A 
ATOM     34  C   UNL     1      -0.828   1.749   0.891  0.00  0.00    +0.000 A 
ATOM     35  C   UNL     1      -0.743   3.126   0.972  0.00  0.00    +0.004 A 
ENDBRANCH  25  30
ENDBRANCH  22  25
ENDBRANCH  20  21
ENDBRANCH   1  20
TORSDOF 7
