REMARK  Name = ZINC16310330
REMARK  5 active torsions:
REMARK  status: ('A' for Active; 'I' for Inactive)
REMARK    1  A    between atoms: N_4  and  C_7
REMARK    2  A    between atoms: C_8  and  C_13
REMARK    3  A    between atoms: N_14  and  N_15
REMARK    4  A    between atoms: N_15  and  C_16
REMARK    5  A    between atoms: C_19  and  N_22
REMARK                            x       y       z     vdW  Elec       q    Type
REMARK                         _______ _______ _______ _____ _____    ______ ____
ROOT
ATOM      1  C   UNL     1      -0.014   0.973  -0.230  0.00  0.00    +0.149 C 
ATOM      2  N   UNL     1      -1.101   1.712   0.004  0.00  0.00    -0.189 NA
ENDROOT
BRANCH   1   4
ATOM      3  C   UNL     1       2.470   0.980  -1.010  0.00  0.00    +0.157 A 
ATOM      4  C   UNL     1       1.110   1.554  -0.782  0.00  0.00    +0.080 A 
ATOM      5  S   UNL     1       1.350   3.208  -1.419  0.00  0.00    -0.022 S 
ATOM      6  C   UNL     1       3.062   3.027  -1.899  0.00  0.00    +0.312 A 
ATOM      7  N   UNL     1       3.342   1.768  -1.561  0.00  0.00    -0.184 NA
ATOM      8  O   UNL     1       3.871   3.939  -2.464  0.00  0.00    -0.258 OA
BRANCH   3  12
ATOM      9  C   UNL     1       3.394  -2.877   0.034  0.00  0.00    +0.003 A 
ATOM     10  C   UNL     1       3.951  -2.296  -1.098  0.00  0.00    +0.018 A 
ATOM     11  C   UNL     1       3.621  -0.998  -1.422  0.00  0.00    +0.092 A 
ATOM     12  N   UNL     1       2.777  -0.303  -0.663  0.00  0.00    -0.307 N 
ATOM     13  C   UNL     1       2.230  -0.830   0.431  0.00  0.00    +0.092 A 
ATOM     14  C   UNL     1       2.517  -2.124   0.806  0.00  0.00    +0.018 A 
ENDBRANCH   3  12
ENDBRANCH   1   4
BRANCH   2  15
ATOM     15  N   UNL     1      -1.040   2.997  -0.094  0.00  0.00    -0.238 N 
ATOM     16  H   UNL     1      -0.072   3.491  -0.268  0.00  0.00    +0.174 HD
BRANCH  15  17
ATOM     17  C   UNL     1      -2.192   3.755   0.021  0.00  0.00    +0.048 A 
ATOM     18  C   UNL     1      -3.421   3.132   0.236  0.00  0.00    +0.027 A 
ATOM     19  C   UNL     1      -4.566   3.893   0.356  0.00  0.00    +0.034 A 
ATOM     20  C   UNL     1      -4.498   5.271   0.251  0.00  0.00    +0.126 A 
ATOM     21  C   UNL     1      -3.281   5.895   0.031  0.00  0.00    +0.034 A 
ATOM     22  C   UNL     1      -2.130   5.144  -0.084  0.00  0.00    +0.027 A 
BRANCH  20  23
ATOM     23  N   UNL     1      -5.730   6.082   0.374  0.00  0.00    +0.056 N 
ATOM     24  O   UNL     1      -5.668   7.394   0.275  0.00  0.00    -0.126 OA
ATOM     25  O   UNL     1      -6.888   5.491   0.583  0.00  0.00    -0.126 OA
ENDBRANCH  20  23
ENDBRANCH  15  17
ENDBRANCH   2  15
TORSDOF 5
