REMARK  Name = ZINC65454977
REMARK  8 active torsions:
REMARK  status: ('A' for Active; 'I' for Inactive)
REMARK    1  A    between atoms: C_1  and  C_2
REMARK    2  A    between atoms: C_2  and  N_3
REMARK    3  A    between atoms: C_4  and  C_11
REMARK    4  A    between atoms: N_7  and  C_10
REMARK    5  A    between atoms: C_11  and  C_12
REMARK    6  A    between atoms: N_15  and  C_18
REMARK    7  A    between atoms: C_18  and  C_19
REMARK    8  A    between atoms: C_22  and  C_24
REMARK                            x       y       z     vdW  Elec       q    Type
REMARK                         _______ _______ _______ _____ _____    ______ ____
ROOT
ATOM      1  C   UNL     1      -2.320  -2.123   3.325  0.00  0.00    -0.011 C 
ATOM      2  C   UNL     1      -3.661  -2.785   2.996  0.00  0.00    -0.015 C 
ATOM      3  C   UNL     1      -4.418  -3.065   4.296  0.00  0.00    -0.078 C 
ATOM      4  N   UNL     1      -3.624  -3.961   5.145  0.00  0.00    +0.384 N 
ATOM      5  C   UNL     1      -2.368  -3.304   5.524  0.00  0.00    -0.078 C 
ATOM      6  C   UNL     1      -1.532  -3.033   4.271  0.00  0.00    -0.015 C 
ATOM      7  H   UNL     1      -3.420  -4.810   4.639  0.00  0.00    -0.081 HD
ENDROOT
BRANCH   1   8
ATOM      8  C   UNL     1      -1.523  -1.913   2.036  0.00  0.00    +0.043 C 
BRANCH   8  10
ATOM      9  N   UNL     1      -1.414  -0.545  -0.013  0.00  0.00    -0.268 N 
ATOM     10  C   UNL     1      -2.240  -0.888   1.155  0.00  0.00    +0.163 C 
ATOM     11  N   UNL     1      -3.467  -1.470   0.575  0.00  0.00    -0.217 NA
ATOM     12  N   UNL     1      -3.299  -1.436  -0.780  0.00  0.00    -0.222 N 
ATOM     13  C   UNL     1      -2.117  -0.897  -1.105  0.00  0.00    +0.320 C 
ATOM     14  O   UNL     1      -1.725  -0.747  -2.247  0.00  0.00    -0.251 OA
ATOM     15  C   UNL     1      -4.285  -1.920  -1.750  0.00  0.00    +0.154 C 
ATOM     16  H   UNL     1      -3.607  -2.415   0.898  0.00  0.00    +0.147 HD
BRANCH   9  18
ATOM     17  C   UNL     1      -0.222   1.591  -0.019  0.00  0.00    +0.024 C 
ATOM     18  C   UNL     1      -0.083   0.067   0.008  0.00  0.00    +0.107 C 
ENDBRANCH   9  18
ENDBRANCH   8  10
ENDBRANCH   1   8
BRANCH   4  19
ATOM     19  C   UNL     1      -4.388  -4.289   6.356  0.00  0.00    -0.003 C 
BRANCH  19  20
ATOM     20  C   UNL     1      -3.628  -5.304   7.170  0.00  0.00    +0.089 A 
ATOM     21  C   UNL     1      -2.732  -5.027   8.135  0.00  0.00    +0.043 A 
ATOM     22  C   UNL     1      -2.267  -6.267   8.630  0.00  0.00    +0.047 A 
ATOM     23  C   UNL     1      -2.906  -7.227   7.939  0.00  0.00    +0.135 A 
ATOM     24  O   UNL     1      -3.734  -6.638   7.060  0.00  0.00    -0.464 OA
BRANCH  23  25
ATOM     25  C   UNL     1      -2.729  -8.712   8.124  0.00  0.00    +0.218 C 
ATOM     26  C   UNL     1      -3.886  -9.297   8.914  0.00  0.00    +0.030 C 
ATOM     27  C   UNL     1      -4.444 -10.168   8.070  0.00  0.00    +0.133 C 
ATOM     28  N   UNL     1      -3.783 -10.185   6.891  0.00  0.00    -0.162 NA
ATOM     29  N   UNL     1      -2.819  -9.412   6.831  0.00  0.00    -0.172 NA
ENDBRANCH  23  25
ENDBRANCH  19  20
ENDBRANCH   4  19
TORSDOF 6
