REMARK  Name = ZINC34759644
REMARK  13 active torsions:
REMARK  status: ('A' for Active; 'I' for Inactive)
REMARK    1  A    between atoms: C_1  and  C_2
REMARK    2  A    between atoms: C_2  and  N_3
REMARK    3  A    between atoms: N_3  and  C_4
REMARK    4  A    between atoms: C_4  and  C_5
REMARK    5  A    between atoms: C_6  and  C_8
REMARK    6  A    between atoms: C_8  and  N_9
REMARK    7  A    between atoms: C_17  and  C_32
REMARK    8  A    between atoms: C_18  and  C_31
REMARK    9  A    between atoms: C_22  and  S_24
REMARK   10  A    between atoms: S_24  and  C_25
REMARK   11  A    between atoms: C_25  and  C_26
REMARK   12  A    between atoms: N_28  and  C_29
REMARK   13  A    between atoms: N_28  and  C_30
REMARK                            x       y       z     vdW  Elec       q    Type
REMARK                         _______ _______ _______ _____ _____    ______ ____
ROOT
ATOM      1  N   UNL     1      -1.337  -1.467  -3.954  0.00  0.00    +0.387 N 
ATOM      2  C   UNL     1      -1.111  -2.731  -4.666  0.00  0.00    -0.059 C 
ATOM      3  C   UNL     1      -1.881  -2.713  -5.991  0.00  0.00    +0.088 C 
ATOM      4  N   UNL     1      -3.294  -2.421  -5.706  0.00  0.00    -0.318 N 
ATOM      5  C   UNL     1      -3.604  -1.260  -4.858  0.00  0.00    +0.088 C 
ATOM      6  C   UNL     1      -2.753  -1.346  -3.586  0.00  0.00    -0.059 C 
ATOM      7  C   UNL     1      -4.303  -3.215  -6.221  0.00  0.00    +0.134 A 
ATOM      8  C   UNL     1      -4.778  -3.004  -7.546  0.00  0.00    +0.051 A 
ATOM      9  C   UNL     1      -4.360  -2.026  -8.536  0.00  0.00    -0.028 A 
ATOM     10  C   UNL     1      -4.957  -2.013  -9.736  0.00  0.00    -0.008 A 
ATOM     11  S   UNL     1      -6.146  -3.337  -9.624  0.00  0.00    -0.073 S 
ATOM     12  C   UNL     1      -5.808  -3.872  -7.967  0.00  0.00    +0.115 A 
ATOM     13  N   UNL     1      -6.287  -4.809  -7.173  0.00  0.00    -0.214 NA
ATOM     14  C   UNL     1      -5.806  -4.959  -5.947  0.00  0.00    +0.191 A 
ATOM     15  N   UNL     1      -4.832  -4.181  -5.489  0.00  0.00    -0.206 NA
ATOM     16  C   UNL     1      -4.688  -1.098 -10.902  0.00  0.00    +0.052 C 
ATOM     17  C   UNL     1      -3.268  -1.037  -8.218  0.00  0.00    +0.045 C 
ATOM     18  H   UNL     1      -1.078  -0.696  -4.551  0.00  0.00    -0.081 HD
ENDROOT
BRANCH   1  19
ATOM     19  C   UNL     1      -0.513  -1.440  -2.737  0.00  0.00    +0.019 C 
BRANCH  19  21
ATOM     20  N   UNL     1       1.892  -1.417  -2.159  0.00  0.00    -0.304 N 
ATOM     21  C   UNL     1       0.945  -1.440  -3.118  0.00  0.00    +0.199 C 
ATOM     22  O   UNL     1       1.266  -1.462  -4.287  0.00  0.00    -0.278 OA
BRANCH  20  24
ATOM     23  C   UNL     1       1.361   0.060  -0.284  0.00  0.00    +0.024 C 
ATOM     24  C   UNL     1       1.503  -1.391  -0.747  0.00  0.00    +0.104 C 
ENDBRANCH  20  24
BRANCH  20  25
ATOM     25  C   UNL     1       3.309  -1.417  -2.529  0.00  0.00    +0.104 C 
ATOM     26  C   UNL     1       3.809  -2.860  -2.630  0.00  0.00    +0.024 C 
ENDBRANCH  20  25
ENDBRANCH  19  21
ENDBRANCH   1  19
BRANCH  14  27
ATOM     27  S   UNL     1      -6.465  -6.220  -4.907  0.00  0.00    -0.077 S 
BRANCH  27  28
ATOM     28  C   UNL     1      -7.733  -7.015  -5.931  0.00  0.00    +0.173 C 
BRANCH  28  29
ATOM     29  C   UNL     1      -8.384  -8.128  -5.151  0.00  0.00    +0.225 C 
ATOM     30  O   UNL     1      -8.027  -8.361  -4.016  0.00  0.00    -0.275 OA
ATOM     31  N   UNL     1      -9.363  -8.863  -5.715  0.00  0.00    -0.307 N 
ATOM     32  C   UNL     1      -9.995  -9.945  -4.956  0.00  0.00    +0.131 C 
ATOM     33  C   UNL     1      -9.793  -8.581  -7.086  0.00  0.00    +0.131 C 
ENDBRANCH  28  29
ENDBRANCH  27  28
ENDBRANCH  14  27
TORSDOF 7
