REMARK  Name = ZINC27575121
REMARK  12 active torsions:
REMARK  status: ('A' for Active; 'I' for Inactive)
REMARK    1  A    between atoms: C_1  and  C_2
REMARK    2  A    between atoms: C_5  and  C_8
REMARK    3  A    between atoms: C_8  and  C_10
REMARK    4  A    between atoms: C_8  and  N_15
REMARK    5  A    between atoms: C_16  and  C_18
REMARK    6  A    between atoms: C_18  and  N_19
REMARK    7  A    between atoms: N_19  and  C_20
REMARK    8  A    between atoms: N_19  and  C_31
REMARK    9  A    between atoms: C_20  and  C_21
REMARK   10  A    between atoms: C_24  and  C_27
REMARK   11  A    between atoms: N_29  and  C_30
REMARK   12  A    between atoms: C_31  and  C_32
REMARK                            x       y       z     vdW  Elec       q    Type
REMARK                         _______ _______ _______ _____ _____    ______ ____
ROOT
ATOM      1  N   UNL     1       1.741  -2.994  -4.292  0.00  0.00    +0.393 N 
ATOM      2  H   UNL     1       2.830  -3.118  -4.381  0.00  0.00    -0.080 HD
ENDROOT
BRANCH   1   3
ATOM      3  C   UNL     1       1.361  -3.325  -2.913  0.00  0.00    +0.020 C 
BRANCH   3   5
ATOM      4  N   UNL     1       2.008  -4.976  -1.188  0.00  0.00    -0.306 N 
ATOM      5  C   UNL     1       2.127  -4.540  -2.458  0.00  0.00    +0.197 C 
ATOM      6  O   UNL     1       2.850  -5.127  -3.234  0.00  0.00    -0.278 OA
ATOM      7  H   UNL     1       1.290  -4.495  -0.507  0.00  0.00    +0.150 HD
BRANCH   4   8
ATOM      8  C   UNL     1       2.835  -6.088  -0.714  0.00  0.00    +0.140 C 
BRANCH   8  13
ATOM      9  C   UNL     1       0.011  -8.960   3.430  0.00  0.00    +0.044 C 
ATOM     10  C   UNL     1       0.747  -8.211   2.349  0.00  0.00    -0.050 A 
ATOM     11  C   UNL     1       1.479  -8.905   1.403  0.00  0.00    +0.004 A 
ATOM     12  C   UNL     1       2.154  -8.218   0.412  0.00  0.00    +0.006 A 
ATOM     13  C   UNL     1       2.098  -6.837   0.366  0.00  0.00    -0.022 A 
ATOM     14  C   UNL     1       1.371  -6.144   1.315  0.00  0.00    +0.006 A 
ATOM     15  C   UNL     1       0.691  -6.831   2.304  0.00  0.00    +0.004 A 
ENDBRANCH   8  13
BRANCH   8  16
ATOM     16  C   UNL     1       4.129  -5.552  -0.160  0.00  0.00    +0.014 A 
ATOM     17  C   UNL     1       5.372  -6.089  -0.222  0.00  0.00    +0.013 A 
ATOM     18  C   UNL     1       6.425  -5.412   0.365  0.00  0.00    +0.008 A 
ATOM     19  C   UNL     1       6.184  -4.231   0.984  0.00  0.00    +0.045 A 
ATOM     20  S   UNL     1       4.424  -4.043   0.749  0.00  0.00    -0.099 S 
ENDBRANCH   8  16
ENDBRANCH   4   8
ENDBRANCH   3   5
ENDBRANCH   1   3
BRANCH   1  21
ATOM     21  C   UNL     1       1.103  -3.909  -5.248  0.00  0.00    -0.042 C 
BRANCH  21  22
ATOM     22  C   UNL     1       1.700  -3.703  -6.616  0.00  0.00    -0.064 A 
ATOM     23  C   UNL     1       1.135  -2.783  -7.482  0.00  0.00    +0.002 A 
ATOM     24  C   UNL     1       1.680  -2.585  -8.734  0.00  0.00    +0.013 A 
ATOM     25  C   UNL     1       2.796  -3.324  -9.131  0.00  0.00    +0.037 A 
ATOM     26  C   UNL     1       3.357  -4.254  -8.255  0.00  0.00    +0.013 A 
ATOM     27  C   UNL     1       2.806  -4.438  -7.004  0.00  0.00    +0.002 A 
BRANCH  25  28
ATOM     28  C   UNL     1       3.381  -3.121 -10.473  0.00  0.00    +0.244 C 
ATOM     29  O   UNL     1       4.353  -3.765 -10.816  0.00  0.00    -0.270 OA
ATOM     30  N   UNL     1       2.837  -2.222 -11.317  0.00  0.00    -0.314 N 
ATOM     31  C   UNL     1       3.417  -2.021 -12.647  0.00  0.00    +0.128 C 
ATOM     32  H   UNL     1       1.957  -1.639 -11.007  0.00  0.00    +0.149 HD
ENDBRANCH  25  28
ENDBRANCH  21  22
ENDBRANCH   1  21
BRANCH   1  33
ATOM     33  C   UNL     1       1.419  -1.596  -4.607  0.00  0.00    -0.002 C 
BRANCH  33  34
ATOM     34  C   UNL     1       2.421  -0.688  -3.942  0.00  0.00    +0.089 A 
ATOM     35  C   UNL     1       3.534  -0.194  -4.513  0.00  0.00    +0.042 A 
ATOM     36  C   UNL     1       4.175   0.604  -3.538  0.00  0.00    +0.041 A 
ATOM     37  C   UNL     1       3.416   0.549  -2.429  0.00  0.00    +0.195 A 
ATOM     38  O   UNL     1       2.351  -0.230  -2.682  0.00  0.00    -0.470 OA
ENDBRANCH  33  34
ENDBRANCH   1  33
TORSDOF 10
