REMARK  Name = ZINC21602579
REMARK  6 active torsions:
REMARK  status: ('A' for Active; 'I' for Inactive)
REMARK    1  A    between atoms: C_1  and  C_2
REMARK    2  A    between atoms: C_2  and  C_4
REMARK    3  A    between atoms: C_2  and  O_12
REMARK    4  A    between atoms: O_12  and  C_13
REMARK    5  A    between atoms: C_13  and  C_15
REMARK    6  A    between atoms: C_28  and  C_29
REMARK                            x       y       z     vdW  Elec       q    Type
REMARK                         _______ _______ _______ _____ _____    ______ ____
ROOT
ATOM      1  C   UNL     1      -1.626   1.345  -0.484  0.00  0.00    +0.073 A 
ATOM      2  C   UNL     1      -2.517   1.647   0.638  0.00  0.00    +0.015 A 
ATOM      3  C   UNL     1      -2.176   1.317   1.953  0.00  0.00    +0.011 A 
ATOM      4  C   UNL     1      -3.038   1.617   2.967  0.00  0.00    +0.001 A 
ATOM      5  C   UNL     1      -4.253   2.248   2.707  0.00  0.00    +0.002 A 
ATOM      6  C   UNL     1      -4.614   2.582   1.439  0.00  0.00    +0.028 A 
ATOM      7  C   UNL     1      -3.751   2.288   0.366  0.00  0.00    +0.072 A 
ATOM      8  N   UNL     1      -4.078   2.602  -0.885  0.00  0.00    -0.247 NA
ATOM      9  C   UNL     1      -3.292   2.341  -1.925  0.00  0.00    +0.072 A 
ATOM     10  C   UNL     1      -2.046   1.714  -1.754  0.00  0.00    -0.007 A 
ATOM     11  C   UNL     1      -1.375   1.539  -3.093  0.00  0.00    +0.043 C 
ATOM     12  C   UNL     1      -2.329   2.137  -4.135  0.00  0.00    +0.042 C 
ATOM     13  C   UNL     1      -3.522   2.629  -3.354  0.00  0.00    -0.021 C 
ATOM     14  C   UNL     1      -4.609   3.229  -3.871  0.00  0.00    +0.018 C 
ENDROOT
BRANCH  14  15
ATOM     15  C   UNL     1      -4.768   3.333  -5.331  0.00  0.00    +0.029 A 
ATOM     16  C   UNL     1      -4.758   2.179  -6.124  0.00  0.00    +0.132 A 
ATOM     17  C   UNL     1      -4.913   2.285  -7.493  0.00  0.00    +0.039 A 
ATOM     18  C   UNL     1      -5.066   3.529  -8.080  0.00  0.00    +0.004 A 
ATOM     19  C   UNL     1      -5.072   4.674  -7.304  0.00  0.00    +0.021 A 
ATOM     20  C   UNL     1      -4.924   4.585  -5.934  0.00  0.00    +0.051 A 
ATOM     21 CL   UNL     1      -4.931   6.024  -4.963  0.00  0.00    -0.083 Cl
ATOM     22  F   UNL     1      -4.603   0.965  -5.552  0.00  0.00    -0.205 F 
ENDBRANCH  14  15
BRANCH   1  23
ATOM     23  C   UNL     1      -0.325   0.677  -0.271  0.00  0.00    +0.341 C 
ATOM     24  O   UNL     1      -0.252  -0.535  -0.298  0.00  0.00    -0.245 OA
BRANCH  23  25
ATOM     25  O   UNL     1       0.782   1.414  -0.052  0.00  0.00    -0.449 OA
BRANCH  25  27
ATOM     26  C   UNL     1       2.713   0.485  -1.209  0.00  0.00    +0.062 C 
ATOM     27  C   UNL     1       2.026   0.691   0.143  0.00  0.00    +0.259 C 
BRANCH  27  28
ATOM     28  C   UNL     1       2.931   1.485   1.050  0.00  0.00    +0.264 C 
ATOM     29  O   UNL     1       2.715   2.662   1.243  0.00  0.00    -0.271 OA
ATOM     30  N   UNL     1       3.981   0.886   1.646  0.00  0.00    -0.221 N 
ATOM     31  C   UNL     1       4.885   1.520   2.617  0.00  0.00    +0.137 C 
ATOM     32  C   UNL     1       5.886   0.404   2.973  0.00  0.00    +0.125 C 
ATOM     33  N   UNL     1       5.446  -0.738   2.158  0.00  0.00    -0.297 N 
ATOM     34  C   UNL     1       4.370  -0.380   1.444  0.00  0.00    +0.309 C 
ATOM     35  O   UNL     1       3.799  -1.135   0.682  0.00  0.00    -0.252 OA
ATOM     36  H   UNL     1       5.991  -1.692   2.207  0.00  0.00    +0.150 HD
ENDBRANCH  27  28
ENDBRANCH  25  27
ENDBRANCH  23  25
ENDBRANCH   1  23
TORSDOF 5
