REMARK  Name = ZINC09858117
REMARK  11 active torsions:
REMARK  status: ('A' for Active; 'I' for Inactive)
REMARK    1  A    between atoms: C_1  and  C_2
REMARK    2  A    between atoms: C_2  and  N_3
REMARK    3  A    between atoms: C_7  and  S_23
REMARK    4  A    between atoms: C_11  and  C_12
REMARK    5  A    between atoms: C_12  and  N_58
REMARK    6  A    between atoms: C_15  and  N_18
REMARK    7  A    between atoms: N_18  and  S_19
REMARK    8  A    between atoms: S_19  and  C_22
REMARK    9  A    between atoms: S_23  and  N_26
REMARK   10  A    between atoms: N_26  and  C_27
REMARK   11  A    between atoms: N_26  and  C_28
REMARK                            x       y       z     vdW  Elec       q    Type
REMARK                         _______ _______ _______ _____ _____    ______ ____
ROOT
ATOM      1  N   UNL     1       1.211  -2.558  -3.706  0.00  0.00    -0.329 N 
ATOM      2  C   UNL     1       2.332  -3.003  -4.378  0.00  0.00    +0.069 A 
ATOM      3  C   UNL     1       2.602  -3.325  -5.701  0.00  0.00    +0.030 A 
ATOM      4  C   UNL     1       3.862  -3.758  -6.055  0.00  0.00    +0.030 A 
ATOM      5  C   UNL     1       4.861  -3.875  -5.098  0.00  0.00    +0.108 A 
ATOM      6  C   UNL     1       4.613  -3.562  -3.792  0.00  0.00    +0.058 A 
ATOM      7  C   UNL     1       3.344  -3.121  -3.410  0.00  0.00    +0.091 A 
ATOM      8  N   UNL     1       2.801  -2.745  -2.223  0.00  0.00    -0.234 NA
ATOM      9  C   UNL     1       1.555  -2.413  -2.398  0.00  0.00    +0.094 A 
ENDROOT
BRANCH   5  10
ATOM     10  S   UNL     1       6.463  -4.431  -5.573  0.00  0.00    +0.060 S 
ATOM     11  O   UNL     1       7.066  -4.976  -4.408  0.00  0.00    -0.153 OA
ATOM     12  O   UNL     1       6.295  -5.184  -6.767  0.00  0.00    -0.153 OA
BRANCH  10  13
ATOM     13  N   UNL     1       7.346  -3.091  -5.980  0.00  0.00    -0.183 NA
ATOM     14  C   UNL     1       8.130  -2.392  -4.958  0.00  0.00    +0.131 C 
ATOM     15  C   UNL     1       7.344  -2.603  -7.361  0.00  0.00    +0.131 C 
ENDBRANCH  10  13
ENDBRANCH   5  10
BRANCH   1  17
ATOM     16  C   UNL     1      -0.168  -0.832  -4.754  0.00  0.00    +0.027 C 
ATOM     17  C   UNL     1      -0.104  -2.290  -4.294  0.00  0.00    +0.120 C 
ENDBRANCH   1  17
BRANCH   9  18
ATOM     18  C   UNL     1       0.626  -1.941  -1.309  0.00  0.00    -0.003 C 
BRANCH  18  24
ATOM     19  C   UNL     1       0.002  -0.004   0.002  0.00  0.00    -0.077 C 
ATOM     20  C   UNL     1      -0.019   1.526   0.010  0.00  0.00    +0.002 C 
ATOM     21  C   UNL     1       1.420   2.051  -0.001  0.00  0.00    +0.073 C 
ATOM     22  C   UNL     1       2.145   1.503  -1.232  0.00  0.00    +0.002 C 
ATOM     23  C   UNL     1       2.103  -0.026  -1.205  0.00  0.00    -0.077 C 
ATOM     24  N   UNL     1       0.692  -0.468  -1.220  0.00  0.00    +0.384 N 
ATOM     25  H   UNL     1       0.226  -0.063  -2.040  0.00  0.00    -0.081 HD
BRANCH  21  26
ATOM     26  N   UNL     1       1.406   3.515  -0.051  0.00  0.00    -0.192 NA
ATOM     27  H   UNL     1       0.716   3.977  -0.553  0.00  0.00    +0.148 HD
BRANCH  26  28
ATOM     28  S   UNL     1       2.569   4.383   0.748  0.00  0.00    +0.027 S 
ATOM     29  O   UNL     1       2.237   5.743   0.505  0.00  0.00    -0.158 OA
ATOM     30  O   UNL     1       2.566   3.861   2.069  0.00  0.00    -0.158 OA
ATOM     31  C   UNL     1       4.122   3.959  -0.088  0.00  0.00    +0.214 C 
ENDBRANCH  26  28
ENDBRANCH  21  26
ENDBRANCH  18  24
ENDBRANCH   9  18
TORSDOF 7
