REMARK  Name = ZINC09244247
REMARK  8 active torsions:
REMARK  status: ('A' for Active; 'I' for Inactive)
REMARK    1  A    between atoms: C_2  and  C_3
REMARK    2  A    between atoms: C_3  and  O_4
REMARK    3  A    between atoms: O_4  and  C_5
REMARK    4  A    between atoms: C_9  and  C_11
REMARK    5  A    between atoms: C_13  and  C_25
REMARK    6  A    between atoms: N_17  and  C_18
REMARK    7  A    between atoms: C_18  and  C_19
REMARK    8  A    between atoms: C_25  and  C_27
REMARK                            x       y       z     vdW  Elec       q    Type
REMARK                         _______ _______ _______ _____ _____    ______ ____
ROOT
ATOM      1  C   UNL     1      -6.583   1.243  -3.033  0.00  0.00    +0.145 C 
ATOM      2  C   UNL     1      -6.763   2.158  -4.222  0.00  0.00    +0.076 C 
ATOM      3  C   UNL     1      -8.068   2.514  -4.247  0.00  0.00    +0.249 C 
ATOM      4  C   UNL     1      -8.769   1.870  -3.116  0.00  0.00    +0.288 C 
ATOM      5  O   UNL     1      -9.952   1.995  -2.868  0.00  0.00    -0.266 OA
ATOM      6  N   UNL     1      -7.904   1.124  -2.403  0.00  0.00    -0.276 N 
ATOM      7  O   UNL     1      -8.640   3.331  -5.162  0.00  0.00    -0.282 OA
ENDROOT
BRANCH   1  12
ATOM      8  C   UNL     1      -3.442   1.827  -1.016  0.00  0.00    +0.121 A 
ATOM      9  C   UNL     1      -3.795   2.947  -0.276  0.00  0.00    +0.045 A 
ATOM     10  C   UNL     1      -5.047   3.510  -0.432  0.00  0.00    +0.004 A 
ATOM     11  C   UNL     1      -5.948   2.958  -1.324  0.00  0.00    +0.006 A 
ATOM     12  C   UNL     1      -5.599   1.842  -2.062  0.00  0.00    -0.019 A 
ATOM     13  C   UNL     1      -4.345   1.279  -1.914  0.00  0.00    +0.051 A 
BRANCH   8  14
ATOM     14  O   UNL     1      -2.211   1.272  -0.864  0.00  0.00    -0.488 OA
BRANCH  14  15
ATOM     15  C   UNL     1      -1.330   1.893   0.075  0.00  0.00    +0.256 C 
BRANCH  15  17
ATOM     16  C   UNL     1       1.110   1.803   0.087  0.00  0.00    +0.007 C 
ATOM     17  C   UNL     1      -0.022   1.144   0.107  0.00  0.00    +0.006 C 
ENDBRANCH  15  17
ENDBRANCH  14  15
ENDBRANCH   8  14
ENDBRANCH   1  12
BRANCH   2  18
ATOM     18  C   UNL     1      -5.723   2.578  -5.167  0.00  0.00    +0.195 C 
ATOM     19  O   UNL     1      -5.387   3.746  -5.222  0.00  0.00    -0.287 OA
BRANCH  18  20
ATOM     20  C   UNL     1      -5.084   1.583  -6.050  0.00  0.00    +0.026 A 
ATOM     21  C   UNL     1      -5.543   0.263  -6.068  0.00  0.00    +0.015 A 
ATOM     22  C   UNL     1      -4.947  -0.661  -6.897  0.00  0.00    +0.050 A 
ATOM     23  C   UNL     1      -3.881  -0.290  -7.709  0.00  0.00    +0.162 A 
ATOM     24  C   UNL     1      -3.417   1.024  -7.694  0.00  0.00    +0.163 A 
ATOM     25  C   UNL     1      -4.013   1.957  -6.868  0.00  0.00    +0.061 A 
ATOM     26  O   UNL     1      -2.381   1.404  -8.490  0.00  0.00    -0.485 OA
ATOM     27  C   UNL     1      -1.566   0.358  -9.031  0.00  0.00    +0.270 C 
ATOM     28  C   UNL     1      -2.491  -0.734  -9.585  0.00  0.00    +0.270 C 
ATOM     29  O   UNL     1      -3.301  -1.222  -8.511  0.00  0.00    -0.485 OA
ENDBRANCH  18  20
ENDBRANCH   2  18
BRANCH   6  30
ATOM     30  C   UNL     1      -8.223   0.335  -1.211  0.00  0.00    +0.183 C 
BRANCH  30  31
ATOM     31  C   UNL     1      -8.042   1.188   0.019  0.00  0.00    +0.122 A 
ATOM     32  C   UNL     1      -8.989   1.951   0.593  0.00  0.00    +0.046 A 
ATOM     33  C   UNL     1      -8.390   2.573   1.713  0.00  0.00    +0.041 A 
ATOM     34  C   UNL     1      -7.113   2.152   1.756  0.00  0.00    +0.195 A 
ATOM     35  O   UNL     1      -6.910   1.309   0.731  0.00  0.00    -0.466 OA
ENDBRANCH  30  31
ENDBRANCH   6  30
TORSDOF 8
