REMARK  Name = ZINC36073383
REMARK  12 active torsions:
REMARK  status: ('A' for Active; 'I' for Inactive)
REMARK    1  A    between atoms: C_1  and  C_2
REMARK    2  A    between atoms: C_2  and  C_3
REMARK    3  A    between atoms: C_3  and  C_5
REMARK    4  A    between atoms: C_3  and  N_6
REMARK    5  A    between atoms: C_7  and  C_9
REMARK    6  A    between atoms: C_12  and  C_14
REMARK    7  A    between atoms: C_14  and  N_15
REMARK    8  A    between atoms: N_15  and  C_16
REMARK    9  A    between atoms: N_15  and  C_25
REMARK   10  A    between atoms: C_16  and  C_17
REMARK   11  A    between atoms: C_25  and  C_27
REMARK   12  A    between atoms: C_25  and  C_28
REMARK                            x       y       z     vdW  Elec       q    Type
REMARK                         _______ _______ _______ _____ _____    ______ ____
ROOT
ATOM      1  N   UNL     1       7.218   0.604  -0.114  0.00  0.00    +0.393 N 
ATOM      2  H   UNL     1       6.800   0.128   0.671  0.00  0.00    -0.080 HD
ENDROOT
BRANCH   1   3
ATOM      3  C   UNL     1       7.077  -0.224  -1.320  0.00  0.00    -0.040 C 
ATOM      4  C   UNL     1       8.436  -0.819  -1.692  0.00  0.00    -0.008 C 
BRANCH   3   5
ATOM      5  C   UNL     1       6.097  -1.337  -1.053  0.00  0.00    -0.061 A 
ATOM      6  C   UNL     1       6.477  -2.423  -0.287  0.00  0.00    +0.002 A 
ATOM      7  C   UNL     1       5.578  -3.445  -0.042  0.00  0.00    +0.000 A 
ATOM      8  C   UNL     1       4.299  -3.380  -0.563  0.00  0.00    +0.000 A 
ATOM      9  C   UNL     1       3.919  -2.293  -1.328  0.00  0.00    +0.000 A 
ATOM     10  C   UNL     1       4.816  -1.270  -1.569  0.00  0.00    +0.002 A 
ENDBRANCH   3   5
ENDBRANCH   1   3
BRANCH   1  11
ATOM     11  C   UNL     1       6.542   1.891  -0.322  0.00  0.00    +0.020 C 
BRANCH  11  15
ATOM     12  C   UNL     1       3.011   1.151   0.006  0.00  0.00    +0.163 A 
ATOM     13  C   UNL     1       3.054   1.570  -1.288  0.00  0.00    +0.230 A 
ATOM     14  O   UNL     1       4.332   1.886  -1.555  0.00  0.00    -0.449 OA
ATOM     15  C   UNL     1       5.058   1.665  -0.450  0.00  0.00    +0.179 A 
ATOM     16  N   UNL     1       4.279   1.230   0.494  0.00  0.00    -0.210 NA
BRANCH  12  18
ATOM     17  N   UNL     1       1.921   0.318   2.029  0.00  0.00    -0.307 N 
ATOM     18  C   UNL     1       1.816   0.702   0.742  0.00  0.00    +0.266 C 
ATOM     19  O   UNL     1       0.734   0.678   0.187  0.00  0.00    -0.268 OA
ATOM     20  H   UNL     1       2.784   0.337   2.472  0.00  0.00    +0.149 HD
BRANCH  17  21
ATOM     21  C   UNL     1       0.733  -0.128   2.761  0.00  0.00    +0.070 C 
ATOM     22  C   UNL     1       0.496  -1.615   2.490  0.00  0.00    +0.028 C 
BRANCH  21  24
ATOM     23  C   UNL     1       1.058   1.588   4.547  0.00  0.00    +0.005 C 
ATOM     24  C   UNL     1       0.945   0.089   4.260  0.00  0.00    +0.018 C 
ENDBRANCH  21  24
ENDBRANCH  17  21
ENDBRANCH  12  18
ENDBRANCH  11  15
ENDBRANCH   1  11
BRANCH   1  25
ATOM     25  C   UNL     1       8.643   0.836   0.156  0.00  0.00    -0.040 C 
BRANCH  25  26
ATOM     26  C   UNL     1       9.278  -0.443   0.638  0.00  0.00    -0.045 A 
ATOM     27  C   UNL     1       8.575  -1.291   1.473  0.00  0.00    +0.004 A 
ATOM     28  C   UNL     1       9.157  -2.464   1.915  0.00  0.00    +0.020 A 
ATOM     29  C   UNL     1      10.443  -2.790   1.522  0.00  0.00    +0.042 A 
ATOM     30  C   UNL     1      11.147  -1.942   0.686  0.00  0.00    +0.040 A 
ATOM     31  C   UNL     1      10.562  -0.770   0.240  0.00  0.00    +0.044 A 
ATOM     32 CL   UNL     1      11.441   0.293  -0.814  0.00  0.00    -0.083 Cl
ATOM     33 CL   UNL     1      11.174  -4.263   2.078  0.00  0.00    -0.083 Cl
ENDBRANCH  25  26
ENDBRANCH   1  25
TORSDOF 9
