REMARK  Name = ZINC45943686
REMARK  11 active torsions:
REMARK  status: ('A' for Active; 'I' for Inactive)
REMARK    1  A    between atoms: C_1  and  C_2
REMARK    2  A    between atoms: C_5  and  C_8
REMARK    3  A    between atoms: C_8  and  N_9
REMARK    4  A    between atoms: C_15  and  C_33
REMARK    5  A    between atoms: N_21  and  C_24
REMARK    6  A    between atoms: C_24  and  C_25
REMARK    7  A    between atoms: C_27  and  C_32
REMARK    8  A    between atoms: C_30  and  C_31
REMARK    9  A    between atoms: N_35  and  C_36
REMARK   10  A    between atoms: C_36  and  C_37
REMARK   11  A    between atoms: C_36  and  C_38
REMARK                            x       y       z     vdW  Elec       q    Type
REMARK                         _______ _______ _______ _____ _____    ______ ____
ROOT
ATOM      1  N   UNL     1       1.447  -4.746  -0.032  0.00  0.00    -0.272 N 
ATOM      2  C   UNL     1       2.070  -4.947  -1.210  0.00  0.00    +0.263 A 
ATOM      3  O   UNL     1       1.489  -4.741  -2.258  0.00  0.00    -0.267 OA
ATOM      4  C   UNL     1       3.469  -5.421  -1.208  0.00  0.00    +0.064 A 
ATOM      5  C   UNL     1       4.154  -5.642  -2.402  0.00  0.00    +0.016 A 
ATOM      6  C   UNL     1       5.459  -6.083  -2.371  0.00  0.00    +0.014 A 
ATOM      7  C   UNL     1       6.096  -6.310  -1.148  0.00  0.00    +0.039 A 
ATOM      8  C   UNL     1       5.416  -6.090   0.049  0.00  0.00    +0.040 A 
ATOM      9  C   UNL     1       4.104  -5.646   0.022  0.00  0.00    +0.067 A 
ATOM     10  N   UNL     1       3.402  -5.419   1.206  0.00  0.00    -0.229 N 
ATOM     11  C   UNL     1       2.100  -4.971   1.172  0.00  0.00    +0.240 A 
ATOM     12  N   UNL     1       1.680  -4.833   2.400  0.00  0.00    -0.129 NA
ATOM     13  N   UNL     1       2.724  -5.190   3.262  0.00  0.00    -0.206 N 
ATOM     14  C   UNL     1       3.772  -5.555   2.497  0.00  0.00    +0.353 A 
ATOM     15  O   UNL     1       4.861  -5.928   2.898  0.00  0.00    -0.244 OA
ENDROOT
BRANCH   7  16
ATOM     16  C   UNL     1       7.498  -6.785  -1.123  0.00  0.00    +0.244 C 
ATOM     17  O   UNL     1       8.054  -6.982  -0.061  0.00  0.00    -0.270 OA
ATOM     18  N   UNL     1       8.157  -6.998  -2.279  0.00  0.00    -0.309 N 
ATOM     19  H   UNL     1       7.713  -6.840  -3.127  0.00  0.00    +0.149 HD
BRANCH  18  20
ATOM     20  C   UNL     1       9.545  -7.468  -2.255  0.00  0.00    +0.067 C 
ATOM     21  C   UNL     1       9.856  -8.206  -3.558  0.00  0.00    +0.027 C 
ATOM     22  C   UNL     1      10.486  -6.271  -2.108  0.00  0.00    +0.027 C 
ENDBRANCH  18  20
ENDBRANCH   7  16
BRANCH   1  23
ATOM     23  C   UNL     1       0.059  -4.275  -0.021  0.00  0.00    +0.163 C 
BRANCH  23  28
ATOM     24  C   UNL     1      -0.018   1.503   0.010  0.00  0.00    +0.044 C 
ATOM     25  C   UNL     1       0.002  -0.004   0.002  0.00  0.00    -0.050 A 
ATOM     26  C   UNL     1       0.006  -0.689  -1.199  0.00  0.00    +0.004 A 
ATOM     27  C   UNL     1       0.025  -2.071  -1.206  0.00  0.00    +0.005 A 
ATOM     28  C   UNL     1       0.040  -2.768  -0.013  0.00  0.00    -0.028 A 
ATOM     29  C   UNL     1       0.037  -2.084   1.188  0.00  0.00    +0.005 A 
ATOM     30  C   UNL     1       0.023  -0.702   1.195  0.00  0.00    +0.004 A 
ENDBRANCH  23  28
ENDBRANCH   1  23
BRANCH  13  31
ATOM     31  C   UNL     1       2.682  -5.181   4.727  0.00  0.00    +0.184 C 
BRANCH  31  32
ATOM     32  C   UNL     1       3.123  -3.831   5.233  0.00  0.00    -0.023 A 
ATOM     33  C   UNL     1       4.415  -3.653   5.691  0.00  0.00    +0.009 A 
ATOM     34  C   UNL     1       4.819  -2.416   6.156  0.00  0.00    -0.050 A 
ATOM     35  C   UNL     1       3.931  -1.356   6.162  0.00  0.00    +0.003 A 
ATOM     36  C   UNL     1       2.639  -1.534   5.704  0.00  0.00    +0.004 A 
ATOM     37  C   UNL     1       2.236  -2.771   5.235  0.00  0.00    -0.045 A 
ATOM     38  C   UNL     1       0.830  -2.963   4.730  0.00  0.00    +0.044 C 
ATOM     39  C   UNL     1       6.228  -2.222   6.655  0.00  0.00    +0.044 C 
ENDBRANCH  31  32
ENDBRANCH  13  31
TORSDOF 6
