REMARK  Name = ZINC03107385
REMARK  17 active torsions:
REMARK  status: ('A' for Active; 'I' for Inactive)
REMARK    1  A    between atoms: C_1  and  C_2
REMARK    2  A    between atoms: C_2  and  C_3
REMARK    3  A    between atoms: C_2  and  C_4
REMARK    4  A    between atoms: C_2  and  C_5
REMARK    5  A    between atoms: C_7  and  C_25
REMARK    6  A    between atoms: C_10  and  C_11
REMARK    7  A    between atoms: C_13  and  C_21
REMARK    8  A    between atoms: C_15  and  C_17
REMARK    9  A    between atoms: C_17  and  C_18
REMARK   10  A    between atoms: C_17  and  C_19
REMARK   11  A    between atoms: C_17  and  C_20
REMARK   12  A    between atoms: C_21  and  C_22
REMARK   13  A    between atoms: C_21  and  C_23
REMARK   14  A    between atoms: C_21  and  C_24
REMARK   15  A    between atoms: C_25  and  C_26
REMARK   16  A    between atoms: C_25  and  C_27
REMARK   17  A    between atoms: C_25  and  C_28
REMARK                            x       y       z     vdW  Elec       q    Type
REMARK                         _______ _______ _______ _____ _____    ______ ____
ROOT
ATOM      1  C   UNL     1      -0.194  -0.252   2.950  0.00  0.00    -0.016 A 
ATOM      2  C   UNL     1       0.942  -1.055   2.773  0.00  0.00    +0.027 A 
ATOM      3  C   UNL     1       2.003  -0.383   3.274  0.00  0.00    +0.022 A 
ATOM      4  N   UNL     1       1.569   0.812   3.757  0.00  0.00    -0.357 N 
ATOM      5  H   UNL     1       2.125   1.491   4.172  0.00  0.00    +0.166 HD
ATOM      6  C   UNL     1       0.214   0.900   3.555  0.00  0.00    +0.051 A 
ENDROOT
BRANCH   6   7
ATOM      7  C   UNL     1      -0.648   2.038   3.929  0.00  0.00    +0.005 A 
ATOM      8  C   UNL     1      -0.542   3.298   3.306  0.00  0.00    +0.052 A 
ATOM      9  C   UNL     1      -1.395   4.282   3.727  0.00  0.00    +0.111 A 
ATOM     10  O   UNL     1      -2.205   4.094   4.605  0.00  0.00    -0.463 OA
ATOM     11  C   UNL     1      -2.372   3.056   5.203  0.00  0.00    +0.111 A 
ATOM     12  C   UNL     1      -1.628   1.939   4.937  0.00  0.00    +0.052 A 
BRANCH  11  13
ATOM     13  C   UNL     1      -3.430   2.992   6.274  0.00  0.00    +0.020 C 
ATOM     14  C   UNL     1      -2.780   2.636   7.612  0.00  0.00    +0.019 C 
ATOM     15  C   UNL     1      -4.123   4.351   6.388  0.00  0.00    +0.019 C 
ATOM     16  C   UNL     1      -4.462   1.923   5.908  0.00  0.00    +0.019 C 
ENDBRANCH  11  13
BRANCH   9  17
ATOM     17  C   UNL     1      -1.318   5.641   3.082  0.00  0.00    +0.020 C 
ATOM     18  C   UNL     1      -1.600   5.512   1.584  0.00  0.00    +0.019 C 
ATOM     19  C   UNL     1      -2.356   6.567   3.719  0.00  0.00    +0.019 C 
ATOM     20  C   UNL     1       0.081   6.225   3.289  0.00  0.00    +0.019 C 
ENDBRANCH   9  17
ENDBRANCH   6   7
BRANCH   1  22
ATOM     21  C   UNL     1      -1.599  -1.903   1.746  0.00  0.00    +0.015 C 
ATOM     22  C   UNL     1      -1.603  -0.596   2.541  0.00  0.00    -0.011 C 
ATOM     23  C   UNL     1      -2.170   0.528   1.672  0.00  0.00    +0.015 C 
ATOM     24  C   UNL     1      -2.470  -0.761   3.791  0.00  0.00    +0.015 C 
ENDBRANCH   1  22
BRANCH   3  25
ATOM     25  C   UNL     1       3.428  -0.875   3.293  0.00  0.00    +0.002 C 
ATOM     26  C   UNL     1       3.898  -1.130   1.859  0.00  0.00    +0.017 C 
ATOM     27  C   UNL     1       4.323   0.180   3.944  0.00  0.00    +0.017 C 
ATOM     28  C   UNL     1       3.507  -2.176   4.094  0.00  0.00    +0.017 C 
ENDBRANCH   3  25
TORSDOF 5
