REMARK  Name = ZINC13501074
REMARK  13 active torsions:
REMARK  status: ('A' for Active; 'I' for Inactive)
REMARK    1  A    between atoms: C_1  and  C_2
REMARK    2  A    between atoms: C_2  and  C_3
REMARK    3  A    between atoms: C_3  and  C_5
REMARK    4  A    between atoms: C_3  and  N_73
REMARK    5  A    between atoms: N_9  and  C_10
REMARK    6  A    between atoms: C_10  and  C_11
REMARK    7  A    between atoms: C_14  and  O_17
REMARK    8  A    between atoms: O_17  and  C_18
REMARK    9  A    between atoms: C_19  and  C_20
REMARK   10  A    between atoms: C_19  and  N_73
REMARK   11  A    between atoms: C_24  and  C_33
REMARK   12  A    between atoms: C_26  and  C_32
REMARK   13  A    between atoms: C_34  and  N_73
REMARK                            x       y       z     vdW  Elec       q    Type
REMARK                         _______ _______ _______ _____ _____    ______ ____
ROOT
ATOM      1  N   UNL     1       0.751   3.827   0.908  0.00  0.00    +0.391 N 
ATOM      2  H   UNL     1       0.642   3.596   1.902  0.00  0.00    -0.080 HD
ENDROOT
BRANCH   1   3
ATOM      3  C   UNL     1      -0.561   3.696   0.238  0.00  0.00    -0.067 C 
ATOM      4  C   UNL     1      -1.058   2.241   0.358  0.00  0.00    -0.015 C 
ATOM      5  C   UNL     1      -1.775   1.972  -0.989  0.00  0.00    -0.002 C 
ATOM      6  C   UNL     1      -0.878   2.718  -2.008  0.00  0.00    -0.002 C 
ATOM      7  C   UNL     1      -0.447   4.000  -1.266  0.00  0.00    -0.015 C 
ENDBRANCH   1   3
BRANCH   1   8
ATOM      8  C   UNL     1       1.723   2.894   0.302  0.00  0.00    +0.003 C 
BRANCH   8   9
ATOM      9  C   UNL     1       2.301   3.481  -0.960  0.00  0.00    +0.138 A 
ATOM     10  N   UNL     1       2.668   4.726  -1.147  0.00  0.00    -0.115 NA
ATOM     11  N   UNL     1       3.111   4.833  -2.352  0.00  0.00    -0.023 NA
ATOM     12  N   UNL     1       3.037   3.689  -2.938  0.00  0.00    -0.044 NA
ATOM     13  N   UNL     1       2.543   2.830  -2.113  0.00  0.00    -0.226 N 
BRANCH  13  14
ATOM     14  C   UNL     1       2.292   1.411  -2.380  0.00  0.00    +0.182 C 
BRANCH  14  15
ATOM     15  C   UNL     1       3.563   0.629  -2.172  0.00  0.00    -0.026 A 
ATOM     16  C   UNL     1       4.432   0.431  -3.229  0.00  0.00    +0.009 A 
ATOM     17  C   UNL     1       5.601  -0.281  -3.041  0.00  0.00    +0.046 A 
ATOM     18  C   UNL     1       5.897  -0.807  -1.792  0.00  0.00    +0.120 A 
ATOM     19  C   UNL     1       5.021  -0.612  -0.734  0.00  0.00    +0.046 A 
ATOM     20  C   UNL     1       3.856   0.105  -0.927  0.00  0.00    +0.009 A 
BRANCH  18  21
ATOM     21  O   UNL     1       7.043  -1.513  -1.605  0.00  0.00    -0.495 OA
ATOM     22  C   UNL     1       7.898  -1.674  -2.739  0.00  0.00    +0.277 C 
ENDBRANCH  18  21
ENDBRANCH  14  15
ENDBRANCH  13  14
ENDBRANCH   8   9
BRANCH   8  24
ATOM     23  C   UNL     1       2.257   2.059   2.595  0.00  0.00    +0.002 C 
ATOM     24  C   UNL     1       2.847   2.637   1.307  0.00  0.00    -0.011 C 
ENDBRANCH   8  24
ENDBRANCH   1   8
BRANCH   1  25
ATOM     25  C   UNL     1       1.242   5.216   0.789  0.00  0.00    -0.036 C 
BRANCH  25  26
ATOM     26  C   UNL     1       0.469   6.086   1.746  0.00  0.00    +0.001 A 
ATOM     27  C   UNL     1       0.955   6.319   2.990  0.00  0.00    +0.017 A 
ATOM     28  C   UNL     1       0.180   7.169   3.896  0.00  0.00    -0.001 A 
ATOM     29  C   UNL     1       0.630   7.445   5.191  0.00  0.00    +0.013 A 
ATOM     30  C   UNL     1      -0.116   8.242   6.012  0.00  0.00    -0.050 A 
ATOM     31  C   UNL     1      -1.318   8.780   5.572  0.00  0.00    +0.008 A 
ATOM     32  C   UNL     1      -1.781   8.522   4.300  0.00  0.00    -0.026 A 
ATOM     33  C   UNL     1      -1.038   7.713   3.447  0.00  0.00    +0.052 A 
ATOM     34  N   UNL     1      -1.477   7.438   2.169  0.00  0.00    -0.322 N 
ATOM     35  H   UNL     1      -2.316   7.814   1.861  0.00  0.00    +0.169 HD
ATOM     36  C   UNL     1      -0.755   6.661   1.342  0.00  0.00    +0.251 A 
ATOM     37  O   UNL     1      -1.172   6.443   0.218  0.00  0.00    -0.268 OA
ATOM     38  C   UNL     1      -3.087   9.113   3.836  0.00  0.00    +0.046 C 
ATOM     39  C   UNL     1       0.369   8.539   7.408  0.00  0.00    +0.044 C 
ENDBRANCH  25  26
ENDBRANCH   1  25
TORSDOF 9
