REMARK  Name = ZINC15320435
REMARK  4 active torsions:
REMARK  status: ('A' for Active; 'I' for Inactive)
REMARK    1  A    between atoms: C_1  and  C_2
REMARK    2  A    between atoms: N_10  and  C_13
REMARK    3  A    between atoms: N_28  and  C_31
REMARK    4  A    between atoms: C_31  and  C_32
REMARK                            x       y       z     vdW  Elec       q    Type
REMARK                         _______ _______ _______ _____ _____    ______ ____
ROOT
ATOM      1  C   UNL     1       7.008   3.794  -0.419  0.00  0.00    +0.025 C 
ATOM      2  C   UNL     1       5.885   4.523   0.322  0.00  0.00    +0.064 C 
ATOM      3  C   UNL     1       4.555   4.379  -0.429  0.00  0.00    +0.107 C 
ATOM      4  C   UNL     1       3.807   5.557   0.317  0.00  0.00    +0.123 C 
ATOM      5  C   UNL     1       2.426   5.260   0.006  0.00  0.00    +0.233 C 
ATOM      6  O   UNL     1       1.528   6.047  -0.203  0.00  0.00    -0.274 OA
ATOM      7  N   UNL     1       2.359   3.889  -0.001  0.00  0.00    -0.210 N 
ATOM      8  C   UNL     1       3.592   3.300  -0.010  0.00  0.00    +0.232 C 
ATOM      9  O   UNL     1       3.855   2.148   0.262  0.00  0.00    -0.274 OA
ATOM     10  C   UNL     1       4.767   6.660   0.231  0.00  0.00    +0.136 C 
ATOM     11  N   UNL     1       6.110   6.006   0.312  0.00  0.00    -0.296 NA
ATOM     12  C   UNL     1       4.645   7.683   1.332  0.00  0.00    +0.004 A 
ATOM     13  C   UNL     1       4.648   7.592   2.706  0.00  0.00    +0.008 A 
ATOM     14  C   UNL     1       4.514   8.735   3.474  0.00  0.00    +0.000 A 
ATOM     15  C   UNL     1       4.377   9.965   2.859  0.00  0.00    +0.002 A 
ATOM     16  C   UNL     1       4.374  10.060   1.482  0.00  0.00    +0.024 A 
ATOM     17  C   UNL     1       4.508   8.914   0.702  0.00  0.00    +0.042 A 
ATOM     18  N   UNL     1       4.534   8.752  -0.685  0.00  0.00    -0.265 N 
ATOM     19  C   UNL     1       4.682   7.464  -1.044  0.00  0.00    +0.246 C 
ATOM     20  O   UNL     1       4.737   7.031  -2.175  0.00  0.00    -0.273 OA
ATOM     21  H   UNL     1       6.630   6.304   1.234  0.00  0.00    +0.123 HD
ENDROOT
BRANCH   7  22
ATOM     22  C   UNL     1       1.156   3.170   0.008  0.00  0.00    +0.045 A 
ATOM     23  C   UNL     1       1.174   1.782   0.000  0.00  0.00    +0.024 A 
ATOM     24  C   UNL     1      -0.013   1.076   0.008  0.00  0.00    +0.003 A 
ATOM     25  C   UNL     1      -1.220   1.750   0.017  0.00  0.00    +0.020 A 
ATOM     26  C   UNL     1      -1.242   3.134   0.030  0.00  0.00    +0.043 A 
ATOM     27  C   UNL     1      -0.057   3.845   0.022  0.00  0.00    +0.044 A 
ATOM     28 CL   UNL     1      -2.760   3.976   0.048  0.00  0.00    -0.083 Cl
ENDBRANCH   7  22
BRANCH  18  29
ATOM     29  C   UNL     1       4.415   9.857  -1.639  0.00  0.00    +0.148 C 
BRANCH  29  30
ATOM     30  C   UNL     1       2.962  10.076  -1.974  0.00  0.00    -0.030 A 
ATOM     31  C   UNL     1       2.390   9.407  -3.040  0.00  0.00    +0.008 A 
ATOM     32  C   UNL     1       1.057   9.603  -3.346  0.00  0.00    +0.038 A 
ATOM     33  C   UNL     1       0.296  10.479  -2.591  0.00  0.00    +0.123 A 
ATOM     34  C   UNL     1       0.871  11.153  -1.526  0.00  0.00    +0.038 A 
ATOM     35  C   UNL     1       2.203  10.951  -1.219  0.00  0.00    +0.008 A 
ATOM     36  F   UNL     1      -1.006  10.675  -2.891  0.00  0.00    -0.205 F 
ENDBRANCH  29  30
ENDBRANCH  18  29
TORSDOF 3
