REMARK  Name = ZINC56509894
REMARK  9 active torsions:
REMARK  status: ('A' for Active; 'I' for Inactive)
REMARK    1  A    between atoms: C_1  and  C_2
REMARK    2  A    between atoms: C_2  and  N_3
REMARK    3  A    between atoms: N_3  and  C_4
REMARK    4  A    between atoms: N_3  and  C_9
REMARK    5  A    between atoms: C_4  and  C_5
REMARK    6  A    between atoms: N_7  and  C_8
REMARK    7  A    between atoms: C_9  and  C_10
REMARK    8  A    between atoms: N_15  and  C_16
REMARK    9  A    between atoms: C_22  and  C_24
REMARK                            x       y       z     vdW  Elec       q    Type
REMARK                         _______ _______ _______ _____ _____    ______ ____
ROOT
ATOM      1  C   UNL     1      -0.702  -2.770   1.240  0.00  0.00    +0.204 C 
ATOM      2  O   UNL     1      -0.202  -2.007   2.038  0.00  0.00    -0.277 OA
ATOM      3  N   UNL     1      -0.634  -4.101   1.445  0.00  0.00    -0.242 N 
ATOM      4  C   UNL     1      -0.011  -4.583   2.538  0.00  0.00    +0.306 C 
ATOM      5  O   UNL     1       0.490  -3.818   3.339  0.00  0.00    -0.252 OA
ATOM      6  N   UNL     1       0.056  -5.913   2.743  0.00  0.00    -0.296 N 
ATOM      7  H   UNL     1      -1.034  -4.711   0.805  0.00  0.00    +0.159 HD
ATOM      8  H   UNL     1      -0.344  -6.524   2.104  0.00  0.00    +0.151 HD
ENDROOT
BRANCH   6   9
ATOM      9  C   UNL     1       0.734  -6.438   3.932  0.00  0.00    +0.077 C 
ATOM     10  C   UNL     1      -0.242  -6.454   5.110  0.00  0.00    +0.022 C 
ATOM     11  C   UNL     1       0.465  -7.001   6.351  0.00  0.00    +0.002 C 
ATOM     12  C   UNL     1       0.953  -8.425   6.073  0.00  0.00    +0.000 C 
ATOM     13  C   UNL     1       1.929  -8.409   4.895  0.00  0.00    +0.005 C 
ATOM     14  C   UNL     1       1.221  -7.861   3.654  0.00  0.00    +0.006 C 
ATOM     15  C   UNL     1       2.197  -7.845   2.476  0.00  0.00    +0.009 C 
ENDBRANCH   6   9
BRANCH   1  16
ATOM     16  C   UNL     1      -1.399  -2.231   0.017  0.00  0.00    +0.020 C 
BRANCH  16  17
ATOM     17  N   UNL     1      -1.335  -0.763   0.025  0.00  0.00    +0.391 N 
ATOM     18  H   UNL     1      -1.716  -0.415   0.892  0.00  0.00    -0.080 HD
BRANCH  17  20
ATOM     19  C   UNL     1       0.144   1.188   0.044  0.00  0.00    -0.017 C 
ATOM     20  C   UNL     1       0.063  -0.333  -0.103  0.00  0.00    -0.081 C 
ENDBRANCH  17  20
BRANCH  17  21
ATOM     21  C   UNL     1      -2.116  -0.233  -1.101  0.00  0.00    +0.019 C 
BRANCH  21  22
ATOM     22  C   UNL     1      -3.577  -0.529  -0.882  0.00  0.00    +0.196 C 
ATOM     23  O   UNL     1      -3.947  -1.018   0.164  0.00  0.00    -0.278 OA
ATOM     24  N   UNL     1      -4.473  -0.249  -1.849  0.00  0.00    -0.320 N 
ATOM     25  C   UNL     1      -5.894  -0.537  -1.637  0.00  0.00    +0.128 C 
ATOM     26  H   UNL     1      -4.178   0.142  -2.686  0.00  0.00    +0.148 HD
ENDBRANCH  21  22
ENDBRANCH  17  21
ENDBRANCH  16  17
ENDBRANCH   1  16
TORSDOF 6
