REMARK  Name = ZINC12032711
REMARK  11 active torsions:
REMARK  status: ('A' for Active; 'I' for Inactive)
REMARK    1  A    between atoms: C_1  and  C_2
REMARK    2  A    between atoms: C_2  and  O_3
REMARK    3  A    between atoms: O_3  and  C_4
REMARK    4  A    between atoms: C_4  and  C_6
REMARK    5  A    between atoms: C_10  and  N_11
REMARK    6  A    between atoms: C_12  and  C_14
REMARK    7  A    between atoms: C_14  and  S_15
REMARK    8  A    between atoms: S_15  and  C_16
REMARK    9  A    between atoms: C_22  and  C_24
REMARK   10  A    between atoms: C_24  and  C_25
REMARK   11  A    between atoms: C_25  and  C_26
REMARK                            x       y       z     vdW  Elec       q    Type
REMARK                         _______ _______ _______ _____ _____    ______ ____
ROOT
ATOM      1  N   UNL     1      15.034   1.893  -2.698  0.00  0.00    -0.279 N 
ATOM      2  C   UNL     1      14.377   2.682  -1.825  0.00  0.00    +0.228 C 
ATOM      3  O   UNL     1      14.962   3.584  -1.264  0.00  0.00    -0.275 OA
ATOM      4  H   UNL     1      14.566   1.171  -3.147  0.00  0.00    +0.155 HD
ENDROOT
BRANCH   1   9
ATOM      5  C   UNL     1      17.219   1.412  -3.810  0.00  0.00    +0.091 A 
ATOM      6  C   UNL     1      18.600   1.854  -3.904  0.00  0.00    -0.021 A 
ATOM      7  C   UNL     1      18.920   2.911  -3.127  0.00  0.00    -0.004 A 
ATOM      8  S   UNL     1      17.418   3.326  -2.286  0.00  0.00    -0.077 S 
ATOM      9  C   UNL     1      16.378   2.113  -2.957  0.00  0.00    +0.086 A 
ATOM     10  C   UNL     1      20.257   3.575  -3.011  0.00  0.00    +0.043 C 
ATOM     11  C   UNL     1      21.314   2.646  -3.625  0.00  0.00    +0.005 C 
ATOM     12  C   UNL     1      20.812   2.161  -4.989  0.00  0.00    +0.005 C 
ATOM     13  C   UNL     1      19.642   1.194  -4.798  0.00  0.00    +0.037 C 
BRANCH   5  14
ATOM     14  C   UNL     1      16.731   0.272  -4.590  0.00  0.00    +0.342 C 
ATOM     15  O   UNL     1      16.271   0.448  -5.702  0.00  0.00    -0.245 OA
BRANCH  14  16
ATOM     16  O   UNL     1      16.793  -0.973  -4.075  0.00  0.00    -0.461 OA
BRANCH  16  18
ATOM     17  C   UNL     1      16.442  -3.382  -4.157  0.00  0.00    +0.048 C 
ATOM     18  C   UNL     1      16.291  -2.055  -4.904  0.00  0.00    +0.229 C 
ENDBRANCH  16  18
ENDBRANCH  14  16
ENDBRANCH   5  14
ENDBRANCH   1   9
BRANCH   2  19
ATOM     19  C   UNL     1      12.916   2.442  -1.544  0.00  0.00    +0.172 C 
BRANCH  19  20
ATOM     20  S   UNL     1      12.325   3.658  -0.335  0.00  0.00    -0.088 S 
BRANCH  20  21
ATOM     21  C   UNL     1      10.625   3.251  -0.117  0.00  0.00    +0.160 A 
ATOM     22  N   UNL     1       9.899   2.294  -0.676  0.00  0.00    -0.133 NA
ATOM     23  N   UNL     1       8.677   2.138  -0.405  0.00  0.00    -0.125 NA
ATOM     24  C   UNL     1       8.045   2.919   0.455  0.00  0.00    +0.189 A 
ATOM     25  S   UNL     1       9.382   4.015   0.921  0.00  0.00    -0.024 S 
ATOM     26  N   UNL     1       6.717   2.899   0.873  0.00  0.00    -0.263 N 
ATOM     27  C   UNL     1       5.869   1.974   0.380  0.00  0.00    +0.219 C 
ATOM     28  O   UNL     1       6.263   1.160  -0.428  0.00  0.00    -0.275 OA
ATOM     29  H   UNL     1       6.402   3.550   1.520  0.00  0.00    +0.157 HD
BRANCH  27  30
ATOM     30  C   UNL     1       4.432   1.952   0.833  0.00  0.00    +0.096 C 
BRANCH  30  31
ATOM     31  C   UNL     1       3.692   0.815   0.127  0.00  0.00    +0.013 C 
BRANCH  31  32
ATOM     32  C   UNL     1       2.232   0.792   0.586  0.00  0.00    -0.011 C 
ATOM     33  C   UNL     1       1.453   1.995  -0.001  0.00  0.00    +0.003 C 
ATOM     34  C   UNL     1      -0.019   1.534   0.011  0.00  0.00    +0.000 C 
ATOM     35  C   UNL     1       0.002  -0.004   0.002  0.00  0.00    +0.000 C 
ATOM     36  C   UNL     1       1.486  -0.425  -0.014  0.00  0.00    +0.003 C 
ENDBRANCH  31  32
ENDBRANCH  30  31
ENDBRANCH  27  30
ENDBRANCH  20  21
ENDBRANCH  19  20
ENDBRANCH   2  19
TORSDOF 10
