REMARK  Name = ZINC59519857
REMARK  7 active torsions:
REMARK  status: ('A' for Active; 'I' for Inactive)
REMARK    1  A    between atoms: C_1  and  C_2
REMARK    2  A    between atoms: C_2  and  C_17
REMARK    3  A    between atoms: C_4  and  C_15
REMARK    4  A    between atoms: C_4  and  C_16
REMARK    5  A    between atoms: N_8  and  C_9
REMARK    6  A    between atoms: C_20  and  O_24
REMARK    7  A    between atoms: C_22  and  O_23
REMARK                            x       y       z     vdW  Elec       q    Type
REMARK                         _______ _______ _______ _____ _____    ______ ____
ROOT
ATOM      1  C   UNL     1       1.013   1.024  -0.158  0.00  0.00    +0.037 C 
ATOM      2  C   UNL     1       0.519  -0.401   0.113  0.00  0.00    +0.071 C 
ATOM      3  C   UNL     1      -1.002  -0.460   0.076  0.00  0.00    +0.056 C 
ATOM      4  C   UNL     1      -1.653  -0.198   1.429  0.00  0.00    +0.033 C 
ATOM      5  N   UNL     1      -0.996  -0.986   2.473  0.00  0.00    -0.294 N 
ATOM      6  C   UNL     1       0.319  -1.232   2.422  0.00  0.00    +0.308 C 
ATOM      7  O   UNL     1       0.844  -1.808   3.356  0.00  0.00    -0.252 OA
ATOM      8  N   UNL     1       1.073  -0.885   1.372  0.00  0.00    -0.245 N 
ATOM      9  C   UNL     1      -1.602   1.287   1.792  0.00  0.00    +0.031 C 
ATOM     10  C   UNL     1      -3.128  -0.628   1.359  0.00  0.00    +0.031 C 
ATOM     11  H   UNL     1      -1.521  -1.333   3.210  0.00  0.00    +0.151 HD
ENDROOT
BRANCH   8  12
ATOM     12  C   UNL     1       2.463  -0.991   1.493  0.00  0.00    +0.039 A 
ATOM     13  C   UNL     1       3.212   0.107   1.894  0.00  0.00    +0.023 A 
ATOM     14  C   UNL     1       4.584  -0.001   2.013  0.00  0.00    +0.002 A 
ATOM     15  C   UNL     1       5.211  -1.201   1.734  0.00  0.00    +0.000 A 
ATOM     16  C   UNL     1       4.468  -2.296   1.334  0.00  0.00    +0.002 A 
ATOM     17  C   UNL     1       3.095  -2.196   1.218  0.00  0.00    +0.023 A 
ENDBRANCH   8  12
BRANCH   2  18
ATOM     18  C   UNL     1       1.048  -1.282  -0.990  0.00  0.00    +0.018 A 
ATOM     19  C   UNL     1       1.823  -0.738  -1.996  0.00  0.00    +0.013 A 
ATOM     20  C   UNL     1       2.310  -1.542  -3.009  0.00  0.00    +0.046 A 
ATOM     21  C   UNL     1       2.020  -2.899  -3.018  0.00  0.00    +0.120 A 
ATOM     22  C   UNL     1       1.243  -3.448  -2.010  0.00  0.00    +0.091 A 
ATOM     23  C   UNL     1       0.760  -2.639  -0.992  0.00  0.00    +0.126 A 
BRANCH  23  24
ATOM     24  O   UNL     1       0.003  -3.175   0.001  0.00  0.00    -0.506 OA
ATOM     25  H   UNL     1      -0.936  -3.251  -0.218  0.00  0.00    +0.292 HD
ENDBRANCH  23  24
BRANCH  21  26
ATOM     26  O   UNL     1       2.499  -3.690  -4.014  0.00  0.00    -0.507 OA
ATOM     27  H   UNL     1       3.365  -4.077  -3.828  0.00  0.00    +0.292 HD
ENDBRANCH  21  26
ENDBRANCH   2  18
TORSDOF 4
