REMARK  Name = ZINC45621214
REMARK  5 active torsions:
REMARK  status: ('A' for Active; 'I' for Inactive)
REMARK    1  A    between atoms: C_2  and  N_10
REMARK    2  A    between atoms: C_5  and  N_8
REMARK    3  A    between atoms: C_11  and  C_13
REMARK    4  A    between atoms: C_13  and  C_14
REMARK    5  A    between atoms: C_14  and  N_15
REMARK                            x       y       z     vdW  Elec       q    Type
REMARK                         _______ _______ _______ _____ _____    ______ ____
ROOT
ATOM      1  N   UNL     1       1.157   3.490   0.010  0.00  0.00    -0.285 N 
ATOM      2  C   UNL     1       2.311   4.179   0.104  0.00  0.00    +0.219 C 
ATOM      3  O   UNL     1       3.371   3.591   0.091  0.00  0.00    -0.275 OA
ATOM      4  H   UNL     1       0.312   3.963  -0.047  0.00  0.00    +0.155 HD
ENDROOT
BRANCH   1   6
ATOM      5  C   UNL     1       0.154   1.373   0.602  0.00  0.00    +0.045 A 
ATOM      6  C   UNL     1       1.177   2.088  -0.006  0.00  0.00    +0.036 A 
ATOM      7  C   UNL     1       2.219   1.416  -0.630  0.00  0.00    +0.045 A 
ATOM      8  C   UNL     1       2.239   0.035  -0.646  0.00  0.00    +0.065 A 
ATOM      9  C   UNL     1       1.216  -0.682  -0.037  0.00  0.00    +0.062 A 
ATOM     10  C   UNL     1       0.173  -0.009   0.587  0.00  0.00    +0.065 A 
ATOM     11 CL   UNL     1      -1.105  -0.903   1.348  0.00  0.00    -0.082 Cl
ATOM     12 CL   UNL     1       3.542  -0.805  -1.428  0.00  0.00    -0.082 Cl
BRANCH   9  13
ATOM     13  N   UNL     1       1.236  -2.082  -0.054  0.00  0.00    -0.356 N 
ATOM     14  H   UNL     1       1.964  -2.552  -0.490  0.00  0.00    +0.142 HD
ATOM     15  H   UNL     1       0.522  -2.582   0.371  0.00  0.00    +0.142 HD
ENDBRANCH   9  13
ENDBRANCH   1   6
BRANCH   2  16
ATOM     16  C   UNL     1       2.283   5.681   0.226  0.00  0.00    +0.115 C 
BRANCH  16  17
ATOM     17  C   UNL     1       3.716   6.211   0.317  0.00  0.00    +0.127 C 
BRANCH  17  18
ATOM     18  N   UNL     1       3.689   7.671   0.435  0.00  0.00    -0.224 N 
ATOM     19  C   UNL     1       3.707   8.518  -0.616  0.00  0.00    +0.247 C 
ATOM     20  O   UNL     1       3.746   8.227  -1.792  0.00  0.00    -0.273 OA
ATOM     21  C   UNL     1       3.667   9.905  -0.017  0.00  0.00    +0.113 C 
ATOM     22  C   UNL     1       2.413  10.644  -0.471  0.00  0.00    +0.035 C 
ATOM     23  C   UNL     1       2.377  12.034   0.170  0.00  0.00    +0.003 C 
ATOM     24  C   UNL     1       3.627  12.816  -0.239  0.00  0.00    +0.000 C 
ATOM     25  C   UNL     1       4.875  12.074   0.244  0.00  0.00    +0.003 C 
ATOM     26  C   UNL     1       4.921  10.684  -0.397  0.00  0.00    +0.035 C 
ATOM     27  N   UNL     1       3.627   9.667   1.432  0.00  0.00    -0.285 N 
ATOM     28  C   UNL     1       3.639   8.331   1.599  0.00  0.00    +0.309 C 
ATOM     29  O   UNL     1       3.610   7.785   2.684  0.00  0.00    -0.252 OA
ATOM     30  H   UNL     1       3.596  10.340   2.130  0.00  0.00    +0.151 HD
ENDBRANCH  17  18
ENDBRANCH  16  17
ENDBRANCH   2  16
TORSDOF 5
