REMARK  Name = ZINC06049117
REMARK  4 active torsions:
REMARK  status: ('A' for Active; 'I' for Inactive)
REMARK    1  A    between atoms: C_1  and  C_2
REMARK    2  A    between atoms: C_7  and  C_10
REMARK    3  A    between atoms: C_11  and  C_13
REMARK    4  A    between atoms: C_13  and  N_14
REMARK                            x       y       z     vdW  Elec       q    Type
REMARK                         _______ _______ _______ _____ _____    ______ ____
ROOT
ATOM      1  N   UNL     1      -2.557   4.146   0.037  0.00  0.00    -0.215 N 
ATOM      2  C   UNL     1      -3.275   4.412  -1.075  0.00  0.00    +0.251 C 
ATOM      3  O   UNL     1      -2.918   4.295  -2.228  0.00  0.00    -0.272 OA
ATOM      4  C   UNL     1      -4.616   4.885  -0.577  0.00  0.00    +0.138 C 
ATOM      5  C   UNL     1      -5.750   3.982  -1.079  0.00  0.00    +0.045 C 
ATOM      6  C   UNL     1      -6.247   4.746  -2.327  0.00  0.00    +0.038 C 
ATOM      7  C   UNL     1      -5.876   6.194  -2.081  0.00  0.00    -0.042 A 
ATOM      8  C   UNL     1      -4.931   6.271  -1.071  0.00  0.00    -0.012 A 
ATOM      9  C   UNL     1      -4.442   7.506  -0.682  0.00  0.00    +0.006 A 
ATOM     10  C   UNL     1      -4.893   8.659  -1.295  0.00  0.00    +0.000 A 
ATOM     11  C   UNL     1      -5.837   8.582  -2.301  0.00  0.00    +0.000 A 
ATOM     12  C   UNL     1      -6.327   7.351  -2.692  0.00  0.00    +0.004 A 
ATOM     13  N   UNL     1      -4.504   4.840   0.881  0.00  0.00    -0.281 N 
ATOM     14  C   UNL     1      -3.260   4.394   1.149  0.00  0.00    +0.310 C 
ATOM     15  O   UNL     1      -2.827   4.234   2.273  0.00  0.00    -0.252 OA
ATOM     16  H   UNL     1      -5.187   5.083   1.526  0.00  0.00    +0.152 HD
ENDROOT
BRANCH   1  17
ATOM     17  C   UNL     1      -1.177   3.652   0.028  0.00  0.00    +0.213 C 
BRANCH  17  26
ATOM     18  C   UNL     1       1.136  -1.995   1.006  0.00  0.00    +0.039 C 
ATOM     19  C   UNL     1       0.944  -0.481   1.114  0.00  0.00    +0.133 C 
ATOM     20  C   UNL     1       0.002  -0.004   0.002  0.00  0.00    +0.139 C 
ATOM     21  N   UNL     1      -0.018   1.467   0.010  0.00  0.00    -0.295 N 
ATOM     22  C   UNL     1       1.271   2.176   0.002  0.00  0.00    +0.139 C 
ATOM     23  C   UNL     1       2.151   1.593   1.113  0.00  0.00    +0.133 C 
ATOM     24  O   UNL     1       2.208   0.172   0.972  0.00  0.00    -0.371 OA
ATOM     25  C   UNL     1       1.554   1.948   2.477  0.00  0.00    +0.039 C 
ATOM     26  C   UNL     1      -1.183   2.145   0.019  0.00  0.00    +0.234 C 
ATOM     27  O   UNL     1      -2.235   1.543   0.021  0.00  0.00    -0.274 OA
ENDBRANCH  17  26
ENDBRANCH   1  17
TORSDOF 2
