REMARK  Name = ZINC13500200
REMARK  13 active torsions:
REMARK  status: ('A' for Active; 'I' for Inactive)
REMARK    1  A    between atoms: C_1  and  C_2
REMARK    2  A    between atoms: C_2  and  C_3
REMARK    3  A    between atoms: C_3  and  C_4
REMARK    4  A    between atoms: C_4  and  C_6
REMARK    5  A    between atoms: C_4  and  N_74
REMARK    6  A    between atoms: N_10  and  C_11
REMARK    7  A    between atoms: C_11  and  C_12
REMARK    8  A    between atoms: C_11  and  C_13
REMARK    9  A    between atoms: C_11  and  C_14
REMARK   10  A    between atoms: C_14  and  C_15
REMARK   11  A    between atoms: C_16  and  C_17
REMARK   12  A    between atoms: C_16  and  N_74
REMARK   13  A    between atoms: C_32  and  N_74
REMARK                            x       y       z     vdW  Elec       q    Type
REMARK                         _______ _______ _______ _____ _____    ______ ____
ROOT
ATOM      1  N   UNL     1       4.332   0.223  -1.006  0.00  0.00    +0.391 N 
ATOM      2  H   UNL     1       4.205  -0.790  -1.117  0.00  0.00    -0.080 HD
ENDROOT
BRANCH   1   3
ATOM      3  C   UNL     1       5.148   0.731  -2.129  0.00  0.00    -0.067 C 
ATOM      4  C   UNL     1       5.182   2.261  -2.118  0.00  0.00    -0.015 C 
ATOM      5  C   UNL     1       6.029   2.760  -3.291  0.00  0.00    -0.002 C 
ATOM      6  C   UNL     1       5.418   2.273  -4.606  0.00  0.00    -0.000 C 
ATOM      7  C   UNL     1       5.384   0.743  -4.616  0.00  0.00    -0.002 C 
ATOM      8  C   UNL     1       4.537   0.243  -3.444  0.00  0.00    -0.015 C 
ENDBRANCH   1   3
BRANCH   1   9
ATOM      9  C   UNL     1       3.006   0.876  -1.011  0.00  0.00    +0.003 C 
BRANCH   9  10
ATOM     10  C   UNL     1       3.113   2.293  -0.508  0.00  0.00    +0.139 A 
ATOM     11  N   UNL     1       3.900   2.727   0.447  0.00  0.00    -0.115 NA
ATOM     12  N   UNL     1       3.696   3.991   0.585  0.00  0.00    -0.023 NA
ATOM     13  N   UNL     1       2.805   4.376  -0.260  0.00  0.00    -0.043 NA
ATOM     14  N   UNL     1       2.423   3.358  -0.954  0.00  0.00    -0.225 N 
BRANCH  14  15
ATOM     15  C   UNL     1       1.421   3.361  -2.023  0.00  0.00    +0.061 C 
ATOM     16  C   UNL     1       0.365   2.292  -1.735  0.00  0.00    +0.036 C 
ATOM     17  C   UNL     1       2.102   3.058  -3.360  0.00  0.00    +0.036 C 
BRANCH  15  18
ATOM     18  C   UNL     1       0.752   4.735  -2.092  0.00  0.00    +0.026 C 
ATOM     19  C   UNL     1      -0.294   4.737  -3.209  0.00  0.00    +0.006 C 
ENDBRANCH  15  18
ENDBRANCH  14  15
ENDBRANCH   9  10
BRANCH   9  20
ATOM     20  C   UNL     1       2.065   0.082  -0.102  0.00  0.00    -0.008 C 
BRANCH  20  22
ATOM     21  C   UNL     1       0.844  -2.081   0.172  0.00  0.00    +0.004 C 
ATOM     22  C   UNL     1       1.880  -1.328  -0.666  0.00  0.00    -0.005 C 
ENDBRANCH  20  22
ENDBRANCH   9  20
ENDBRANCH   1   9
BRANCH   1  23
ATOM     23  C   UNL     1       5.019   0.483   0.276  0.00  0.00    -0.036 C 
BRANCH  23  24
ATOM     24  C   UNL     1       6.159  -0.491   0.420  0.00  0.00    +0.001 A 
ATOM     25  C   UNL     1       7.416  -0.119   0.066  0.00  0.00    +0.017 A 
ATOM     26  C   UNL     1       8.502  -1.085   0.223  0.00  0.00    +0.002 A 
ATOM     27  C   UNL     1       9.818  -0.754  -0.122  0.00  0.00    +0.059 A 
ATOM     28  C   UNL     1      10.820  -1.687   0.034  0.00  0.00    +0.167 A 
ATOM     29  C   UNL     1      10.526  -2.961   0.535  0.00  0.00    +0.168 A 
ATOM     30  C   UNL     1       9.229  -3.296   0.877  0.00  0.00    +0.075 A 
ATOM     31  C   UNL     1       8.207  -2.367   0.726  0.00  0.00    +0.053 A 
ATOM     32  N   UNL     1       6.907  -2.685   1.062  0.00  0.00    -0.322 N 
ATOM     33  H   UNL     1       6.705  -3.569   1.407  0.00  0.00    +0.169 HD
ATOM     34  C   UNL     1       5.917  -1.788   0.917  0.00  0.00    +0.251 A 
ATOM     35  O   UNL     1       4.779  -2.103   1.224  0.00  0.00    -0.268 OA
ATOM     36  O   UNL     1      11.684  -3.681   0.591  0.00  0.00    -0.453 OA
ATOM     37  C   UNL     1      12.745  -2.712   0.510  0.00  0.00    +0.466 C 
ATOM     38  O   UNL     1      12.160  -1.620  -0.222  0.00  0.00    -0.453 OA
ENDBRANCH  23  24
ENDBRANCH   1  23
TORSDOF 9
