REMARK  Name = ZINC09433505
REMARK  11 active torsions:
REMARK  status: ('A' for Active; 'I' for Inactive)
REMARK    1  A    between atoms: C_1  and  C_2
REMARK    2  A    between atoms: C_2  and  N_74
REMARK    3  A    between atoms: C_3  and  C_4
REMARK    4  A    between atoms: C_3  and  N_74
REMARK    5  A    between atoms: C_4  and  C_5
REMARK    6  A    between atoms: C_5  and  N_6
REMARK    7  A    between atoms: C_7  and  C_9
REMARK    8  A    between atoms: N_19  and  C_27
REMARK    9  A    between atoms: C_20  and  C_22
REMARK   10  A    between atoms: C_32  and  C_33
REMARK   11  A    between atoms: C_32  and  N_74
REMARK                            x       y       z     vdW  Elec       q    Type
REMARK                         _______ _______ _______ _____ _____    ______ ____
ROOT
ATOM      1  C   UNL     1       1.056   4.965  -0.123  0.00  0.00    +0.131 C 
ATOM      2  C   UNL     1       2.442   4.418  -0.345  0.00  0.00    -0.021 A 
ATOM      3  C   UNL     1       3.553   5.192  -0.086  0.00  0.00    +0.005 A 
ATOM      4  C   UNL     1       4.820   4.663  -0.261  0.00  0.00    +0.000 A 
ATOM      5  C   UNL     1       4.981   3.360  -0.697  0.00  0.00    +0.001 A 
ATOM      6  C   UNL     1       3.877   2.577  -0.967  0.00  0.00    +0.013 A 
ATOM      7  C   UNL     1       2.599   3.107  -0.797  0.00  0.00    +0.041 A 
ATOM      8  C   UNL     1       1.396   2.300  -1.092  0.00  0.00    +0.248 C 
ATOM      9  O   UNL     1       1.489   1.100  -1.264  0.00  0.00    -0.270 OA
ATOM     10  N   UNL     1       0.198   2.909  -1.175  0.00  0.00    -0.286 N 
ATOM     11  C   UNL     1       0.087   4.365  -1.138  0.00  0.00    +0.130 C 
ENDROOT
BRANCH  11  12
ATOM     12  C   UNL     1       0.400   4.913  -2.506  0.00  0.00    +0.011 A 
ATOM     13  C   UNL     1      -0.219   5.906  -3.190  0.00  0.00    +0.013 A 
ATOM     14  C   UNL     1       0.248   6.249  -4.445  0.00  0.00    +0.008 A 
ATOM     15  C   UNL     1       1.306   5.574  -4.959  0.00  0.00    +0.045 A 
ATOM     16  S   UNL     1       1.679   4.420  -3.650  0.00  0.00    -0.100 S 
ENDBRANCH  11  12
BRANCH  10  17
ATOM     17  C   UNL     1      -1.016   2.097  -1.298  0.00  0.00    +0.077 C 
ATOM     18  C   UNL     1      -1.128   1.129  -0.102  0.00  0.00    +0.022 C 
ATOM     19  C   UNL     1      -1.714  -0.167  -0.718  0.00  0.00    +0.002 C 
ATOM     20  C   UNL     1      -1.009  -0.241  -2.095  0.00  0.00    +0.002 C 
ATOM     21  C   UNL     1      -0.940   1.226  -2.564  0.00  0.00    +0.022 C 
ENDBRANCH  10  17
BRANCH   1  23
ATOM     22  N   UNL     1       1.298   5.053   2.337  0.00  0.00    -0.315 N 
ATOM     23  C   UNL     1       0.600   4.617   1.270  0.00  0.00    +0.223 C 
ATOM     24  O   UNL     1      -0.397   3.944   1.432  0.00  0.00    -0.275 OA
ATOM     25  H   UNL     1       2.095   5.591   2.208  0.00  0.00    +0.149 HD
BRANCH  22  26
ATOM     26  C   UNL     1       0.854   4.716   3.692  0.00  0.00    +0.102 C 
BRANCH  26  27
ATOM     27  C   UNL     1       1.815   5.330   4.712  0.00  0.00    +0.000 C 
BRANCH  27  28
ATOM     28  C   UNL     1       1.351   4.977   6.126  0.00  0.00    -0.077 C 
BRANCH  28  29
ATOM     29  N   UNL     1       2.277   5.594   7.100  0.00  0.00    +0.382 N 
ATOM     30  H   UNL     1       2.374   6.593   6.880  0.00  0.00    -0.081 HD
BRANCH  29  32
ATOM     31  C   UNL     1       4.627   5.836   7.728  0.00  0.00    -0.017 C 
ATOM     32  C   UNL     1       3.605   4.952   7.011  0.00  0.00    -0.082 C 
ENDBRANCH  29  32
BRANCH  29  33
ATOM     33  C   UNL     1       1.738   5.453   8.469  0.00  0.00    -0.043 C 
BRANCH  33  34
ATOM     34  C   UNL     1       0.642   6.469   8.663  0.00  0.00    -0.064 A 
ATOM     35  C   UNL     1       0.957   7.766   9.023  0.00  0.00    +0.002 A 
ATOM     36  C   UNL     1      -0.048   8.699   9.197  0.00  0.00    +0.000 A 
ATOM     37  C   UNL     1      -1.369   8.332   9.021  0.00  0.00    +0.000 A 
ATOM     38  C   UNL     1      -1.685   7.034   8.665  0.00  0.00    +0.000 A 
ATOM     39  C   UNL     1      -0.679   6.103   8.487  0.00  0.00    +0.002 A 
ENDBRANCH  33  34
ENDBRANCH  29  33
ENDBRANCH  28  29
ENDBRANCH  27  28
ENDBRANCH  26  27
ENDBRANCH  22  26
ENDBRANCH   1  23
TORSDOF 10
