REMARK  Name = ZINC34747526
REMARK  6 active torsions:
REMARK  status: ('A' for Active; 'I' for Inactive)
REMARK    1  A    between atoms: C_1  and  N_2
REMARK    2  A    between atoms: N_2  and  C_3
REMARK    3  A    between atoms: C_4  and  C_6
REMARK    4  A    between atoms: C_6  and  N_7
REMARK    5  A    between atoms: N_20  and  C_23
REMARK    6  A    between atoms: C_23  and  C_24
REMARK                            x       y       z     vdW  Elec       q    Type
REMARK                         _______ _______ _______ _____ _____    ______ ____
ROOT
ATOM      1  N   UNL     1       0.027  -2.758  -2.531  0.00  0.00    -0.271 N 
ATOM      2  C   UNL     1      -1.143  -3.085  -3.110  0.00  0.00    +0.264 A 
ATOM      3  O   UNL     1      -2.178  -3.068  -2.465  0.00  0.00    -0.267 OA
ATOM      4  C   UNL     1      -1.156  -3.452  -4.493  0.00  0.00    +0.076 A 
ATOM      5  C   UNL     1      -2.301  -3.842  -5.318  0.00  0.00    -0.023 A 
ATOM      6  C   UNL     1      -2.050  -4.144  -6.608  0.00  0.00    -0.004 A 
ATOM      7  S   UNL     1      -0.301  -3.932  -6.800  0.00  0.00    -0.073 S 
ATOM      8  C   UNL     1       0.091  -3.437  -5.141  0.00  0.00    +0.117 A 
ATOM      9  N   UNL     1       1.211  -3.104  -4.510  0.00  0.00    -0.208 NA
ATOM     10  C   UNL     1       1.193  -2.765  -3.238  0.00  0.00    +0.202 A 
ATOM     11  N   UNL     1       2.365  -2.419  -2.613  0.00  0.00    -0.304 N 
ATOM     12  C   UNL     1       3.197  -3.435  -1.950  0.00  0.00    +0.089 C 
ATOM     13  C   UNL     1       4.639  -3.282  -2.446  0.00  0.00    -0.059 C 
ATOM     14  N   UNL     1       5.085  -1.900  -2.232  0.00  0.00    +0.387 N 
ATOM     15  C   UNL     1       4.285  -0.983  -3.054  0.00  0.00    -0.059 C 
ATOM     16  C   UNL     1       2.829  -1.023  -2.592  0.00  0.00    +0.089 C 
ATOM     17  C   UNL     1      -3.041  -4.569  -7.649  0.00  0.00    +0.043 C 
ATOM     18  C   UNL     1      -4.343  -4.973  -6.943  0.00  0.00    +0.005 C 
ATOM     19  C   UNL     1      -4.709  -3.885  -5.929  0.00  0.00    +0.005 C 
ATOM     20  C   UNL     1      -3.721  -3.909  -4.763  0.00  0.00    +0.037 C 
ATOM     21  H   UNL     1       4.976  -1.659  -1.258  0.00  0.00    -0.081 HD
ENDROOT
BRANCH   1  22
ATOM     22  C   UNL     1       0.047  -2.381  -1.115  0.00  0.00    +0.224 C 
BRANCH  22  26
ATOM     23  C   UNL     1      -0.608   1.086   0.368  0.00  0.00    +0.131 C 
ATOM     24  N   UNL     1      -0.303  -0.341   0.238  0.00  0.00    -0.306 N 
ATOM     25  C   UNL     1      -0.039  -1.145   1.433  0.00  0.00    +0.131 C 
ATOM     26  C   UNL     1      -0.266  -0.913  -0.981  0.00  0.00    +0.235 C 
ATOM     27  O   UNL     1      -0.485  -0.247  -1.971  0.00  0.00    -0.274 OA
ENDBRANCH  22  26
ENDBRANCH   1  22
BRANCH  14  28
ATOM     28  C   UNL     1       6.501  -1.781  -2.606  0.00  0.00    +0.019 C 
BRANCH  28  29
ATOM     29  C   UNL     1       6.994  -0.396  -2.272  0.00  0.00    +0.199 C 
ATOM     30  O   UNL     1       6.240   0.412  -1.772  0.00  0.00    -0.278 OA
ATOM     31  N   UNL     1       8.272  -0.056  -2.530  0.00  0.00    -0.299 N 
ATOM     32  C   UNL     1       9.203  -1.017  -3.142  0.00  0.00    +0.136 C 
ATOM     33  C   UNL     1       9.880  -0.340  -4.339  0.00  0.00    +0.179 C 
ATOM     34  O   UNL     1      10.439   0.907  -3.920  0.00  0.00    -0.377 OA
ATOM     35  C   UNL     1       9.475   1.853  -3.450  0.00  0.00    +0.179 C 
ATOM     36  C   UNL     1       8.776   1.290  -2.213  0.00  0.00    +0.136 C 
ENDBRANCH  28  29
ENDBRANCH  14  28
TORSDOF 4
