REMARK  Name = ZINC03841458
REMARK  7 active torsions:
REMARK  status: ('A' for Active; 'I' for Inactive)
REMARK    1  A    between atoms: C_1  and  N_2
REMARK    2  A    between atoms: C_4  and  C_11
REMARK    3  A    between atoms: C_11  and  N_66
REMARK    4  A    between atoms: C_22  and  N_27
REMARK    5  A    between atoms: N_27  and  S_28
REMARK    6  A    between atoms: S_28  and  C_31
REMARK    7  A    between atoms: C_31  and  C_32
REMARK                            x       y       z     vdW  Elec       q    Type
REMARK                         _______ _______ _______ _____ _____    ______ ____
ROOT
ATOM      1  C   UNL     1      12.005   2.432  -1.172  0.00  0.00    -0.073 C 
ATOM      2  C   UNL     1      11.443   2.959   0.140  0.00  0.00    -0.007 C 
ATOM      3  C   UNL     1      11.181   1.810   1.117  0.00  0.00    +0.011 C 
ATOM      4  C   UNL     1      10.228   0.824   0.432  0.00  0.00    +0.020 C 
ATOM      5  C   UNL     1      10.922   0.291  -0.832  0.00  0.00    -0.069 C 
ATOM      6  C   UNL     1       8.984   1.563  -0.009  0.00  0.00    +0.023 A 
ATOM      7  C   UNL     1       7.830   0.853  -0.094  0.00  0.00    +0.023 A 
ATOM      8  C   UNL     1       6.671   1.440  -0.618  0.00  0.00    +0.031 A 
ATOM      9  C   UNL     1       6.727   2.733  -1.060  0.00  0.00    +0.112 A 
ATOM     10  C   UNL     1       7.941   3.440  -0.956  0.00  0.00    +0.274 A 
ATOM     11  O   UNL     1       8.023   4.573  -1.403  0.00  0.00    -0.266 OA
ATOM     12  N   UNL     1       9.018   2.873  -0.357  0.00  0.00    -0.310 N 
ATOM     13  C   UNL     1      10.159   3.744  -0.073  0.00  0.00    +0.127 C 
ATOM     14  N   UNL     1      11.092   1.431  -1.761  0.00  0.00    +0.383 N 
ATOM     15  H   UNL     1      10.177   1.869  -1.922  0.00  0.00    -0.081 HD
ENDROOT
BRANCH   9  16
ATOM     16  N   UNL     1       5.595   3.344  -1.613  0.00  0.00    -0.215 N 
ATOM     17  H   UNL     1       5.642   4.262  -1.924  0.00  0.00    +0.173 HD
BRANCH  16  18
ATOM     18  S   UNL     1       4.175   2.500  -1.736  0.00  0.00    +0.047 S 
ATOM     19  O   UNL     1       4.532   1.282  -2.376  0.00  0.00    -0.155 OA
ATOM     20  O   UNL     1       3.269   3.404  -2.353  0.00  0.00    -0.155 OA
BRANCH  18  21
ATOM     21  C   UNL     1       3.672   2.182  -0.023  0.00  0.00    +0.223 C 
BRANCH  21  22
ATOM     22  C   UNL     1       2.377   1.411  -0.015  0.00  0.00    -0.025 A 
ATOM     23  C   UNL     1       1.171   2.086   0.002  0.00  0.00    +0.005 A 
ATOM     24  C   UNL     1      -0.017   1.378   0.010  0.00  0.00    +0.000 A 
ATOM     25  C   UNL     1       0.002  -0.004   0.002  0.00  0.00    +0.000 A 
ATOM     26  C   UNL     1       1.208  -0.679  -0.013  0.00  0.00    +0.000 A 
ATOM     27  C   UNL     1       2.396   0.029  -0.022  0.00  0.00    +0.005 A 
ENDBRANCH  21  22
ENDBRANCH  18  21
ENDBRANCH  16  18
ENDBRANCH   9  16
BRANCH  14  28
ATOM     28  C   UNL     1      11.630   0.956  -3.052  0.00  0.00    -0.041 C 
BRANCH  28  32
ATOM     29  C   UNL     1      10.302  -3.805  -3.968  0.00  0.00    +0.149 C 
ATOM     30  N   UNL     1      10.238  -2.342  -3.914  0.00  0.00    -0.349 N 
ATOM     31  C   UNL     1      11.211  -1.531  -3.398  0.00  0.00    +0.088 A 
ATOM     32  C   UNL     1      10.839  -0.245  -3.503  0.00  0.00    -0.039 A 
ATOM     33  C   UNL     1       9.517  -0.232  -4.133  0.00  0.00    +0.001 A 
ATOM     34  C   UNL     1       9.189  -1.579  -4.376  0.00  0.00    +0.049 A 
ATOM     35  C   UNL     1       7.973  -1.886  -4.979  0.00  0.00    +0.026 A 
ATOM     36  C   UNL     1       7.111  -0.872  -5.335  0.00  0.00    +0.002 A 
ATOM     37  C   UNL     1       7.442   0.455  -5.098  0.00  0.00    +0.001 A 
ATOM     38  C   UNL     1       8.630   0.779  -4.507  0.00  0.00    +0.010 A 
ENDBRANCH  28  32
ENDBRANCH  14  28
TORSDOF 6
