REMARK  Name = ZINC11909452
REMARK  11 active torsions:
REMARK  status: ('A' for Active; 'I' for Inactive)
REMARK    1  A    between atoms: C_1  and  C_2
REMARK    2  A    between atoms: C_4  and  C_7
REMARK    3  A    between atoms: C_13  and  C_16
REMARK    4  A    between atoms: C_16  and  O_17
REMARK    5  A    between atoms: O_17  and  C_18
REMARK    6  A    between atoms: C_22  and  C_24
REMARK    7  A    between atoms: C_24  and  N_63
REMARK    8  A    between atoms: C_25  and  N_63
REMARK    9  A    between atoms: C_26  and  C_27
REMARK   10  A    between atoms: C_26  and  N_63
REMARK   11  A    between atoms: N_30  and  C_32
REMARK                            x       y       z     vdW  Elec       q    Type
REMARK                         _______ _______ _______ _____ _____    ______ ____
ROOT
ATOM      1  C   UNL     1       5.870   2.811  -4.384  0.00  0.00    +0.121 A 
ATOM      2  C   UNL     1       6.566   1.809  -5.045  0.00  0.00    +0.045 A 
ATOM      3  C   UNL     1       6.502   0.508  -4.586  0.00  0.00    +0.004 A 
ATOM      4  C   UNL     1       5.749   0.205  -3.466  0.00  0.00    +0.002 A 
ATOM      5  C   UNL     1       5.051   1.201  -2.809  0.00  0.00    -0.060 A 
ATOM      6  C   UNL     1       5.112   2.504  -3.264  0.00  0.00    +0.047 A 
ENDROOT
BRANCH   1   7
ATOM      7  O   UNL     1       5.932   4.092  -4.833  0.00  0.00    -0.492 OA
BRANCH   7   8
ATOM      8  C   UNL     1       6.732   4.335  -5.992  0.00  0.00    +0.234 C 
BRANCH   8  15
ATOM      9  C   UNL     1       4.394   8.493  -6.680  0.00  0.00    +0.265 C 
ATOM     10  O   UNL     1       3.608   8.145  -5.819  0.00  0.00    -0.268 OA
ATOM     11  N   UNL     1       5.248   7.598  -7.215  0.00  0.00    -0.296 N 
ATOM     12  C   UNL     1       6.190   7.998  -8.268  0.00  0.00    +0.108 C 
ATOM     13  C   UNL     1       7.606   7.600  -7.841  0.00  0.00    +0.019 C 
ATOM     14  C   UNL     1       7.633   6.106  -7.509  0.00  0.00    +0.010 C 
ATOM     15  C   UNL     1       6.680   5.823  -6.345  0.00  0.00    +0.044 C 
ATOM     16  C   UNL     1       5.253   6.202  -6.755  0.00  0.00    +0.115 C 
BRANCH   9  20
ATOM     17  C   UNL     1       5.451  12.067  -9.988  0.00  0.00    +0.073 C 
ATOM     18  C   UNL     1       4.930  11.477  -8.703  0.00  0.00    +0.076 A 
ATOM     19  N   UNL     1       4.929  10.227  -8.320  0.00  0.00    -0.240 NA
ATOM     20  C   UNL     1       4.414   9.893  -7.136  0.00  0.00    +0.133 A 
ATOM     21  C   UNL     1       3.908  10.902  -6.358  0.00  0.00    +0.080 A 
ATOM     22  S   UNL     1       4.187  12.289  -7.363  0.00  0.00    -0.080 S 
ENDBRANCH   9  20
ENDBRANCH   8  15
ENDBRANCH   7   8
ENDBRANCH   1   7
BRANCH   5  23
ATOM     23  C   UNL     1       4.228   0.866  -1.592  0.00  0.00    -0.043 C 
BRANCH  23  25
ATOM     24  C   UNL     1       2.840  -0.713  -2.791  0.00  0.00    -0.095 C 
ATOM     25  N   UNL     1       2.850   0.548  -2.021  0.00  0.00    +0.383 N 
ATOM     26  H   UNL     1       2.503   1.307  -2.619  0.00  0.00    -0.081 HD
BRANCH  25  27
ATOM     27  C   UNL     1       1.969   0.426  -0.840  0.00  0.00    -0.040 C 
BRANCH  27  28
ATOM     28  C   UNL     1       0.540   0.322  -1.308  0.00  0.00    -0.026 A 
ATOM     29  C   UNL     1      -0.331   1.393  -1.536  0.00  0.00    +0.136 A 
ATOM     30  N   UNL     1      -1.479   0.907  -1.933  0.00  0.00    -0.180 NA
ATOM     31  N   UNL     1      -1.375  -0.489  -1.971  0.00  0.00    -0.274 N 
ATOM     32  C   UNL     1      -0.126  -0.823  -1.583  0.00  0.00    +0.109 A 
ATOM     33  C   UNL     1      -2.434  -1.422  -2.362  0.00  0.00    +0.172 C 
ENDBRANCH  27  28
ENDBRANCH  25  27
ENDBRANCH  23  25
ENDBRANCH   5  23
TORSDOF 8
