REMARK  Name = ZINC08574718
REMARK  10 active torsions:
REMARK  status: ('A' for Active; 'I' for Inactive)
REMARK    1  A    between atoms: C_1  and  C_2
REMARK    2  A    between atoms: C_4  and  O_37
REMARK    3  A    between atoms: C_5  and  C_9
REMARK    4  A    between atoms: N_17  and  C_34
REMARK    5  A    between atoms: C_18  and  C_20
REMARK    6  A    between atoms: C_23  and  O_26
REMARK    7  A    between atoms: O_26  and  C_27
REMARK    8  A    between atoms: C_27  and  C_28
REMARK    9  A    between atoms: C_34  and  C_35
REMARK   10  A    between atoms: C_35  and  O_36
REMARK                            x       y       z     vdW  Elec       q    Type
REMARK                         _______ _______ _______ _____ _____    ______ ____
ROOT
ATOM      1  C   UNL     1      -0.230  -4.716  -0.091  0.00  0.00    +0.102 A 
ATOM      2  C   UNL     1       0.044  -5.344   1.129  0.00  0.00    +0.035 A 
ATOM      3  C   UNL     1       0.104  -6.696   0.852  0.00  0.00    +0.126 A 
ATOM      4  N   UNL     1      -0.130  -6.819  -0.488  0.00  0.00    -0.272 N 
ATOM      5  H   UNL     1      -0.150  -7.657  -0.976  0.00  0.00    +0.189 HD
ATOM      6  N   UNL     1      -0.325  -5.659  -1.007  0.00  0.00    -0.173 NA
ATOM      7  C   UNL     1       0.389  -7.416   2.098  0.00  0.00    +0.266 C 
ATOM      8  O   UNL     1       0.505  -8.623   2.192  0.00  0.00    -0.268 OA
ATOM      9  N   UNL     1       0.504  -6.551   3.122  0.00  0.00    -0.283 N 
ATOM     10  C   UNL     1       0.299  -5.193   2.604  0.00  0.00    +0.141 C 
ENDROOT
BRANCH   1  15
ATOM     11  C   UNL     1      -0.849   0.951  -0.945  0.00  0.00    +0.045 C 
ATOM     12  C   UNL     1      -0.689  -0.531  -0.723  0.00  0.00    -0.029 A 
ATOM     13  C   UNL     1      -1.598  -1.412  -1.278  0.00  0.00    +0.050 A 
ATOM     14  C   UNL     1      -1.456  -2.776  -1.077  0.00  0.00    +0.126 A 
ATOM     15  C   UNL     1      -0.389  -3.257  -0.312  0.00  0.00    +0.045 A 
ATOM     16  C   UNL     1       0.522  -2.362   0.243  0.00  0.00    +0.034 A 
ATOM     17  C   UNL     1       0.372  -1.005   0.030  0.00  0.00    +0.045 A 
ATOM     18 CL   UNL     1       1.512   0.110   0.716  0.00  0.00    -0.083 Cl
BRANCH  14  19
ATOM     19  O   UNL     1      -2.350  -3.642  -1.621  0.00  0.00    -0.506 OA
ATOM     20  H   UNL     1      -2.112  -3.948  -2.506  0.00  0.00    +0.292 HD
ENDBRANCH  14  19
ENDBRANCH   1  15
BRANCH  10  21
ATOM     21  C   UNL     1      -0.891  -4.556   3.274  0.00  0.00    -0.022 A 
ATOM     22  C   UNL     1      -2.046  -5.290   3.472  0.00  0.00    +0.009 A 
ATOM     23  C   UNL     1      -3.138  -4.709   4.086  0.00  0.00    +0.046 A 
ATOM     24  C   UNL     1      -3.076  -3.388   4.504  0.00  0.00    +0.121 A 
ATOM     25  C   UNL     1      -1.916  -2.654   4.305  0.00  0.00    +0.046 A 
ATOM     26  C   UNL     1      -0.824  -3.241   3.695  0.00  0.00    +0.009 A 
BRANCH  24  27
ATOM     27  O   UNL     1      -4.150  -2.814   5.108  0.00  0.00    -0.487 OA
BRANCH  27  28
ATOM     28  C   UNL     1      -4.014  -1.450   5.513  0.00  0.00    +0.264 C 
BRANCH  28  29
ATOM     29  C   UNL     1      -5.295  -0.988   6.158  0.00  0.00    -0.010 A 
ATOM     30  C   UNL     1      -6.293  -0.424   5.386  0.00  0.00    +0.007 A 
ATOM     31  C   UNL     1      -7.468   0.000   5.978  0.00  0.00    +0.000 A 
ATOM     32  C   UNL     1      -7.645  -0.140   7.342  0.00  0.00    +0.000 A 
ATOM     33  C   UNL     1      -6.647  -0.705   8.114  0.00  0.00    +0.000 A 
ATOM     34  C   UNL     1      -5.474  -1.133   7.521  0.00  0.00    +0.007 A 
ENDBRANCH  28  29
ENDBRANCH  27  28
ENDBRANCH  24  27
ENDBRANCH  10  21
BRANCH   9  35
ATOM     35  C   UNL     1       0.786  -6.905   4.516  0.00  0.00    +0.137 C 
BRANCH  35  36
ATOM     36  C   UNL     1       2.299  -6.912   4.745  0.00  0.00    +0.175 C 
BRANCH  36  37
ATOM     37  O   UNL     1       2.812  -5.588   4.579  0.00  0.00    -0.393 OA
ATOM     38  H   UNL     1       3.767  -5.518   4.710  0.00  0.00    +0.209 HD
ENDBRANCH  36  37
ENDBRANCH  35  36
ENDBRANCH   9  35
TORSDOF 9
