REMARK  Name = ZINC40840227
REMARK  13 active torsions:
REMARK  status: ('A' for Active; 'I' for Inactive)
REMARK    1  A    between atoms: C_1  and  C_2
REMARK    2  A    between atoms: C_2  and  O_3
REMARK    3  A    between atoms: O_3  and  C_4
REMARK    4  A    between atoms: C_4  and  C_6
REMARK    5  A    between atoms: C_7  and  C_33
REMARK    6  A    between atoms: C_8  and  C_28
REMARK    7  A    between atoms: C_10  and  N_11
REMARK    8  A    between atoms: N_14  and  N_15
REMARK    9  A    between atoms: C_16  and  C_17
REMARK   10  A    between atoms: C_26  and  O_27
REMARK   11  A    between atoms: C_28  and  O_30
REMARK   12  A    between atoms: O_30  and  C_31
REMARK   13  A    between atoms: C_31  and  C_32
REMARK                            x       y       z     vdW  Elec       q    Type
REMARK                         _______ _______ _______ _____ _____    ______ ____
ROOT
ATOM      1  N   UNL     1       3.702  -2.662   1.288  0.00  0.00    -0.262 N 
ATOM      2  C   UNL     1       5.010  -2.942   1.450  0.00  0.00    +0.324 C 
ATOM      3  O   UNL     1       5.400  -3.447   2.485  0.00  0.00    -0.251 OA
ATOM      4  N   UNL     1       5.886  -2.663   0.464  0.00  0.00    -0.191 N 
ATOM      5  H   UNL     1       3.391  -2.259   0.462  0.00  0.00    +0.157 HD
ATOM      6  H   UNL     1       6.828  -2.865   0.580  0.00  0.00    +0.179 HD
ENDROOT
BRANCH   1  11
ATOM      7  C   UNL     1       1.425  -2.730   2.310  0.00  0.00    +0.091 A 
ATOM      8  C   UNL     1       0.726  -3.110   3.447  0.00  0.00    -0.014 A 
ATOM      9  C   UNL     1       1.465  -3.662   4.459  0.00  0.00    +0.102 A 
ATOM     10  S   UNL     1       3.118  -3.636   3.797  0.00  0.00    -0.066 S 
ATOM     11  C   UNL     1       2.805  -2.948   2.297  0.00  0.00    +0.088 A 
ATOM     12  C   UNL     1      -0.766  -2.925   3.562  0.00  0.00    +0.046 C 
BRANCH   7  13
ATOM     13  C   UNL     1       0.740  -2.128   1.162  0.00  0.00    +0.342 C 
ATOM     14  O   UNL     1       0.301  -2.836   0.276  0.00  0.00    -0.245 OA
BRANCH  13  15
ATOM     15  O   UNL     1       0.596  -0.789   1.089  0.00  0.00    -0.461 OA
BRANCH  15  17
ATOM     16  C   UNL     1      -0.148   1.255   0.035  0.00  0.00    +0.048 C 
ATOM     17  C   UNL     1      -0.082  -0.271  -0.058  0.00  0.00    +0.229 C 
ENDBRANCH  15  17
ENDBRANCH  13  15
ENDBRANCH   7  13
BRANCH   9  18
ATOM     18  C   UNL     1       1.011  -4.151   5.760  0.00  0.00    +0.346 C 
ATOM     19  O   UNL     1      -0.169  -4.092   6.054  0.00  0.00    -0.244 OA
BRANCH  18  20
ATOM     20  O   UNL     1       1.899  -4.667   6.635  0.00  0.00    -0.461 OA
BRANCH  20  21
ATOM     21  C   UNL     1       1.385  -5.125   7.887  0.00  0.00    +0.229 C 
ATOM     22  C   UNL     1       2.532  -5.672   8.739  0.00  0.00    +0.048 C 
ENDBRANCH  20  21
ENDBRANCH  18  20
ENDBRANCH   9  18
ENDBRANCH   1  11
BRANCH   4  23
ATOM     23  N   UNL     1       5.437  -2.080  -0.728  0.00  0.00    -0.186 NA
ATOM     24  C   UNL     1       6.291  -1.727  -1.641  0.00  0.00    +0.142 C 
BRANCH  24  25
ATOM     25  C   UNL     1       7.714  -2.063  -1.486  0.00  0.00    +0.044 A 
ATOM     26  C   UNL     1       8.736  -1.018  -1.519  0.00  0.00    -0.006 A 
ATOM     27  C   UNL     1       8.398   0.329  -1.698  0.00  0.00    +0.009 A 
ATOM     28  C   UNL     1       9.382   1.272  -1.722  0.00  0.00    +0.001 A 
ATOM     29  C   UNL     1      10.719   0.915  -1.571  0.00  0.00    +0.001 A 
ATOM     30  C   UNL     1      11.082  -0.386  -1.395  0.00  0.00    +0.008 A 
ATOM     31  C   UNL     1      10.095  -1.385  -1.365  0.00  0.00    -0.017 A 
ATOM     32  C   UNL     1      10.432  -2.738  -1.184  0.00  0.00    +0.012 A 
ATOM     33  C   UNL     1       9.469  -3.697  -1.156  0.00  0.00    +0.046 A 
ATOM     34  C   UNL     1       8.117  -3.385  -1.298  0.00  0.00    +0.126 A 
BRANCH  34  35
ATOM     35  O   UNL     1       7.189  -4.374  -1.259  0.00  0.00    -0.506 OA
ATOM     36  H   UNL     1       6.935  -4.711  -2.129  0.00  0.00    +0.292 HD
ENDBRANCH  34  35
ENDBRANCH  24  25
ENDBRANCH   4  23
TORSDOF 10
