REMARK  Name = ZINC34748957
REMARK  10 active torsions:
REMARK  status: ('A' for Active; 'I' for Inactive)
REMARK    1  A    between atoms: C_1  and  C_2
REMARK    2  A    between atoms: C_2  and  C_3
REMARK    3  A    between atoms: C_3  and  C_4
REMARK    4  A    between atoms: C_4  and  N_5
REMARK    5  A    between atoms: C_9  and  C_25
REMARK    6  A    between atoms: C_10  and  C_24
REMARK    7  A    between atoms: N_18  and  C_21
REMARK    8  A    between atoms: C_21  and  C_22
REMARK    9  A    between atoms: C_22  and  C_23
REMARK   10  A    between atoms: C_25  and  C_26
REMARK                            x       y       z     vdW  Elec       q    Type
REMARK                         _______ _______ _______ _____ _____    ______ ____
ROOT
ATOM      1  N   UNL     1       1.444  -2.640   2.396  0.00  0.00    -0.280 N 
ATOM      2  C   UNL     1       2.753  -2.937   2.307  0.00  0.00    +0.264 A 
ATOM      3  O   UNL     1       3.322  -2.903   1.230  0.00  0.00    -0.267 OA
ATOM      4  C   UNL     1       3.469  -3.292   3.494  0.00  0.00    +0.076 A 
ATOM      5  C   UNL     1       4.868  -3.648   3.652  0.00  0.00    -0.023 A 
ATOM      6  C   UNL     1       5.334  -3.949   4.873  0.00  0.00    -0.007 A 
ATOM      7  S   UNL     1       3.900  -3.773   5.918  0.00  0.00    -0.073 S 
ATOM      8  C   UNL     1       2.716  -3.300   4.683  0.00  0.00    +0.117 A 
ATOM      9  N   UNL     1       1.424  -2.996   4.701  0.00  0.00    -0.208 NA
ATOM     10  C   UNL     1       0.791  -2.667   3.594  0.00  0.00    +0.202 A 
ATOM     11  N   UNL     1      -0.544  -2.352   3.645  0.00  0.00    -0.304 N 
ATOM     12  C   UNL     1      -0.986  -0.968   3.876  0.00  0.00    +0.089 C 
ATOM     13  C   UNL     1      -2.017  -0.971   5.009  0.00  0.00    -0.060 C 
ATOM     14  N   UNL     1      -3.100  -1.907   4.682  0.00  0.00    +0.382 N 
ATOM     15  C   UNL     1      -2.576  -3.277   4.621  0.00  0.00    -0.060 C 
ATOM     16  C   UNL     1      -1.573  -3.388   3.463  0.00  0.00    +0.089 C 
ATOM     17  C   UNL     1       6.734  -4.343   5.268  0.00  0.00    +0.052 C 
ATOM     18  H   UNL     1      -3.498  -1.660   3.788  0.00  0.00    -0.082 HD
ENDROOT
BRANCH   5  19
ATOM     19  C   UNL     1       5.787  -3.680   2.458  0.00  0.00    +0.033 C 
ATOM     20  C   UNL     1       6.426  -2.303   2.269  0.00  0.00    +0.009 C 
ENDBRANCH   5  19
BRANCH   1  21
ATOM     21  C   UNL     1       0.706  -2.276   1.184  0.00  0.00    +0.128 C 
BRANCH  21  22
ATOM     22  C   UNL     1       0.892  -0.783   0.903  0.00  0.00    +0.021 C 
BRANCH  22  24
ATOM     23  C   UNL     1       0.307   1.090  -0.643  0.00  0.00    +0.004 C 
ATOM     24  C   UNL     1       0.121  -0.403  -0.362  0.00  0.00    -0.002 C 
ENDBRANCH  22  24
ENDBRANCH  21  22
ENDBRANCH   1  21
BRANCH  14  25
ATOM     25  C   UNL     1      -4.142  -1.828   5.715  0.00  0.00    -0.079 C 
BRANCH  25  26
ATOM     26  C   UNL     1      -5.327  -2.709   5.312  0.00  0.00    -0.022 C 
ATOM     27  C   UNL     1      -6.412  -2.627   6.388  0.00  0.00    +0.002 C 
ENDBRANCH  25  26
ENDBRANCH  14  25
TORSDOF 6
