REMARK  Name = ZINC04764797
REMARK  8 active torsions:
REMARK  status: ('A' for Active; 'I' for Inactive)
REMARK    1  A    between atoms: C_1  and  C_2
REMARK    2  A    between atoms: C_2  and  C_3
REMARK    3  A    between atoms: C_2  and  N_51
REMARK    4  A    between atoms: C_4  and  C_5
REMARK    5  A    between atoms: C_4  and  N_51
REMARK    6  A    between atoms: C_12  and  C_13
REMARK    7  A    between atoms: C_12  and  N_51
REMARK    8  A    between atoms: C_19  and  C_21
REMARK                            x       y       z     vdW  Elec       q    Type
REMARK                         _______ _______ _______ _____ _____    ______ ____
ROOT
ATOM      1  C   UNL     1       2.856  -2.308   0.368  0.00  0.00    +0.020 C 
ENDROOT
BRANCH   1   2
ATOM      2  C   UNL     1       1.523  -2.488  -0.312  0.00  0.00    +0.200 C 
ATOM      3  O   UNL     1       1.169  -3.591  -0.671  0.00  0.00    -0.278 OA
ATOM      4  N   UNL     1       0.724  -1.423  -0.521  0.00  0.00    -0.286 N 
ATOM      5  C   UNL     1       1.107  -0.076  -0.107  0.00  0.00    +0.120 C 
ATOM      6  C   UNL     1       0.511   0.990  -1.074  0.00  0.00    +0.090 C 
ATOM      7  S   UNL     1      -1.136   0.201  -1.365  0.00  0.00    -0.132 S 
ATOM      8  C   UNL     1      -0.589  -1.549  -1.182  0.00  0.00    +0.164 C 
BRANCH   8   9
ATOM      9  C   UNL     1      -1.553  -2.321  -0.317  0.00  0.00    -0.017 A 
ATOM     10  C   UNL     1      -1.375  -2.355   1.053  0.00  0.00    +0.009 A 
ATOM     11  C   UNL     1      -2.261  -3.057   1.848  0.00  0.00    +0.039 A 
ATOM     12  C   UNL     1      -3.321  -3.736   1.270  0.00  0.00    +0.123 A 
ATOM     13  C   UNL     1      -3.494  -3.706  -0.104  0.00  0.00    +0.039 A 
ATOM     14  C   UNL     1      -2.610  -2.998  -0.896  0.00  0.00    +0.009 A 
ATOM     15  F   UNL     1      -4.184  -4.428   2.045  0.00  0.00    -0.205 F 
ENDBRANCH   8   9
ENDBRANCH   1   2
BRANCH   1  16
ATOM     16  N   UNL     1       3.529  -3.621   0.451  0.00  0.00    +0.390 N 
ATOM     17  H   UNL     1       3.510  -4.064  -0.475  0.00  0.00    -0.080 HD
BRANCH  16  19
ATOM     18  C   UNL     1       3.382  -5.910   1.300  0.00  0.00    -0.013 C 
ATOM     19  C   UNL     1       2.824  -4.490   1.415  0.00  0.00    -0.074 C 
ATOM     20  C   UNL     1       3.022  -3.979   2.844  0.00  0.00    -0.013 C 
ENDBRANCH  16  19
BRANCH  16  21
ATOM     21  C   UNL     1       4.936  -3.442   0.868  0.00  0.00    -0.039 C 
BRANCH  21  22
ATOM     22  C   UNL     1       5.729  -2.938  -0.311  0.00  0.00    -0.029 A 
ATOM     23  C   UNL     1       6.368  -3.834  -1.148  0.00  0.00    +0.004 A 
ATOM     24  C   UNL     1       7.090  -3.373  -2.232  0.00  0.00    +0.000 A 
ATOM     25  C   UNL     1       7.184  -2.015  -2.475  0.00  0.00    +0.003 A 
ATOM     26  C   UNL     1       6.550  -1.117  -1.637  0.00  0.00    +0.038 A 
ATOM     27  C   UNL     1       5.822  -1.578  -0.554  0.00  0.00    +0.125 A 
ATOM     28  F   UNL     1       5.201  -0.702   0.266  0.00  0.00    -0.205 F 
ENDBRANCH  21  22
ENDBRANCH  16  21
ENDBRANCH   1  16
TORSDOF 6
