REMARK  Name = ZINC65611206
REMARK  2 active torsions:
REMARK  status: ('A' for Active; 'I' for Inactive)
REMARK    1  A    between atoms: N_4  and  C_6
REMARK    2  A    between atoms: C_13  and  C_15
REMARK                            x       y       z     vdW  Elec       q    Type
REMARK                         _______ _______ _______ _____ _____    ______ ____
ROOT
ATOM      1  C   UNL     1       2.791  -1.602  -0.255  0.00  0.00    +0.124 C 
ATOM      2  C   UNL     1       2.313  -2.385  -1.480  0.00  0.00    +0.030 C 
ATOM      3  C   UNL     1       2.829  -3.824  -1.401  0.00  0.00    +0.021 C 
ATOM      4  C   UNL     1       2.264  -4.497  -0.146  0.00  0.00    +0.108 C 
ATOM      5  N   UNL     1       2.596  -3.671   1.023  0.00  0.00    -0.299 N 
ATOM      6  C   UNL     1       2.226  -2.249   1.013  0.00  0.00    +0.134 C 
ATOM      7  C   UNL     1       3.229  -4.208   2.085  0.00  0.00    +0.219 C 
ATOM      8  O   UNL     1       3.570  -3.501   3.010  0.00  0.00    -0.275 OA
ENDROOT
BRANCH   7   9
ATOM      9  C   UNL     1       3.512  -5.688   2.124  0.00  0.00    +0.079 C 
ATOM     10  C   UNL     1       4.657  -5.968   3.106  0.00  0.00    +0.017 C 
ATOM     11  C   UNL     1       5.041  -7.445   2.993  0.00  0.00    +0.027 C 
ATOM     12  C   UNL     1       3.815  -8.306   3.075  0.00  0.00    -0.031 C 
ATOM     13  C   UNL     1       2.609  -7.869   2.902  0.00  0.00    -0.030 C 
ATOM     14  C   UNL     1       2.266  -6.438   2.600  0.00  0.00    +0.039 C 
ENDBRANCH   7   9
BRANCH   1  18
ATOM     15  C   UNL     1       1.097   1.539  -0.768  0.00  0.00    +0.041 A 
ATOM     16  C   UNL     1       2.280   1.970  -0.158  0.00  0.00    +0.134 A 
ATOM     17  N   UNL     1       3.016   0.918   0.094  0.00  0.00    -0.179 NA
ATOM     18  N   UNL     1       2.323  -0.217  -0.347  0.00  0.00    -0.267 N 
ATOM     19  C   UNL     1       1.149   0.191  -0.872  0.00  0.00    +0.108 A 
ENDBRANCH   1  18
TORSDOF 2
