REMARK  Name = ZINC67392549
REMARK  10 active torsions:
REMARK  status: ('A' for Active; 'I' for Inactive)
REMARK    1  A    between atoms: C_1  and  C_2
REMARK    2  A    between atoms: N_7  and  C_9
REMARK    3  A    between atoms: C_9  and  C_10
REMARK    4  A    between atoms: C_9  and  C_11
REMARK    5  A    between atoms: C_9  and  C_12
REMARK    6  A    between atoms: C_12  and  N_13
REMARK    7  A    between atoms: C_14  and  C_16
REMARK    8  A    between atoms: N_18  and  C_19
REMARK    9  A    between atoms: C_24  and  O_25
REMARK   10  A    between atoms: O_25  and  C_26
REMARK                            x       y       z     vdW  Elec       q    Type
REMARK                         _______ _______ _______ _____ _____    ______ ____
ROOT
ATOM      1  N   UNL     1      -0.024  -4.442   1.982  0.00  0.00    -0.309 N 
ATOM      2  C   UNL     1      -0.387  -5.717   2.224  0.00  0.00    +0.299 C 
ATOM      3  O   UNL     1       0.433  -6.516   2.627  0.00  0.00    -0.265 OA
ATOM      4  H   UNL     1      -0.680  -3.804   1.659  0.00  0.00    +0.149 HD
ENDROOT
BRANCH   2   5
ATOM      5  C   UNL     1      -1.798  -6.148   1.995  0.00  0.00    +0.303 C 
ATOM      6  O   UNL     1      -2.619  -5.350   1.591  0.00  0.00    -0.265 OA
ATOM      7  N   UNL     1      -2.161  -7.423   2.237  0.00  0.00    -0.275 N 
ATOM      8  H   UNL     1      -1.494  -8.076   2.499  0.00  0.00    +0.155 HD
BRANCH   7   9
ATOM      9  C   UNL     1      -3.501  -7.806   2.109  0.00  0.00    +0.077 A 
ATOM     10  C   UNL     1      -4.335  -7.133   1.227  0.00  0.00    +0.027 A 
ATOM     11  C   UNL     1      -5.658  -7.511   1.102  0.00  0.00    +0.003 A 
ATOM     12  C   UNL     1      -6.155  -8.561   1.854  0.00  0.00    +0.024 A 
ATOM     13  C   UNL     1      -5.330  -9.236   2.736  0.00  0.00    +0.084 A 
ATOM     14  C   UNL     1      -4.000  -8.866   2.862  0.00  0.00    +0.159 A 
ATOM     15 CL   UNL     1      -5.959 -10.551   3.678  0.00  0.00    -0.080 Cl
BRANCH  14  16
ATOM     16  O   UNL     1      -3.186  -9.533   3.723  0.00  0.00    -0.492 OA
ATOM     17  C   UNL     1      -3.117  -9.041   5.063  0.00  0.00    +0.277 C 
ENDBRANCH  14  16
ENDBRANCH   7   9
ENDBRANCH   2   5
BRANCH   1  18
ATOM     18  C   UNL     1       1.361  -4.019   2.207  0.00  0.00    +0.092 C 
BRANCH  18  19
ATOM     19  C   UNL     1       1.483  -2.516   1.951  0.00  0.00    -0.055 C 
ATOM     20  C   UNL     1       2.943  -2.088   2.112  0.00  0.00    -0.008 C 
ATOM     21  C   UNL     1       0.615  -1.756   2.955  0.00  0.00    -0.008 C 
BRANCH  19  27
ATOM     22  C   UNL     1       0.820   1.054  -1.333  0.00  0.00    +0.005 C 
ATOM     23  C   UNL     1       0.649  -0.443  -1.065  0.00  0.00    -0.031 C 
ATOM     24  C   UNL     1       1.424  -1.243  -2.115  0.00  0.00    -0.001 C 
ATOM     25  C   UNL     1       1.311  -2.736  -1.792  0.00  0.00    -0.018 C 
ATOM     26  C   UNL     1       1.830  -2.985  -0.374  0.00  0.00    -0.078 C 
ATOM     27  N   UNL     1       1.032  -2.213   0.586  0.00  0.00    +0.384 N 
ATOM     28  C   UNL     1       1.191  -0.777   0.327  0.00  0.00    -0.075 C 
ATOM     29  H   UNL     1       0.059  -2.464   0.492  0.00  0.00    -0.081 HD
ENDBRANCH  19  27
ENDBRANCH  18  19
ENDBRANCH   1  18
TORSDOF 6
