REMARK  Name = ZINC60036309
REMARK  8 active torsions:
REMARK  status: ('A' for Active; 'I' for Inactive)
REMARK    1  A    between atoms: C_1  and  C_2
REMARK    2  A    between atoms: C_7  and  N_8
REMARK    3  A    between atoms: C_9  and  C_11
REMARK    4  A    between atoms: C_11  and  C_13
REMARK    5  A    between atoms: C_11  and  N_14
REMARK    6  A    between atoms: N_14  and  C_15
REMARK    7  A    between atoms: C_15  and  C_16
REMARK    8  A    between atoms: C_16  and  C_22
REMARK                            x       y       z     vdW  Elec       q    Type
REMARK                         _______ _______ _______ _____ _____    ______ ____
ROOT
ATOM      1  N   UNL     1       0.032  -1.299   6.017  0.00  0.00    +0.387 N 
ATOM      2  H   UNL     1      -0.718  -1.964   5.903  0.00  0.00    -0.085 HD
ATOM      3  H   UNL     1       0.887  -1.790   6.231  0.00  0.00    -0.085 HD
ENDROOT
BRANCH   1   4
ATOM      4  C   UNL     1       0.204  -0.536   4.774  0.00  0.00    +0.013 C 
ATOM      5  C   UNL     1       1.419   0.384   4.903  0.00  0.00    -0.004 C 
BRANCH   4   7
ATOM      6  N   UNL     1       0.595  -1.010   2.378  0.00  0.00    -0.287 N 
ATOM      7  C   UNL     1       0.414  -1.488   3.625  0.00  0.00    +0.203 C 
ATOM      8  O   UNL     1       0.421  -2.684   3.822  0.00  0.00    -0.277 OA
ATOM      9  H   UNL     1       0.659  -0.053   2.230  0.00  0.00    +0.155 HD
BRANCH   6  16
ATOM     10  C   UNL     1      -0.471  -0.187  -0.128  0.00  0.00    +0.045 C 
ATOM     11  C   UNL     1       0.184  -1.532   0.056  0.00  0.00    -0.029 A 
ATOM     12  C   UNL     1       0.285  -2.403  -1.011  0.00  0.00    +0.006 A 
ATOM     13  C   UNL     1       0.886  -3.637  -0.844  0.00  0.00    +0.020 A 
ATOM     14  C   UNL     1       1.388  -4.003   0.393  0.00  0.00    +0.043 A 
ATOM     15  C   UNL     1       1.290  -3.135   1.464  0.00  0.00    +0.043 A 
ATOM     16  C   UNL     1       0.691  -1.893   1.297  0.00  0.00    +0.038 A 
ATOM     17 CL   UNL     1       2.142  -5.553   0.600  0.00  0.00    -0.083 Cl
ENDBRANCH   6  16
ENDBRANCH   4   7
ENDBRANCH   1   4
BRANCH   1  18
ATOM     18  C   UNL     1      -0.292  -0.379   7.116  0.00  0.00    -0.070 C 
BRANCH  18  19
ATOM     19  C   UNL     1      -0.423  -1.168   8.420  0.00  0.00    -0.015 C 
ATOM     20  C   UNL     1      -0.677  -0.201   9.580  0.00  0.00    +0.038 C 
ATOM     21  C   UNL     1       0.529   0.729   9.733  0.00  0.00    +0.160 C 
ATOM     22  O   UNL     1       1.707  -0.051   9.947  0.00  0.00    -0.380 OA
ATOM     23  C   UNL     1       2.021  -0.940   8.873  0.00  0.00    +0.160 C 
ATOM     24  C   UNL     1       0.875  -1.938   8.686  0.00  0.00    +0.038 C 
BRANCH  19  25
ATOM     25  C   UNL     1      -1.571  -2.138   8.309  0.00  0.00    -0.043 A 
ATOM     26  C   UNL     1      -2.395  -2.109   7.199  0.00  0.00    +0.005 A 
ATOM     27  C   UNL     1      -3.448  -2.998   7.097  0.00  0.00    +0.020 A 
ATOM     28  C   UNL     1      -3.676  -3.919   8.105  0.00  0.00    +0.041 A 
ATOM     29  C   UNL     1      -2.851  -3.948   9.214  0.00  0.00    +0.020 A 
ATOM     30  C   UNL     1      -1.795  -3.061   9.313  0.00  0.00    +0.005 A 
ATOM     31 CL   UNL     1      -4.999  -5.036   7.977  0.00  0.00    -0.084 Cl
ENDBRANCH  19  25
ENDBRANCH  18  19
ENDBRANCH   1  18
TORSDOF 6
