REMARK  Name = ZINC50639710
REMARK  7 active torsions:
REMARK  status: ('A' for Active; 'I' for Inactive)
REMARK    1  A    between atoms: C_1  and  N_2
REMARK    2  A    between atoms: C_5  and  C_12
REMARK    3  A    between atoms: C_7  and  C_9
REMARK    4  A    between atoms: N_14  and  C_15
REMARK    5  A    between atoms: C_15  and  C_16
REMARK    6  A    between atoms: C_20  and  O_22
REMARK    7  A    between atoms: O_22  and  C_23
REMARK                            x       y       z     vdW  Elec       q    Type
REMARK                         _______ _______ _______ _____ _____    ______ ____
ROOT
ATOM      1  C   UNL     1      -0.018   1.461   0.010  0.00  0.00    +0.172 C 
ATOM      2  N   UNL     1       0.002  -0.004   0.002  0.00  0.00    -0.269 N 
ATOM      3  C   UNL     1      -1.116  -0.815   0.003  0.00  0.00    +0.161 A 
ATOM      4  C   UNL     1      -0.666  -2.146  -0.006  0.00  0.00    +0.096 A 
ATOM      5  C   UNL     1      -1.604  -3.190  -0.007  0.00  0.00    +0.054 A 
ATOM      6  C   UNL     1      -2.959  -2.851   0.001  0.00  0.00    +0.037 A 
ATOM      7  C   UNL     1      -3.319  -1.514   0.010  0.00  0.00    +0.047 A 
ATOM      8  N   UNL     1      -2.415  -0.555   0.011  0.00  0.00    -0.232 NA
ATOM      9  C   UNL     1       0.805  -2.096  -0.013  0.00  0.00    +0.275 A 
ATOM     10  O   UNL     1       1.561  -3.049  -0.022  0.00  0.00    -0.266 OA
ATOM     11  N   UNL     1       1.156  -0.794  -0.014  0.00  0.00    -0.262 N 
ATOM     12  H   UNL     1       2.066  -0.458  -0.021  0.00  0.00    +0.190 HD
ENDROOT
BRANCH   5  13
ATOM     13  C   UNL     1      -1.171  -4.608  -0.018  0.00  0.00    +0.245 C 
ATOM     14  O   UNL     1       0.013  -4.881  -0.025  0.00  0.00    -0.270 OA
ATOM     15  N   UNL     1      -2.090  -5.593  -0.018  0.00  0.00    -0.307 N 
ATOM     16  H   UNL     1      -3.035  -5.375  -0.012  0.00  0.00    +0.149 HD
BRANCH  15  17
ATOM     17  C   UNL     1      -1.662  -6.995  -0.028  0.00  0.00    +0.140 C 
BRANCH  17  18
ATOM     18  C   UNL     1      -2.874  -7.890  -0.027  0.00  0.00    -0.027 A 
ATOM     19  C   UNL     1      -3.427  -8.303   1.172  0.00  0.00    +0.005 A 
ATOM     20  C   UNL     1      -4.539  -9.124   1.176  0.00  0.00    +0.004 A 
ATOM     21  C   UNL     1      -5.100  -9.536  -0.017  0.00  0.00    +0.046 A 
ATOM     22  C   UNL     1      -4.548  -9.123  -1.221  0.00  0.00    +0.127 A 
ATOM     23  C   UNL     1      -3.436  -8.294  -1.223  0.00  0.00    +0.051 A 
BRANCH  22  24
ATOM     24  O   UNL     1      -5.098  -9.526  -2.396  0.00  0.00    -0.434 OA
BRANCH  24  25
ATOM     25  C   UNL     1      -6.245 -10.375  -2.318  0.00  0.00    +0.541 C 
ATOM     26  F   UNL     1      -5.910 -11.550  -1.637  0.00  0.00    -0.166 F 
ATOM     27  F   UNL     1      -7.269  -9.713  -1.631  0.00  0.00    -0.166 F 
ENDBRANCH  24  25
ENDBRANCH  22  24
ENDBRANCH  17  18
ENDBRANCH  15  17
ENDBRANCH   5  13
BRANCH   7  28
ATOM     28  C   UNL     1      -4.781  -1.147   0.019  0.00  0.00    +0.038 C 
ATOM     29  C   UNL     1      -5.785  -2.235  -0.364  0.00  0.00    +0.010 C 
ATOM     30  C   UNL     1      -5.501  -1.082  -1.329  0.00  0.00    +0.010 C 
ENDBRANCH   7  28
TORSDOF 6
