REMARK  Name = ZINC04131978
REMARK  6 active torsions:
REMARK  status: ('A' for Active; 'I' for Inactive)
REMARK    1  A    between atoms: C_1  and  C_2
REMARK    2  A    between atoms: N_4  and  C_5
REMARK    3  A    between atoms: C_8  and  C_11
REMARK    4  A    between atoms: N_13  and  N_14
REMARK    5  A    between atoms: C_15  and  C_16
REMARK    6  A    between atoms: C_25  and  C_27
REMARK                            x       y       z     vdW  Elec       q    Type
REMARK                         _______ _______ _______ _____ _____    ______ ____
ROOT
ATOM      1  C   UNL     1      -1.966   8.306   0.035  0.00  0.00    +0.263 C 
ATOM      2  O   UNL     1      -0.765   8.114   0.013  0.00  0.00    -0.268 OA
ATOM      3  N   UNL     1      -2.816   7.261   0.041  0.00  0.00    -0.203 N 
ATOM      4  H   UNL     1      -3.774   7.414   0.059  0.00  0.00    +0.178 HD
ENDROOT
BRANCH   1   8
ATOM      5  C   UNL     1      -3.479  12.274   0.090  0.00  0.00    +0.033 A 
ATOM      6  C   UNL     1      -2.105  12.055   0.065  0.00  0.00    +0.024 A 
ATOM      7  C   UNL     1      -1.611  10.770   0.048  0.00  0.00    +0.015 A 
ATOM      8  C   UNL     1      -2.492   9.685   0.054  0.00  0.00    +0.038 A 
ATOM      9  C   UNL     1      -3.871   9.908   0.073  0.00  0.00    +0.015 A 
ATOM     10  C   UNL     1      -4.358  11.195   0.098  0.00  0.00    +0.024 A 
BRANCH   5  14
ATOM     11  C   UNL     1      -3.902  15.925   0.884  0.00  0.00    +0.109 C 
ATOM     12  C   UNL     1      -3.313  14.541   0.777  0.00  0.00    +0.214 C 
ATOM     13  O   UNL     1      -2.243  14.296   1.292  0.00  0.00    -0.276 OA
ATOM     14  N   UNL     1      -3.976  13.577   0.109  0.00  0.00    -0.286 N 
ATOM     15  H   UNL     1      -4.799  13.789  -0.359  0.00  0.00    +0.155 HD
ENDBRANCH   5  14
ENDBRANCH   1   8
BRANCH   3  16
ATOM     16  N   UNL     1      -2.317   5.952   0.022  0.00  0.00    -0.187 NA
ATOM     17  C   UNL     1      -3.137   4.944   0.029  0.00  0.00    +0.140 C 
BRANCH  17  18
ATOM     18  C   UNL     1      -2.612   3.569   0.009  0.00  0.00    +0.020 A 
ATOM     19  C   UNL     1      -3.342   2.424  -0.004  0.00  0.00    +0.104 A 
ATOM     20  N   UNL     1      -2.502   1.341  -0.022  0.00  0.00    -0.287 N 
ATOM     21  C   UNL     1      -1.183   1.765  -0.035  0.00  0.00    +0.057 A 
ATOM     22  C   UNL     1      -1.192   3.168  -0.018  0.00  0.00    +0.009 A 
ATOM     23  C   UNL     1       0.008   3.874  -0.034  0.00  0.00    +0.010 A 
ATOM     24  C   UNL     1       1.203   3.188  -0.059  0.00  0.00    +0.001 A 
ATOM     25  C   UNL     1       1.213   1.801  -0.070  0.00  0.00    +0.002 A 
ATOM     26  C   UNL     1       0.032   1.091  -0.055  0.00  0.00    +0.027 A 
ATOM     27  C   UNL     1      -2.900   0.054  -0.028  0.00  0.00    +0.229 C 
ATOM     28  O   UNL     1      -2.075  -0.835  -0.045  0.00  0.00    -0.273 OA
ATOM     29  C   UNL     1      -4.369  -0.281  -0.013  0.00  0.00    +0.113 C 
ENDBRANCH  17  18
ENDBRANCH   3  16
TORSDOF 4
