REMARK  Name = ZINC40090117
REMARK  11 active torsions:
REMARK  status: ('A' for Active; 'I' for Inactive)
REMARK    1  A    between atoms: C_1  and  C_2
REMARK    2  A    between atoms: C_3  and  C_16
REMARK    3  A    between atoms: C_4  and  C_15
REMARK    4  A    between atoms: C_9  and  C_11
REMARK    5  A    between atoms: C_16  and  C_17
REMARK    6  A    between atoms: C_17  and  C_18
REMARK    7  A    between atoms: C_23  and  C_26
REMARK    8  A    between atoms: N_28  and  C_29
REMARK    9  A    between atoms: N_28  and  C_30
REMARK   10  A    between atoms: C_30  and  C_31
REMARK   11  A    between atoms: C_30  and  C_32
REMARK                            x       y       z     vdW  Elec       q    Type
REMARK                         _______ _______ _______ _____ _____    ______ ____
ROOT
ATOM      1  C   UNL     1      -2.521   0.013   0.015  0.00  0.00    +0.048 C 
ENDROOT
BRANCH   1   4
ATOM      2  C   UNL     1      -0.018   1.503   0.010  0.00  0.00    +0.066 C 
ATOM      3  C   UNL     1       0.002  -0.004   0.002  0.00  0.00    +0.047 A 
ATOM      4  C   UNL     1      -1.203  -0.717   0.004  0.00  0.00    -0.005 A 
ATOM      5  C   UNL     1      -1.170  -2.075  -0.004  0.00  0.00    +0.048 A 
ATOM      6  N   UNL     1       0.034  -2.706  -0.014  0.00  0.00    -0.200 N 
ATOM      7  C   UNL     1       1.192  -1.980  -0.015  0.00  0.00    +0.254 A 
ATOM      8  N   UNL     1       1.150  -0.642  -0.012  0.00  0.00    -0.216 NA
ATOM      9  N   UNL     1       2.199  -2.846  -0.025  0.00  0.00    -0.186 NA
ATOM     10  C   UNL     1       1.725  -4.084  -0.030  0.00  0.00    +0.257 A 
ATOM     11  N   UNL     1       0.413  -4.054  -0.023  0.00  0.00    -0.139 NA
ATOM     12  C   UNL     1      -2.450  -2.870  -0.002  0.00  0.00    +0.066 C 
BRANCH  10  13
ATOM     13  C   UNL     1       2.565  -5.336  -0.042  0.00  0.00    +0.454 C 
ATOM     14  F   UNL     1       3.884  -5.015   0.295  0.00  0.00    -0.163 F 
ATOM     15  F   UNL     1       2.055  -6.248   0.888  0.00  0.00    -0.163 F 
ATOM     16  F   UNL     1       2.535  -5.905  -1.319  0.00  0.00    -0.163 F 
ENDBRANCH  10  13
ENDBRANCH   1   4
BRANCH   1  17
ATOM     17  C   UNL     1      -2.899   0.362   1.456  0.00  0.00    +0.101 C 
BRANCH  17  18
ATOM     18  C   UNL     1      -4.217   1.092   1.467  0.00  0.00    +0.216 C 
ATOM     19  O   UNL     1      -4.797   1.312   0.425  0.00  0.00    -0.276 OA
ATOM     20  N   UNL     1      -4.751   1.501   2.635  0.00  0.00    -0.301 N 
ATOM     21  C   UNL     1      -4.057   1.247   3.905  0.00  0.00    +0.108 C 
ATOM     22  C   UNL     1      -5.020   0.533   4.859  0.00  0.00    +0.032 C 
ATOM     23  C   UNL     1      -6.301   1.359   4.997  0.00  0.00    +0.078 C 
ATOM     24  C   UNL     1      -6.979   1.485   3.631  0.00  0.00    +0.032 C 
ATOM     25  C   UNL     1      -6.035   2.214   2.663  0.00  0.00    +0.108 C 
BRANCH  23  26
ATOM     26  C   UNL     1      -7.237   0.677   5.961  0.00  0.00    +0.219 C 
ATOM     27  O   UNL     1      -6.912  -0.366   6.486  0.00  0.00    -0.275 OA
ATOM     28  N   UNL     1      -8.435   1.228   6.240  0.00  0.00    -0.302 N 
ATOM     29  C   UNL     1      -8.828   2.489   5.606  0.00  0.00    +0.132 C 
BRANCH  28  30
ATOM     30  C   UNL     1      -9.346   0.565   7.178  0.00  0.00    +0.070 C 
ATOM     31  C   UNL     1      -9.632   1.498   8.356  0.00  0.00    +0.028 C 
ATOM     32  C   UNL     1     -10.656   0.227   6.464  0.00  0.00    +0.028 C 
ENDBRANCH  28  30
ENDBRANCH  23  26
ENDBRANCH  17  18
ENDBRANCH   1  17
TORSDOF 6
