REMARK  Name = ZINC54403064
REMARK  9 active torsions:
REMARK  status: ('A' for Active; 'I' for Inactive)
REMARK    1  A    between atoms: C_1  and  C_2
REMARK    2  A    between atoms: C_2  and  C_3
REMARK    3  A    between atoms: C_3  and  C_4
REMARK    4  A    between atoms: C_3  and  C_5
REMARK    5  A    between atoms: C_3  and  C_6
REMARK    6  A    between atoms: C_6  and  C_8
REMARK    7  A    between atoms: C_6  and  N_21
REMARK    8  A    between atoms: N_21  and  C_22
REMARK    9  A    between atoms: C_22  and  C_23
REMARK                            x       y       z     vdW  Elec       q    Type
REMARK                         _______ _______ _______ _____ _____    ______ ____
ROOT
ATOM      1  C   UNL     1      -2.826  -2.585   0.015  0.00  0.00    -0.045 A 
ATOM      2  C   UNL     1      -3.426  -2.922   1.213  0.00  0.00    +0.031 A 
ATOM      3  C   UNL     1      -4.727  -3.402   1.223  0.00  0.00    +0.067 A 
ATOM      4  C   UNL     1      -5.425  -3.543   0.022  0.00  0.00    +0.068 A 
ATOM      5  C   UNL     1      -4.816  -3.202  -1.176  0.00  0.00    +0.043 A 
ATOM      6  C   UNL     1      -3.521  -2.719  -1.175  0.00  0.00    +0.022 A 
ATOM      7 BR   UNL     1      -2.692  -2.246  -2.808  0.00  0.00    -0.050 Br
ATOM      8  N   UNL     1      -6.686  -4.038   0.346  0.00  0.00    -0.306 N 
ATOM      9  H   UNL     1      -7.396  -4.239  -0.284  0.00  0.00    +0.170 HD
ATOM     10  C   UNL     1      -6.752  -4.192   1.682  0.00  0.00    +0.325 A 
ATOM     11  O   UNL     1      -7.718  -4.608   2.293  0.00  0.00    -0.247 OA
ATOM     12  N   UNL     1      -5.585  -3.817   2.239  0.00  0.00    -0.306 N 
ATOM     13  H   UNL     1      -5.377  -3.833   3.186  0.00  0.00    +0.170 HD
ENDROOT
BRANCH   1  14
ATOM     14  C   UNL     1      -1.413  -2.063   0.004  0.00  0.00    -0.034 C 
BRANCH  14  15
ATOM     15  C   UNL     1      -1.433  -0.534   0.013  0.00  0.00    -0.044 C 
ATOM     16  C   UNL     1      -2.149  -0.040   1.272  0.00  0.00    +0.009 C 
ATOM     17  C   UNL     1      -2.173  -0.027  -1.227  0.00  0.00    +0.009 C 
BRANCH  15  19
ATOM     18  C   UNL     1      -0.019   1.526   0.010  0.00  0.00    +0.004 C 
ATOM     19  C   UNL     1       0.002  -0.004   0.002  0.00  0.00    +0.002 C 
ENDBRANCH  15  19
ENDBRANCH  14  15
BRANCH  14  20
ATOM     20  N   UNL     1      -0.702  -2.550   1.195  0.00  0.00    +0.384 N 
ATOM     21  H   UNL     1       0.217  -2.135   1.230  0.00  0.00    -0.085 HD
ATOM     22  H   UNL     1      -1.219  -2.295   2.023  0.00  0.00    -0.085 HD
BRANCH  20  23
ATOM     23  C   UNL     1      -0.577  -4.012   1.127  0.00  0.00    -0.085 C 
ATOM     24  C   UNL     1       0.163  -4.519   2.366  0.00  0.00    -0.017 C 
ENDBRANCH  20  23
ENDBRANCH  14  20
ENDBRANCH   1  14
TORSDOF 5
