REMARK  Name = ZINC09343837
REMARK  13 active torsions:
REMARK  status: ('A' for Active; 'I' for Inactive)
REMARK    1  A    between atoms: C_1  and  C_2
REMARK    2  A    between atoms: C_2  and  N_59
REMARK    3  A    between atoms: C_3  and  C_4
REMARK    4  A    between atoms: C_3  and  N_59
REMARK    5  A    between atoms: C_5  and  C_6
REMARK    6  A    between atoms: C_5  and  N_59
REMARK    7  A    between atoms: C_6  and  N_7
REMARK    8  A    between atoms: C_11  and  O_17
REMARK    9  A    between atoms: O_17  and  C_18
REMARK   10  A    between atoms: C_19  and  C_21
REMARK   11  A    between atoms: C_21  and  C_22
REMARK   12  A    between atoms: C_22  and  S_23
REMARK   13  A    between atoms: S_23  and  C_24
REMARK                            x       y       z     vdW  Elec       q    Type
REMARK                         _______ _______ _______ _____ _____    ______ ____
ROOT
ATOM      1  N   UNL     1       4.850   7.513  -0.003  0.00  0.00    -0.252 N 
ATOM      2  C   UNL     1       6.194   7.854   0.007  0.00  0.00    +0.168 A 
ATOM      3  N   UNL     1       7.243   7.067  -0.001  0.00  0.00    -0.221 NA
ATOM      4  C   UNL     1       8.508   7.543   0.011  0.00  0.00    +0.122 A 
ATOM      5  C   UNL     1       9.720   6.807   0.003  0.00  0.00    +0.146 A 
ATOM      6  C   UNL     1      10.933   7.454   0.018  0.00  0.00    +0.048 A 
ATOM      7  C   UNL     1      11.014   8.839   0.039  0.00  0.00    +0.005 A 
ATOM      8  C   UNL     1       9.851   9.586   0.046  0.00  0.00    +0.017 A 
ATOM      9  C   UNL     1       8.633   8.949   0.032  0.00  0.00    +0.044 A 
ATOM     10  S   UNL     1       6.937   9.479   0.027  0.00  0.00    -0.052 S 
ATOM     11  C   UNL     1       4.485   6.216  -0.024  0.00  0.00    +0.222 C 
ATOM     12  O   UNL     1       5.331   5.347  -0.034  0.00  0.00    -0.275 OA
ENDROOT
BRANCH   5  13
ATOM     13  O   UNL     1       9.683   5.448  -0.017  0.00  0.00    -0.493 OA
ATOM     14  C   UNL     1      10.938   4.764  -0.024  0.00  0.00    +0.277 C 
ENDBRANCH   5  13
BRANCH   1  15
ATOM     15  C   UNL     1       3.828   8.562   0.010  0.00  0.00    +0.097 C 
BRANCH  15  16
ATOM     16  C   UNL     1       3.467   8.905   1.456  0.00  0.00    -0.059 C 
BRANCH  16  17
ATOM     17  N   UNL     1       2.543  10.059   1.453  0.00  0.00    +0.380 N 
ATOM     18  H   UNL     1       2.869  10.745   0.762  0.00  0.00    -0.082 HD
BRANCH  17  20
ATOM     19  C   UNL     1       0.303  10.850   0.870  0.00  0.00    -0.017 C 
ATOM     20  C   UNL     1       1.182   9.616   1.084  0.00  0.00    -0.082 C 
ENDBRANCH  17  20
BRANCH  17  21
ATOM     21  C   UNL     1       2.524  10.695   2.787  0.00  0.00    -0.082 C 
ATOM     22  C   UNL     1       3.791  11.537   2.948  0.00  0.00    -0.017 C 
ENDBRANCH  17  21
ENDBRANCH  16  17
ENDBRANCH  15  16
ENDBRANCH   1  15
BRANCH  11  23
ATOM     23  C   UNL     1       3.024   5.845  -0.034  0.00  0.00    +0.107 C 
BRANCH  23  24
ATOM     24  C   UNL     1       2.885   4.321  -0.058  0.00  0.00    +0.083 C 
BRANCH  24  25
ATOM     25  S   UNL     1       1.127   3.874  -0.071  0.00  0.00    -0.125 S 
BRANCH  25  26
ATOM     26  C   UNL     1       1.136   2.112  -0.097  0.00  0.00    +0.008 A 
ATOM     27  C   UNL     1      -0.064   1.411  -0.112  0.00  0.00    +0.017 A 
ATOM     28  C   UNL     1      -0.055   0.030  -0.134  0.00  0.00    +0.039 A 
ATOM     29  C   UNL     1       1.149  -0.655  -0.140  0.00  0.00    +0.123 A 
ATOM     30  C   UNL     1       2.345   0.041  -0.125  0.00  0.00    +0.039 A 
ATOM     31  C   UNL     1       2.341   1.422  -0.104  0.00  0.00    +0.017 A 
ATOM     32  F   UNL     1       1.155  -2.006  -0.161  0.00  0.00    -0.205 F 
ENDBRANCH  25  26
ENDBRANCH  24  25
ENDBRANCH  23  24
ENDBRANCH  11  23
TORSDOF 10
