REMARK  Name = ZINC16794815
REMARK  13 active torsions:
REMARK  status: ('A' for Active; 'I' for Inactive)
REMARK    1  A    between atoms: C_1  and  C_2
REMARK    2  A    between atoms: C_3  and  C_16
REMARK    3  A    between atoms: C_4  and  C_15
REMARK    4  A    between atoms: N_5  and  C_7
REMARK    5  A    between atoms: C_7  and  C_8
REMARK    6  A    between atoms: C_17  and  C_18
REMARK    7  A    between atoms: C_18  and  O_20
REMARK    8  A    between atoms: O_20  and  C_21
REMARK    9  A    between atoms: C_21  and  C_23
REMARK   10  A    between atoms: C_21  and  C_24
REMARK   11  A    between atoms: N_29  and  C_30
REMARK   12  A    between atoms: C_30  and  C_31
REMARK   13  A    between atoms: C_30  and  C_32
REMARK                            x       y       z     vdW  Elec       q    Type
REMARK                         _______ _______ _______ _____ _____    ______ ____
ROOT
ATOM      1  C   UNL     1       0.786   3.864  -0.113  0.00  0.00    +0.018 C 
ATOM      2  C   UNL     1       0.579   2.545  -0.323  0.00  0.00    +0.092 C 
ENDROOT
BRANCH   1   5
ATOM      3  C   UNL     1       3.273   2.711   1.485  0.00  0.00    +0.068 C 
ATOM      4  C   UNL     1       3.270   3.905   0.565  0.00  0.00    +0.067 A 
ATOM      5  C   UNL     1       2.151   4.407  -0.140  0.00  0.00    +0.018 A 
ATOM      6  C   UNL     1       2.583   5.509  -0.856  0.00  0.00    +0.044 A 
ATOM      7  N   UNL     1       3.894   5.663  -0.603  0.00  0.00    -0.263 N 
ATOM      8  N   UNL     1       4.298   4.654   0.278  0.00  0.00    -0.175 NA
ATOM      9  C   UNL     1       1.739   6.378  -1.753  0.00  0.00    +0.066 C 
BRANCH   7  10
ATOM     10  C   UNL     1       4.755   6.711  -1.157  0.00  0.00    +0.180 C 
BRANCH  10  11
ATOM     11  C   UNL     1       5.468   6.184  -2.375  0.00  0.00    -0.008 A 
ATOM     12  C   UNL     1       4.985   6.473  -3.638  0.00  0.00    +0.007 A 
ATOM     13  C   UNL     1       5.639   5.988  -4.755  0.00  0.00    +0.000 A 
ATOM     14  C   UNL     1       6.776   5.215  -4.611  0.00  0.00    +0.001 A 
ATOM     15  C   UNL     1       7.260   4.926  -3.349  0.00  0.00    +0.020 A 
ATOM     16  C   UNL     1       6.609   5.415  -2.230  0.00  0.00    +0.046 A 
ATOM     17 CL   UNL     1       7.220   5.057  -0.645  0.00  0.00    -0.083 Cl
ENDBRANCH  10  11
ENDBRANCH   7  10
ENDBRANCH   1   5
BRANCH   2  18
ATOM     18  C   UNL     1      -0.736   2.022  -0.297  0.00  0.00    +0.333 C 
ATOM     19  O   UNL     1      -1.680   2.761  -0.090  0.00  0.00    -0.246 OA
BRANCH  18  20
ATOM     20  O   UNL     1      -0.943   0.705  -0.507  0.00  0.00    -0.449 OA
BRANCH  20  21
ATOM     21  C   UNL     1      -2.295   0.246  -0.466  0.00  0.00    +0.259 C 
ATOM     22  C   UNL     1      -2.652  -0.163   0.964  0.00  0.00    +0.062 C 
BRANCH  21  23
ATOM     23  C   UNL     1      -2.451  -0.941  -1.382  0.00  0.00    +0.261 C 
ATOM     24  O   UNL     1      -1.480  -1.409  -1.937  0.00  0.00    -0.271 OA
ATOM     25  N   UNL     1      -3.669  -1.481  -1.583  0.00  0.00    -0.237 N 
ATOM     26  C   UNL     1      -3.808  -2.543  -2.402  0.00  0.00    +0.306 C 
ATOM     27  O   UNL     1      -2.835  -3.012  -2.959  0.00  0.00    -0.252 OA
ATOM     28  N   UNL     1      -5.026  -3.083  -2.603  0.00  0.00    -0.297 N 
ATOM     29  H   UNL     1      -4.445  -1.107  -1.139  0.00  0.00    +0.159 HD
ATOM     30  H   UNL     1      -5.803  -2.709  -2.159  0.00  0.00    +0.151 HD
BRANCH  28  31
ATOM     31  C   UNL     1      -5.177  -4.237  -3.494  0.00  0.00    +0.068 C 
ATOM     32  C   UNL     1      -4.897  -5.523  -2.714  0.00  0.00    +0.027 C 
ATOM     33  C   UNL     1      -6.605  -4.274  -4.042  0.00  0.00    +0.027 C 
ENDBRANCH  28  31
ENDBRANCH  21  23
ENDBRANCH  20  21
ENDBRANCH  18  20
ENDBRANCH   2  18
TORSDOF 8
