REMARK  Name = ZINC57681563
REMARK  12 active torsions:
REMARK  status: ('A' for Active; 'I' for Inactive)
REMARK    1  A    between atoms: C_1  and  C_2
REMARK    2  A    between atoms: C_7  and  C_8
REMARK    3  A    between atoms: C_7  and  C_9
REMARK    4  A    between atoms: C_11  and  N_13
REMARK    5  A    between atoms: N_13  and  C_14
REMARK    6  A    between atoms: C_14  and  C_15
REMARK    7  A    between atoms: C_17  and  O_25
REMARK    8  A    between atoms: C_18  and  O_23
REMARK    9  A    between atoms: C_19  and  O_21
REMARK   10  A    between atoms: O_21  and  C_22
REMARK   11  A    between atoms: O_23  and  C_24
REMARK   12  A    between atoms: O_25  and  C_26
REMARK                            x       y       z     vdW  Elec       q    Type
REMARK                         _______ _______ _______ _____ _____    ______ ____
ROOT
ATOM      1  N   UNL     1      -2.298  -0.375   1.089  0.00  0.00    +0.384 N 
ATOM      2  H   UNL     1      -1.867  -0.316   2.000  0.00  0.00    -0.085 HD
ATOM      3  H   UNL     1      -2.525   0.552   0.763  0.00  0.00    -0.085 HD
ENDROOT
BRANCH   1  13
ATOM      4  C   UNL     1      -0.394   1.392  -0.214  0.00  0.00    +0.010 C 
ATOM      5  C   UNL     1      -0.119  -0.106  -0.078  0.00  0.00    -0.039 C 
ATOM      6  C   UNL     1       0.658  -0.767  -1.258  0.00  0.00    +0.006 C 
ATOM      7  C   UNL     1       1.236  -2.071  -0.665  0.00  0.00    +0.004 C 
ATOM      8  C   UNL     1       0.755  -2.077   0.819  0.00  0.00    -0.006 C 
ATOM      9  C   UNL     1       0.776  -0.540   1.136  0.00  0.00    -0.028 C 
ATOM     10  C   UNL     1       2.188   0.045   1.046  0.00  0.00    +0.011 C 
ATOM     11  C   UNL     1       0.115  -0.222   2.478  0.00  0.00    +0.011 C 
ATOM     12  C   UNL     1      -0.777  -2.352   0.731  0.00  0.00    -0.011 C 
ATOM     13  C   UNL     1      -1.368  -1.012   0.147  0.00  0.00    -0.065 C 
ENDBRANCH   1  13
BRANCH   1  14
ATOM     14  C   UNL     1      -3.526  -1.176   1.181  0.00  0.00    -0.046 C 
BRANCH  14  15
ATOM     15  C   UNL     1      -4.481  -0.522   2.148  0.00  0.00    -0.057 A 
ATOM     16  C   UNL     1      -4.434  -0.851   3.490  0.00  0.00    +0.051 A 
ATOM     17  C   UNL     1      -5.311  -0.253   4.383  0.00  0.00    +0.165 A 
ATOM     18  C   UNL     1      -6.236   0.679   3.926  0.00  0.00    +0.204 A 
ATOM     19  C   UNL     1      -6.279   1.006   2.576  0.00  0.00    +0.165 A 
ATOM     20  C   UNL     1      -5.396   0.407   1.691  0.00  0.00    +0.051 A 
BRANCH  19  21
ATOM     21  O   UNL     1      -7.182   1.917   2.125  0.00  0.00    -0.491 OA
ATOM     22  C   UNL     1      -7.169   2.205   0.726  0.00  0.00    +0.277 C 
ENDBRANCH  19  21
BRANCH  18  23
ATOM     23  O   UNL     1      -7.098   1.268   4.799  0.00  0.00    -0.488 OA
ATOM     24  C   UNL     1      -6.668   2.483   5.416  0.00  0.00    +0.277 C 
ENDBRANCH  18  23
BRANCH  17  25
ATOM     25  O   UNL     1      -5.265  -0.577   5.702  0.00  0.00    -0.491 OA
ATOM     26  C   UNL     1      -4.289  -1.542   6.100  0.00  0.00    +0.277 C 
ENDBRANCH  17  25
ENDBRANCH  14  15
ENDBRANCH   1  14
TORSDOF 6
