REMARK  Name = ZINC29870035
REMARK  8 active torsions:
REMARK  status: ('A' for Active; 'I' for Inactive)
REMARK    1  A    between atoms: C_4  and  N_24
REMARK    2  A    between atoms: C_5  and  C_7
REMARK    3  A    between atoms: N_9  and  C_10
REMARK    4  A    between atoms: C_10  and  C_11
REMARK    5  A    between atoms: C_11  and  C_13
REMARK    6  A    between atoms: C_11  and  N_18
REMARK    7  A    between atoms: C_25  and  C_27
REMARK    8  A    between atoms: C_30  and  N_34
REMARK                            x       y       z     vdW  Elec       q    Type
REMARK                         _______ _______ _______ _____ _____    ______ ____
ROOT
ATOM      1  C   UNL     1       5.008  -1.564   0.536  0.00  0.00    +0.001 A 
ATOM      2  C   UNL     1       4.737  -0.263   0.926  0.00  0.00    +0.002 A 
ATOM      3  C   UNL     1       3.438   0.138   1.170  0.00  0.00    +0.024 A 
ATOM      4  C   UNL     1       2.394  -0.768   1.035  0.00  0.00    +0.046 A 
ATOM      5  C   UNL     1       2.665  -2.086   0.639  0.00  0.00    +0.058 A 
ATOM      6  C   UNL     1       3.984  -2.475   0.392  0.00  0.00    +0.015 A 
ENDROOT
BRANCH   5   7
ATOM      7  C   UNL     1       1.564  -3.056   0.486  0.00  0.00    +0.246 C 
ATOM      8  O   UNL     1       0.410  -2.689   0.602  0.00  0.00    -0.270 OA
ATOM      9  N   UNL     1       1.837  -4.348   0.219  0.00  0.00    -0.312 N 
ATOM     10  H   UNL     1       2.881  -4.680   0.115  0.00  0.00    +0.149 HD
BRANCH   9  11
ATOM     11  C   UNL     1       0.744  -5.312   0.067  0.00  0.00    +0.097 C 
BRANCH  11  12
ATOM     12  C   UNL     1       1.314  -6.669  -0.351  0.00  0.00    +0.016 C 
BRANCH  12  13
ATOM     13  N   UNL     1       2.321  -7.099   0.628  0.00  0.00    +0.387 N 
ATOM     14  C   UNL     1       3.025  -8.302   0.165  0.00  0.00    -0.078 C 
ATOM     15  C   UNL     1       4.160  -8.635   1.135  0.00  0.00    -0.019 C 
ATOM     16  C   UNL     1       3.579  -8.868   2.532  0.00  0.00    -0.004 C 
ATOM     17  C   UNL     1       2.810  -7.618   2.971  0.00  0.00    -0.019 C 
ATOM     18  C   UNL     1       1.714  -7.314   1.948  0.00  0.00    -0.078 C 
ATOM     19  H   UNL     1       3.063  -6.293   0.727  0.00  0.00    -0.081 HD
ENDBRANCH  12  13
BRANCH  12  20
ATOM     20  C   UNL     1       0.202  -7.685  -0.408  0.00  0.00    +0.093 A 
ATOM     21  C   UNL     1      -0.258  -8.286  -1.519  0.00  0.00    +0.043 A 
ATOM     22  C   UNL     1      -1.293  -9.160  -1.114  0.00  0.00    +0.041 A 
ATOM     23  C   UNL     1      -1.409  -9.033   0.220  0.00  0.00    +0.195 A 
ATOM     24  O   UNL     1      -0.501  -8.138   0.642  0.00  0.00    -0.469 OA
ENDBRANCH  12  20
ENDBRANCH  11  12
ENDBRANCH   9  11
ENDBRANCH   5   7
BRANCH   4  25
ATOM     25  N   UNL     1       1.085  -0.367   1.284  0.00  0.00    -0.281 N 
ATOM     26  C   UNL     1       0.685   0.876   0.952  0.00  0.00    +0.250 C 
ATOM     27  O   UNL     1       1.490   1.677   0.517  0.00  0.00    -0.270 OA
ATOM     28  H   UNL     1       0.375  -1.066   1.752  0.00  0.00    +0.155 HD
BRANCH  26  29
ATOM     29  C   UNL     1      -0.730   1.266   1.117  0.00  0.00    +0.055 A 
ATOM     30  C   UNL     1      -1.657   0.349   1.617  0.00  0.00    +0.017 A 
ATOM     31  C   UNL     1      -2.978   0.718   1.763  0.00  0.00    +0.033 A 
ATOM     32  C   UNL     1      -3.384   1.997   1.425  0.00  0.00    +0.128 A 
ATOM     33  C   UNL     1      -2.473   2.912   0.930  0.00  0.00    +0.053 A 
ATOM     34  C   UNL     1      -1.148   2.555   0.774  0.00  0.00    +0.055 A 
ATOM     35 CL   UNL     1      -0.004   3.704   0.152  0.00  0.00    -0.083 Cl
BRANCH  32  36
ATOM     36  N   UNL     1      -4.803   2.386   1.590  0.00  0.00    +0.056 N 
ATOM     37  O   UNL     1      -5.165   3.510   1.289  0.00  0.00    -0.126 OA
ATOM     38  O   UNL     1      -5.608   1.583   2.025  0.00  0.00    -0.126 OA
ENDBRANCH  32  36
ENDBRANCH  26  29
ENDBRANCH   4  25
TORSDOF 8
