REMARK  Name = ZINC33307988
REMARK  7 active torsions:
REMARK  status: ('A' for Active; 'I' for Inactive)
REMARK    1  A    between atoms: C_1  and  C_2
REMARK    2  A    between atoms: C_7  and  N_8
REMARK    3  A    between atoms: N_8  and  S_9
REMARK    4  A    between atoms: S_9  and  C_12
REMARK    5  A    between atoms: C_13  and  C_30
REMARK    6  A    between atoms: C_16  and  C_17
REMARK    7  A    between atoms: C_21  and  C_24
REMARK                            x       y       z     vdW  Elec       q    Type
REMARK                         _______ _______ _______ _____ _____    ______ ____
ROOT
ATOM      1  C   UNL     1       1.955   0.692  -0.206  0.00  0.00    +0.152 A 
ATOM      2  C   UNL     1       1.095   1.792  -0.119  0.00  0.00    +0.087 A 
ATOM      3  N   UNL     1      -0.132   1.371  -0.293  0.00  0.00    -0.168 NA
ATOM      4  N   UNL     1      -0.095  -0.014  -0.497  0.00  0.00    -0.215 N 
ATOM      5  C   UNL     1       1.204  -0.408  -0.439  0.00  0.00    +0.070 A 
ATOM      6  C   UNL     1       1.714  -1.817  -0.604  0.00  0.00    +0.068 C 
ATOM      7  C   UNL     1      -1.198  -0.843  -0.722  0.00  0.00    +0.176 A 
ATOM      8  C   UNL     1      -2.458  -0.469  -0.257  0.00  0.00    +0.052 A 
ATOM      9  C   UNL     1      -3.522  -1.318  -0.507  0.00  0.00    +0.034 A 
ATOM     10  C   UNL     1      -3.265  -2.505  -1.201  0.00  0.00    +0.093 A 
ATOM     11  N   UNL     1      -2.030  -2.779  -1.600  0.00  0.00    -0.147 NA
ATOM     12  N   UNL     1      -1.046  -1.987  -1.371  0.00  0.00    -0.129 NA
ATOM     13  C   UNL     1       1.510   3.219   0.132  0.00  0.00    +0.069 C 
ENDROOT
BRANCH  10  14
ATOM     14  C   UNL     1      -4.369  -3.452  -1.490  0.00  0.00    +0.002 A 
ATOM     15  C   UNL     1      -5.665  -3.166  -1.065  0.00  0.00    +0.010 A 
ATOM     16  C   UNL     1      -6.689  -4.050  -1.341  0.00  0.00    +0.001 A 
ATOM     17  C   UNL     1      -6.429  -5.221  -2.029  0.00  0.00    +0.000 A 
ATOM     18  C   UNL     1      -5.143  -5.513  -2.448  0.00  0.00    +0.001 A 
ATOM     19  C   UNL     1      -4.112  -4.634  -2.182  0.00  0.00    +0.010 A 
ENDBRANCH  10  14
BRANCH   1  20
ATOM     20  S   UNL     1       3.709   0.733  -0.041  0.00  0.00    +0.076 S 
ATOM     21  O   UNL     1       4.034   1.992   0.531  0.00  0.00    -0.150 OA
ATOM     22  O   UNL     1       4.089  -0.498   0.560  0.00  0.00    -0.150 OA
BRANCH  20  23
ATOM     23  N   UNL     1       4.345   0.729  -1.570  0.00  0.00    -0.216 N 
ATOM     24  H   UNL     1       4.944  -0.128  -1.915  0.00  0.00    +0.174 HD
BRANCH  23  31
ATOM     25  C   UNL     1       4.000   0.205  -4.345  0.00  0.00    +0.046 C 
ATOM     26  C   UNL     1       3.947   1.603  -3.784  0.00  0.00    -0.028 A 
ATOM     27  C   UNL     1       3.726   2.677  -4.624  0.00  0.00    +0.005 A 
ATOM     28  C   UNL     1       3.677   3.959  -4.110  0.00  0.00    +0.000 A 
ATOM     29  C   UNL     1       3.850   4.172  -2.755  0.00  0.00    +0.002 A 
ATOM     30  C   UNL     1       4.067   3.102  -1.909  0.00  0.00    +0.025 A 
ATOM     31  C   UNL     1       4.121   1.812  -2.422  0.00  0.00    +0.051 A 
ENDBRANCH  23  31
ENDBRANCH  20  23
ENDBRANCH   1  20
TORSDOF 4
