REMARK  Name = ZINC02101032
REMARK  7 active torsions:
REMARK  status: ('A' for Active; 'I' for Inactive)
REMARK    1  A    between atoms: C_1  and  C_2
REMARK    2  A    between atoms: C_5  and  N_8
REMARK    3  A    between atoms: C_9  and  O_33
REMARK    4  A    between atoms: C_10  and  C_17
REMARK    5  A    between atoms: C_24  and  O_25
REMARK    6  A    between atoms: O_25  and  C_26
REMARK    7  A    between atoms: C_32  and  N_55
REMARK                            x       y       z     vdW  Elec       q    Type
REMARK                         _______ _______ _______ _____ _____    ______ ____
ROOT
ATOM      1  N   UNL     1       0.276  -0.386  -0.261  0.00  0.00    -0.260 N 
ATOM      2  C   UNL     1       0.133   0.978  -0.175  0.00  0.00    +0.206 A 
ATOM      3  C   UNL     1       1.241   1.771  -0.198  0.00  0.00    +0.068 A 
ATOM      4  C   UNL     1       2.509   1.171  -0.310  0.00  0.00    +0.258 A 
ATOM      5  O   UNL     1       3.514   1.860  -0.332  0.00  0.00    -0.267 OA
ATOM      6  N   UNL     1       2.604  -0.171  -0.392  0.00  0.00    -0.302 N 
ATOM      7  H   UNL     1       3.477  -0.588  -0.470  0.00  0.00    +0.171 HD
ATOM      8  C   UNL     1       1.498  -0.937  -0.368  0.00  0.00    +0.168 A 
ATOM      9  S   UNL     1       1.649  -2.639  -0.474  0.00  0.00    -0.012 S 
ENDROOT
BRANCH   3  10
ATOM     10  C   UNL     1       1.111   3.269  -0.104  0.00  0.00    +0.007 C 
ATOM     11  C   UNL     1       1.812   3.753   1.138  0.00  0.00    -0.008 A 
ATOM     12  C   UNL     1       2.596   4.887   1.135  0.00  0.00    -0.040 A 
ATOM     13  C   UNL     1       3.221   5.301   2.302  0.00  0.00    +0.053 A 
ATOM     14  C   UNL     1       3.066   4.582   3.475  0.00  0.00    +0.170 A 
ATOM     15  C   UNL     1       2.278   3.435   3.482  0.00  0.00    +0.208 A 
ATOM     16  C   UNL     1       1.654   3.025   2.312  0.00  0.00    +0.167 A 
ATOM     17  O   UNL     1       2.283   2.909   4.742  0.00  0.00    -0.449 OA
ATOM     18  C   UNL     1       3.408   3.514   5.407  0.00  0.00    +0.467 C 
ATOM     19  O   UNL     1       3.565   4.776   4.731  0.00  0.00    -0.452 OA
ATOM     20  C   UNL     1       2.805   5.701  -0.117  0.00  0.00    +0.017 C 
ATOM     21  C   UNL     1       1.741   5.345  -1.155  0.00  0.00    -0.073 C 
ATOM     22  C   UNL     1       0.964   3.492  -2.509  0.00  0.00    -0.095 C 
ATOM     23  N   UNL     1       1.724   3.874  -1.299  0.00  0.00    +0.386 N 
ATOM     24  H   UNL     1       2.689   3.535  -1.389  0.00  0.00    -0.081 HD
BRANCH  16  25
ATOM     25  O   UNL     1       0.883   1.905   2.315  0.00  0.00    -0.491 OA
ATOM     26  C   UNL     1      -0.467   2.047   2.763  0.00  0.00    +0.277 C 
ENDBRANCH  16  25
ENDBRANCH   3  10
BRANCH   1  31
ATOM     27  C   UNL     1      -4.320  -3.714  -0.172  0.00  0.00    +0.044 C 
ATOM     28  C   UNL     1      -3.099  -2.830  -0.195  0.00  0.00    -0.050 A 
ATOM     29  C   UNL     1      -2.240  -2.811   0.887  0.00  0.00    +0.005 A 
ATOM     30  C   UNL     1      -1.120  -2.002   0.869  0.00  0.00    +0.026 A 
ATOM     31  C   UNL     1      -0.859  -1.207  -0.239  0.00  0.00    +0.052 A 
ATOM     32  C   UNL     1      -1.728  -1.223  -1.322  0.00  0.00    +0.026 A 
ATOM     33  C   UNL     1      -2.842  -2.039  -1.300  0.00  0.00    +0.005 A 
ENDBRANCH   1  31
BRANCH   2  34
ATOM     34  O   UNL     1      -1.096   1.528  -0.074  0.00  0.00    -0.493 OA
ATOM     35  H   UNL     1      -1.819   0.890  -0.140  0.00  0.00    +0.294 HD
ENDBRANCH   2  34
TORSDOF 4
