REMARK  Name = ZINC02623707
REMARK  6 active torsions:
REMARK  status: ('A' for Active; 'I' for Inactive)
REMARK    1  A    between atoms: C_1  and  C_2
REMARK    2  A    between atoms: C_7  and  N_8
REMARK    3  A    between atoms: C_9  and  C_26
REMARK    4  A    between atoms: C_12  and  S_13
REMARK    5  A    between atoms: S_13  and  C_14
REMARK    6  A    between atoms: C_14  and  C_15
REMARK                            x       y       z     vdW  Elec       q    Type
REMARK                         _______ _______ _______ _____ _____    ______ ____
ROOT
ATOM      1  N   UNL     1       2.057   0.675  -0.014  0.00  0.00    -0.270 N 
ATOM      2  C   UNL     1       1.242  -0.436  -0.012  0.00  0.00    +0.169 A 
ATOM      3  N   UNL     1       0.002  -0.004   0.002  0.00  0.00    -0.128 NA
ATOM      4  N   UNL     1      -0.015   1.281   0.009  0.00  0.00    -0.122 NA
ATOM      5  C   UNL     1       1.214   1.750  -0.000  0.00  0.00    +0.197 A 
ENDROOT
BRANCH   1  12
ATOM      6  C   UNL     1       3.428   0.694   2.480  0.00  0.00    +0.046 C 
ATOM      7  C   UNL     1       4.166   0.707   1.167  0.00  0.00    -0.026 A 
ATOM      8  C   UNL     1       5.547   0.725   1.149  0.00  0.00    +0.005 A 
ATOM      9  C   UNL     1       6.225   0.743  -0.055  0.00  0.00    +0.000 A 
ATOM     10  C   UNL     1       5.523   0.738  -1.247  0.00  0.00    +0.002 A 
ATOM     11  C   UNL     1       4.142   0.715  -1.236  0.00  0.00    +0.026 A 
ATOM     12  C   UNL     1       3.459   0.697  -0.028  0.00  0.00    +0.053 A 
ENDBRANCH   1  12
BRANCH   2  13
ATOM     13  C   UNL     1       1.680  -1.847  -0.024  0.00  0.00    +0.022 A 
ATOM     14  C   UNL     1       3.006  -2.192   0.266  0.00  0.00    +0.031 A 
ATOM     15  C   UNL     1       3.370  -3.522   0.247  0.00  0.00    +0.111 A 
ATOM     16  N   UNL     1       2.492  -4.461  -0.048  0.00  0.00    -0.263 NA
ATOM     17  C   UNL     1       1.234  -4.180  -0.332  0.00  0.00    +0.111 A 
ATOM     18  C   UNL     1       0.782  -2.877  -0.332  0.00  0.00    +0.031 A 
ENDBRANCH   2  13
BRANCH   5  19
ATOM     19  S   UNL     1       1.684   3.448   0.004  0.00  0.00    -0.076 S 
BRANCH  19  20
ATOM     20  C   UNL     1       0.050   4.227   0.025  0.00  0.00    +0.173 C 
BRANCH  20  21
ATOM     21  C   UNL     1       0.208   5.726   0.032  0.00  0.00    +0.230 C 
ATOM     22  O   UNL     1       1.317   6.219   0.023  0.00  0.00    -0.274 OA
ATOM     23  N   UNL     1      -0.882   6.518   0.047  0.00  0.00    -0.270 N 
ATOM     24  C   UNL     1      -0.855   7.983   0.060  0.00  0.00    +0.118 C 
ATOM     25  C   UNL     1      -2.331   8.413   0.073  0.00  0.00    +0.056 C 
ATOM     26  C   UNL     1      -3.106   7.115   0.073  0.00  0.00    -0.024 A 
ATOM     27  C   UNL     1      -2.204   6.063   0.058  0.00  0.00    +0.040 A 
ATOM     28  C   UNL     1      -2.689   4.754   0.055  0.00  0.00    +0.024 A 
ATOM     29  C   UNL     1      -4.047   4.516   0.067  0.00  0.00    +0.002 A 
ATOM     30  C   UNL     1      -4.939   5.572   0.083  0.00  0.00    +0.000 A 
ATOM     31  C   UNL     1      -4.466   6.872   0.086  0.00  0.00    +0.005 A 
ENDBRANCH  20  21
ENDBRANCH  19  20
ENDBRANCH   5  19
TORSDOF 5
