REMARK  Name = ZINC51161626
REMARK  10 active torsions:
REMARK  status: ('A' for Active; 'I' for Inactive)
REMARK    1  A    between atoms: C_1  and  C_2
REMARK    2  A    between atoms: C_2  and  C_3
REMARK    3  A    between atoms: C_3  and  C_4
REMARK    4  A    between atoms: C_4  and  C_6
REMARK    5  A    between atoms: C_4  and  N_7
REMARK    6  A    between atoms: C_8  and  C_10
REMARK    7  A    between atoms: N_15  and  S_17
REMARK    8  A    between atoms: S_17  and  C_20
REMARK    9  A    between atoms: C_21  and  C_29
REMARK   10  A    between atoms: C_25  and  N_26
REMARK                            x       y       z     vdW  Elec       q    Type
REMARK                         _______ _______ _______ _____ _____    ______ ____
ROOT
ATOM      1  C   UNL     1       2.830  -7.540  -2.422  0.00  0.00    +0.091 C 
ATOM      2  C   UNL     1       2.301  -8.934  -2.769  0.00  0.00    +0.015 C 
ATOM      3  C   UNL     1       2.744  -9.312  -4.184  0.00  0.00    +0.018 C 
ATOM      4  C   UNL     1       4.275  -9.347  -4.244  0.00  0.00    +0.109 C 
ATOM      5  N   UNL     1       4.796  -8.057  -3.772  0.00  0.00    -0.176 NA
ATOM      6  C   UNL     1       4.361  -7.555  -2.462  0.00  0.00    +0.122 C 
ENDROOT
BRANCH   1   8
ATOM      7  N   UNL     1       1.048  -7.079  -0.770  0.00  0.00    -0.312 N 
ATOM      8  C   UNL     1       2.366  -7.155  -1.041  0.00  0.00    +0.218 C 
ATOM      9  O   UNL     1       3.178  -6.915  -0.173  0.00  0.00    -0.275 OA
ATOM     10  H   UNL     1       0.398  -7.271  -1.464  0.00  0.00    +0.149 HD
BRANCH   7  11
ATOM     11  C   UNL     1       0.597  -6.705   0.573  0.00  0.00    +0.070 C 
ATOM     12  C   UNL     1       0.558  -7.949   1.462  0.00  0.00    +0.028 C 
BRANCH  11  13
ATOM     13  C   UNL     1      -0.803  -6.094   0.488  0.00  0.00    +0.022 C 
BRANCH  13  15
ATOM     14  C   UNL     1      -2.141  -4.171  -0.382  0.00  0.00    +0.004 C 
ATOM     15  C   UNL     1      -0.741  -4.782  -0.297  0.00  0.00    -0.002 C 
ENDBRANCH  13  15
ENDBRANCH  11  13
ENDBRANCH   7  11
ENDBRANCH   1   8
BRANCH   5  16
ATOM     16  S   UNL     1       5.854  -7.184  -4.701  0.00  0.00    +0.063 S 
ATOM     17  O   UNL     1       7.041  -7.036  -3.934  0.00  0.00    -0.153 OA
ATOM     18  O   UNL     1       5.849  -7.780  -5.990  0.00  0.00    -0.153 OA
BRANCH  16  19
ATOM     19  C   UNL     1       5.172  -5.570  -4.889  0.00  0.00    +0.138 A 
ATOM     20  C   UNL     1       5.491  -4.575  -3.984  0.00  0.00    -0.022 A 
ATOM     21  C   UNL     1       4.956  -3.309  -4.132  0.00  0.00    +0.005 A 
ATOM     22  C   UNL     1       4.104  -3.038  -5.186  0.00  0.00    +0.003 A 
ATOM     23  C   UNL     1       3.786  -4.032  -6.092  0.00  0.00    +0.035 A 
ATOM     24  C   UNL     1       4.324  -5.298  -5.946  0.00  0.00    +0.153 A 
ATOM     25  C   UNL     1       6.420  -4.871  -2.835  0.00  0.00    +0.046 C 
BRANCH  24  26
ATOM     26  N   UNL     1       3.988  -6.361  -6.919  0.00  0.00    +0.058 N 
ATOM     27  O   UNL     1       3.925  -6.104  -8.098  0.00  0.00    -0.126 OA
ATOM     28  O   UNL     1       3.776  -7.487  -6.534  0.00  0.00    -0.126 OA
ENDBRANCH  24  26
ENDBRANCH  16  19
ENDBRANCH   5  16
TORSDOF 7
