REMARK  Name = ZINC16011998
REMARK  3 active torsions:
REMARK  status: ('A' for Active; 'I' for Inactive)
REMARK    1  A    between atoms: C_4  and  C_7
REMARK    2  A    between atoms: C_7  and  C_8
REMARK    3  A    between atoms: N_16  and  C_19
REMARK                            x       y       z     vdW  Elec       q    Type
REMARK                         _______ _______ _______ _____ _____    ______ ____
ROOT
ATOM      1  C   UNL     1       4.167  -1.304   1.228  0.00  0.00    +0.072 C 
ATOM      2  C   UNL     1       5.563  -1.929   1.434  0.00  0.00    +0.108 C 
ATOM      3  C   UNL     1       6.224  -1.070   2.548  0.00  0.00    +0.123 C 
ATOM      4  C   UNL     1       7.385  -0.412   1.836  0.00  0.00    +0.233 C 
ATOM      5  O   UNL     1       8.180   0.347   2.347  0.00  0.00    -0.274 OA
ATOM      6  N   UNL     1       7.399  -0.799   0.556  0.00  0.00    -0.210 N 
ATOM      7  C   UNL     1       6.415  -1.661   0.214  0.00  0.00    +0.232 C 
ATOM      8  O   UNL     1       6.236  -2.143  -0.884  0.00  0.00    -0.274 OA
ATOM      9  C   UNL     1       5.163  -0.023   2.908  0.00  0.00    +0.136 C 
ATOM     10  N   UNL     1       4.296   0.096   1.712  0.00  0.00    -0.295 NA
ATOM     11  C   UNL     1       4.391  -0.422   4.134  0.00  0.00    +0.003 A 
ATOM     12  C   UNL     1       3.610  -1.511   4.450  0.00  0.00    +0.008 A 
ATOM     13  C   UNL     1       3.014  -1.597   5.696  0.00  0.00    +0.000 A 
ATOM     14  C   UNL     1       3.206  -0.588   6.622  0.00  0.00    +0.002 A 
ATOM     15  C   UNL     1       3.987   0.505   6.309  0.00  0.00    +0.023 A 
ATOM     16  C   UNL     1       4.590   0.600   5.057  0.00  0.00    +0.039 A 
ATOM     17  N   UNL     1       5.411   1.590   4.512  0.00  0.00    -0.283 N 
ATOM     18  C   UNL     1       5.789   1.300   3.253  0.00  0.00    +0.243 C 
ATOM     19  O   UNL     1       6.498   1.974   2.536  0.00  0.00    -0.273 OA
ATOM     20  H   UNL     1       4.715   0.685   1.008  0.00  0.00    +0.124 HD
ATOM     21  H   UNL     1       5.677   2.394   4.986  0.00  0.00    +0.155 HD
ENDROOT
BRANCH   6  22
ATOM     22  C   UNL     1       8.362  -0.352  -0.361  0.00  0.00    +0.044 A 
ATOM     23  C   UNL     1       7.990   0.475  -1.412  0.00  0.00    +0.025 A 
ATOM     24  C   UNL     1       8.940   0.914  -2.313  0.00  0.00    +0.022 A 
ATOM     25  C   UNL     1      10.261   0.529  -2.169  0.00  0.00    +0.041 A 
ATOM     26  C   UNL     1      10.634  -0.296  -1.123  0.00  0.00    +0.022 A 
ATOM     27  C   UNL     1       9.689  -0.732  -0.215  0.00  0.00    +0.025 A 
ATOM     28 CL   UNL     1      11.453   1.083  -3.304  0.00  0.00    -0.084 Cl
ENDBRANCH   6  22
BRANCH   1  29
ATOM     29  C   UNL     1       3.789  -1.322  -0.255  0.00  0.00    +0.054 C 
BRANCH  29  33
ATOM     30  C   UNL     1      -0.176   0.193  -0.736  0.00  0.00    +0.000 A 
ATOM     31  C   UNL     1       0.903   1.055  -0.781  0.00  0.00    +0.000 A 
ATOM     32  C   UNL     1       2.187   0.565  -0.626  0.00  0.00    +0.004 A 
ATOM     33  C   UNL     1       2.390  -0.787  -0.424  0.00  0.00    -0.046 A 
ATOM     34  C   UNL     1       1.311  -1.650  -0.377  0.00  0.00    +0.004 A 
ATOM     35  C   UNL     1       0.028  -1.160  -0.534  0.00  0.00    +0.000 A 
ENDBRANCH  29  33
ENDBRANCH   1  29
TORSDOF 3
