REMARK  Name = ZINC17215843
REMARK  10 active torsions:
REMARK  status: ('A' for Active; 'I' for Inactive)
REMARK    1  A    between atoms: C_1  and  C_2
REMARK    2  A    between atoms: C_4  and  C_19
REMARK    3  A    between atoms: C_6  and  S_9
REMARK    4  A    between atoms: C_7  and  C_8
REMARK    5  A    between atoms: S_9  and  N_12
REMARK    6  A    between atoms: C_15  and  C_18
REMARK    7  A    between atoms: C_19  and  O_21
REMARK    8  A    between atoms: O_21  and  C_22
REMARK    9  A    between atoms: C_22  and  C_23
REMARK   10  A    between atoms: N_25  and  C_26
REMARK                            x       y       z     vdW  Elec       q    Type
REMARK                         _______ _______ _______ _____ _____    ______ ____
ROOT
ATOM      1  C   UNL     1      -1.200   1.200   0.458  0.00  0.00    +0.044 C 
ATOM      2  C   UNL     1       0.223   0.711   0.376  0.00  0.00    -0.045 A 
ATOM      3  C   UNL     1       0.491  -0.641   0.435  0.00  0.00    +0.018 A 
ATOM      4  C   UNL     1       1.809  -1.093   0.353  0.00  0.00    +0.061 A 
ATOM      5  C   UNL     1       2.849  -0.172   0.212  0.00  0.00    +0.043 A 
ATOM      6  C   UNL     1       2.567   1.177   0.155  0.00  0.00    +0.109 A 
ATOM      7  C   UNL     1       1.258   1.618   0.237  0.00  0.00    -0.021 A 
ATOM      8  C   UNL     1       0.958   3.094   0.174  0.00  0.00    +0.046 C 
ENDROOT
BRANCH   6   9
ATOM      9  S   UNL     1       3.878   2.342  -0.022  0.00  0.00    +0.061 S 
ATOM     10  O   UNL     1       5.087   1.596  -0.022  0.00  0.00    -0.153 OA
ATOM     11  O   UNL     1       3.514   3.203  -1.093  0.00  0.00    -0.153 OA
BRANCH   9  12
ATOM     12  N   UNL     1       3.896   3.272   1.348  0.00  0.00    -0.177 NA
ATOM     13  C   UNL     1       3.236   4.585   1.370  0.00  0.00    +0.110 C 
ATOM     14  C   UNL     1       4.239   5.637   1.841  0.00  0.00    +0.020 C 
ATOM     15  C   UNL     1       4.832   5.208   3.185  0.00  0.00    -0.012 C 
ATOM     16  C   UNL     1       5.568   3.877   3.018  0.00  0.00    +0.020 C 
ATOM     17  C   UNL     1       4.576   2.803   2.562  0.00  0.00    +0.110 C 
ATOM     18  C   UNL     1       5.812   6.276   3.674  0.00  0.00    +0.007 C 
ENDBRANCH   9  12
ENDBRANCH   6   9
BRANCH   4  19
ATOM     19  C   UNL     1       2.103  -2.539   0.415  0.00  0.00    +0.340 C 
ATOM     20  O   UNL     1       3.251  -2.930   0.344  0.00  0.00    -0.245 OA
BRANCH  19  21
ATOM     21  O   UNL     1       1.098  -3.426   0.551  0.00  0.00    -0.452 OA
BRANCH  21  22
ATOM     22  C   UNL     1       1.460  -4.831   0.606  0.00  0.00    +0.328 C 
BRANCH  22  23
ATOM     23  C   UNL     1       0.215  -5.666   0.758  0.00  0.00    +0.251 C 
ATOM     24  O   UNL     1      -0.871  -5.129   0.816  0.00  0.00    -0.272 OA
ATOM     25  N   UNL     1       0.308  -7.008   0.831  0.00  0.00    -0.310 N 
ATOM     26  H   UNL     1       1.177  -7.437   0.785  0.00  0.00    +0.149 HD
BRANCH  25  27
ATOM     27  C   UNL     1      -0.902  -7.820   0.980  0.00  0.00    +0.073 C 
ATOM     28  C   UNL     1      -1.251  -7.981   2.474  0.00  0.00    +0.022 C 
ATOM     29  C   UNL     1      -1.784  -9.430   2.586  0.00  0.00    +0.002 C 
ATOM     30  C   UNL     1      -0.866 -10.208   1.610  0.00  0.00    +0.002 C 
ATOM     31  C   UNL     1      -0.658  -9.236   0.430  0.00  0.00    +0.022 C 
ENDBRANCH  25  27
ENDBRANCH  22  23
ENDBRANCH  21  22
ENDBRANCH  19  21
ENDBRANCH   4  19
TORSDOF 7
