REMARK  Name = ZINC09505469
REMARK  9 active torsions:
REMARK  status: ('A' for Active; 'I' for Inactive)
REMARK    1  A    between atoms: C_1  and  N_57
REMARK    2  A    between atoms: C_2  and  N_57
REMARK    3  A    between atoms: C_3  and  C_4
REMARK    4  A    between atoms: C_3  and  N_57
REMARK    5  A    between atoms: C_4  and  C_5
REMARK    6  A    between atoms: C_5  and  N_6
REMARK    7  A    between atoms: C_17  and  C_19
REMARK    8  A    between atoms: N_24  and  S_25
REMARK    9  A    between atoms: S_25  and  C_28
REMARK                            x       y       z     vdW  Elec       q    Type
REMARK                         _______ _______ _______ _____ _____    ______ ____
ROOT
ATOM      1  N   UNL     1      -0.003   0.224   0.367  0.00  0.00    -0.249 N 
ATOM      2  C   UNL     1      -0.054   1.607   0.323  0.00  0.00    +0.168 A 
ATOM      3  N   UNL     1       0.900   2.457   0.023  0.00  0.00    -0.224 NA
ATOM      4  C   UNL     1       0.707   3.794   0.019  0.00  0.00    +0.080 A 
ATOM      5  C   UNL     1       1.643   4.811  -0.283  0.00  0.00    +0.030 A 
ATOM      6  C   UNL     1       1.281   6.131  -0.240  0.00  0.00    +0.022 A 
ATOM      7  C   UNL     1      -0.009   6.519   0.100  0.00  0.00    +0.042 A 
ATOM      8  C   UNL     1      -0.950   5.551   0.402  0.00  0.00    +0.037 A 
ATOM      9  C   UNL     1      -0.595   4.226   0.361  0.00  0.00    +0.042 A 
ATOM     10  S   UNL     1      -1.438   2.689   0.653  0.00  0.00    -0.052 S 
ATOM     11 CL   UNL     1      -0.435   8.201   0.146  0.00  0.00    -0.084 Cl
ATOM     12  C   UNL     1       1.146  -0.418   0.076  0.00  0.00    +0.240 C 
ATOM     13  O   UNL     1       2.108   0.208  -0.316  0.00  0.00    -0.273 OA
ENDROOT
BRANCH  12  14
ATOM     14  C   UNL     1       1.236  -1.914   0.238  0.00  0.00    +0.166 C 
ATOM     15  C   UNL     1       0.743  -2.611  -1.048  0.00  0.00    +0.031 C 
ATOM     16  C   UNL     1       1.718  -3.810  -1.189  0.00  0.00    +0.019 C 
ATOM     17  C   UNL     1       3.042  -3.197  -0.666  0.00  0.00    +0.110 C 
ATOM     18  N   UNL     1       2.637  -2.312   0.440  0.00  0.00    -0.164 NA
BRANCH  18  19
ATOM     19  S   UNL     1       3.600  -1.842   1.702  0.00  0.00    +0.068 S 
ATOM     20  O   UNL     1       4.944  -1.957   1.253  0.00  0.00    -0.152 OA
ATOM     21  O   UNL     1       3.063  -0.621   2.191  0.00  0.00    -0.152 OA
BRANCH  19  22
ATOM     22  C   UNL     1       3.395  -3.032   2.986  0.00  0.00    +0.143 A 
ATOM     23  C   UNL     1       4.087  -4.176   3.207  0.00  0.00    +0.036 A 
ATOM     24  C   UNL     1       3.751  -4.964   4.292  0.00  0.00    +0.010 A 
ATOM     25  C   UNL     1       2.731  -4.574   5.096  0.00  0.00    +0.047 A 
ATOM     26  S   UNL     1       2.217  -3.047   4.327  0.00  0.00    -0.077 S 
ENDBRANCH  19  22
ENDBRANCH  18  19
ENDBRANCH  12  14
BRANCH   1  27
ATOM     27  C   UNL     1      -1.197  -0.542   0.731  0.00  0.00    +0.114 C 
BRANCH  27  28
ATOM     28  C   UNL     1      -2.064  -0.755  -0.512  0.00  0.00    +0.001 C 
BRANCH  28  29
ATOM     29  C   UNL     1      -3.306  -1.565  -0.135  0.00  0.00    -0.078 C 
BRANCH  29  32
ATOM     30  C   UNL     1      -3.452  -2.619  -2.310  0.00  0.00    -0.097 C 
ATOM     31  C   UNL     1      -5.446  -2.333  -0.967  0.00  0.00    -0.097 C 
ATOM     32  N   UNL     1      -4.143  -1.744  -1.340  0.00  0.00    +0.376 N 
ATOM     33  H   UNL     1      -4.304  -0.827  -1.773  0.00  0.00    -0.083 HD
ENDBRANCH  29  32
ENDBRANCH  28  29
ENDBRANCH  27  28
ENDBRANCH   1  27
TORSDOF 7
