REMARK  Name = ZINC42176436
REMARK  6 active torsions:
REMARK  status: ('A' for Active; 'I' for Inactive)
REMARK    1  A    between atoms: C_1  and  C_2
REMARK    2  A    between atoms: C_2  and  C_19
REMARK    3  A    between atoms: N_5  and  C_9
REMARK    4  A    between atoms: C_9  and  C_10
REMARK    5  A    between atoms: C_10  and  C_12
REMARK    6  A    between atoms: C_10  and  O_18
REMARK                            x       y       z     vdW  Elec       q    Type
REMARK                         _______ _______ _______ _____ _____    ______ ____
ROOT
ATOM      1  C   UNL     1      -0.019   1.526   0.010  0.00  0.00    +0.047 C 
ATOM      2  C   UNL     1       0.002  -0.004   0.002  0.00  0.00    +0.138 C 
ATOM      3  C   UNL     1      -1.403  -0.557   0.139  0.00  0.00    +0.251 C 
ATOM      4  O   UNL     1      -2.332  -0.392  -0.621  0.00  0.00    -0.272 OA
ATOM      5  N   UNL     1      -1.403  -1.272   1.282  0.00  0.00    -0.221 N 
ATOM      6  C   UNL     1      -0.206  -1.247   1.879  0.00  0.00    +0.310 C 
ATOM      7  O   UNL     1       0.040  -1.819   2.924  0.00  0.00    -0.252 OA
ATOM      8  N   UNL     1       0.695  -0.520   1.195  0.00  0.00    -0.281 N 
ATOM      9  H   UNL     1       1.621  -0.365   1.440  0.00  0.00    +0.152 HD
ENDROOT
BRANCH   2  10
ATOM     10  C   UNL     1       0.657  -0.517  -1.255  0.00  0.00    +0.020 A 
ATOM     11  C   UNL     1       1.795  -1.298  -1.172  0.00  0.00    +0.012 A 
ATOM     12  C   UNL     1       2.396  -1.769  -2.323  0.00  0.00    +0.039 A 
ATOM     13  C   UNL     1       1.859  -1.459  -3.562  0.00  0.00    +0.126 A 
ATOM     14  C   UNL     1       0.721  -0.678  -3.646  0.00  0.00    +0.077 A 
ATOM     15  C   UNL     1       0.116  -0.211  -2.492  0.00  0.00    +0.132 A 
ATOM     16  F   UNL     1      -0.999   0.548  -2.572  0.00  0.00    -0.205 F 
ATOM     17  F   UNL     1       2.448  -1.919  -4.687  0.00  0.00    -0.205 F 
ENDBRANCH   2  10
BRANCH   5  18
ATOM     18  C   UNL     1      -2.569  -1.986   1.805  0.00  0.00    +0.154 C 
BRANCH  18  19
ATOM     19  C   UNL     1      -2.585  -3.413   1.252  0.00  0.00    +0.162 C 
BRANCH  19  20
ATOM     20  C   UNL     1      -3.785  -4.148   1.790  0.00  0.00    -0.018 A 
ATOM     21  C   UNL     1      -5.007  -4.035   1.154  0.00  0.00    +0.006 A 
ATOM     22  C   UNL     1      -6.108  -4.709   1.648  0.00  0.00    +0.000 A 
ATOM     23  C   UNL     1      -5.987  -5.497   2.778  0.00  0.00    +0.000 A 
ATOM     24  C   UNL     1      -4.764  -5.610   3.413  0.00  0.00    +0.000 A 
ATOM     25  C   UNL     1      -3.662  -4.939   2.917  0.00  0.00    +0.006 A 
ENDBRANCH  19  20
BRANCH  19  26
ATOM     26  O   UNL     1      -2.654  -3.369  -0.175  0.00  0.00    -0.386 OA
ATOM     27  H   UNL     1      -3.440  -2.921  -0.517  0.00  0.00    +0.210 HD
ENDBRANCH  19  26
ENDBRANCH  18  19
ENDBRANCH   5  18
TORSDOF 5
