REMARK  Name = ZINC43221538
REMARK  11 active torsions:
REMARK  status: ('A' for Active; 'I' for Inactive)
REMARK    1  A    between atoms: C_1  and  C_2
REMARK    2  A    between atoms: C_2  and  C_3
REMARK    3  A    between atoms: C_7  and  C_41
REMARK    4  A    between atoms: C_8  and  N_9
REMARK    5  A    between atoms: C_14  and  C_31
REMARK    6  A    between atoms: C_17  and  C_22
REMARK    7  A    between atoms: C_17  and  C_28
REMARK    8  A    between atoms: C_34  and  O_37
REMARK    9  A    between atoms: O_37  and  C_38
REMARK   10  A    between atoms: C_38  and  C_40
REMARK   11  A    between atoms: C_41  and  C_42
REMARK                            x       y       z     vdW  Elec       q    Type
REMARK                         _______ _______ _______ _____ _____    ______ ____
ROOT
ATOM      1  N   UNL     1      -1.295  -0.243   2.449  0.00  0.00    -0.209 N 
ATOM      2  C   UNL     1      -1.844   0.925   2.917  0.00  0.00    +0.229 C 
ATOM      3  O   UNL     1      -1.289   1.991   3.080  0.00  0.00    -0.275 OA
ATOM      4  C   UNL     1      -3.228   0.606   3.170  0.00  0.00    +0.078 C 
ATOM      5  C   UNL     1      -4.536   1.264   3.328  0.00  0.00    -0.026 C 
ATOM      6  N   UNL     1      -5.480   0.094   3.320  0.00  0.00    +0.398 N 
ATOM      7  C   UNL     1      -4.801  -1.036   2.619  0.00  0.00    +0.074 C 
ATOM      8  C   UNL     1      -3.536  -0.417   2.006  0.00  0.00    +0.090 C 
ATOM      9  C   UNL     1      -2.239  -1.170   2.109  0.00  0.00    +0.229 C 
ATOM     10  O   UNL     1      -2.067  -2.357   1.929  0.00  0.00    -0.275 OA
ATOM     11  H   UNL     1      -5.700  -0.174   4.268  0.00  0.00    -0.083 HD
ATOM     12  H   UNL     1      -6.326   0.341   2.829  0.00  0.00    -0.083 HD
ENDROOT
BRANCH   1  18
ATOM     13  C   UNL     1       0.741  -0.126   1.152  0.00  0.00    -0.026 A 
ATOM     14  C   UNL     1       2.101  -0.335   1.038  0.00  0.00    +0.005 A 
ATOM     15  C   UNL     1       2.809  -0.880   2.094  0.00  0.00    +0.001 A 
ATOM     16  C   UNL     1       2.158  -1.217   3.266  0.00  0.00    +0.005 A 
ATOM     17  C   UNL     1       0.797  -1.010   3.385  0.00  0.00    -0.026 A 
ATOM     18  C   UNL     1       0.085  -0.459   2.329  0.00  0.00    +0.050 A 
BRANCH  13  20
ATOM     19  C   UNL     1      -0.145   1.982   0.191  0.00  0.00    +0.009 C 
ATOM     20  C   UNL     1      -0.030   0.468   0.001  0.00  0.00    +0.033 C 
ENDBRANCH  13  20
BRANCH  17  21
ATOM     21  C   UNL     1       0.088  -1.378   4.663  0.00  0.00    +0.033 C 
ATOM     22  C   UNL     1      -0.507  -2.781   4.530  0.00  0.00    +0.009 C 
ENDBRANCH  17  21
ENDBRANCH   1  18
BRANCH   7  23
ATOM     23  C   UNL     1      -4.455  -2.126   3.600  0.00  0.00    -0.047 A 
ATOM     24  C   UNL     1      -4.409  -3.443   3.182  0.00  0.00    +0.003 A 
ATOM     25  C   UNL     1      -4.091  -4.443   4.082  0.00  0.00    +0.000 A 
ATOM     26  C   UNL     1      -3.819  -4.126   5.400  0.00  0.00    +0.000 A 
ATOM     27  C   UNL     1      -3.864  -2.809   5.817  0.00  0.00    +0.000 A 
ATOM     28  C   UNL     1      -4.177  -1.809   4.916  0.00  0.00    +0.003 A 
ENDBRANCH   7  23
BRANCH   5  29
ATOM     29  C   UNL     1      -4.610   2.007   4.638  0.00  0.00    -0.060 A 
ATOM     30  C   UNL     1      -5.037   1.353   5.779  0.00  0.00    +0.005 A 
ATOM     31  C   UNL     1      -5.106   2.031   6.980  0.00  0.00    +0.046 A 
ATOM     32  C   UNL     1      -4.746   3.370   7.041  0.00  0.00    +0.132 A 
ATOM     33  C   UNL     1      -4.318   4.024   5.895  0.00  0.00    +0.046 A 
ATOM     34  C   UNL     1      -4.246   3.339   4.697  0.00  0.00    +0.005 A 
BRANCH  32  35
ATOM     35  O   UNL     1      -4.814   4.040   8.222  0.00  0.00    -0.426 OA
BRANCH  35  36
ATOM     36  C   UNL     1      -3.849   3.818   9.129  0.00  0.00    +0.309 C 
ATOM     37  O   UNL     1      -3.006   2.978   8.920  0.00  0.00    -0.251 OA
ATOM     38  C   UNL     1      -3.817   4.617  10.406  0.00  0.00    +0.136 C 
ENDBRANCH  35  36
ENDBRANCH  32  35
ENDBRANCH   5  29
BRANCH   7  39
ATOM     39  C   UNL     1      -5.685  -1.578   1.525  0.00  0.00    +0.350 C 
ATOM     40  O   UNL     1      -6.793  -1.104   1.346  0.00  0.00    -0.248 OA
ATOM     41  O   UNL     1      -5.291  -2.491   0.820  0.00  0.00    -0.248 OA
ENDBRANCH   7  39
TORSDOF 8
