REMARK  Name = ZINC67292192
REMARK  4 active torsions:
REMARK  status: ('A' for Active; 'I' for Inactive)
REMARK    1  A    between atoms: C_4  and  N_7
REMARK    2  A    between atoms: C_9  and  C_19
REMARK    3  A    between atoms: N_21  and  C_22
REMARK    4  A    between atoms: C_22  and  C_23
REMARK                            x       y       z     vdW  Elec       q    Type
REMARK                         _______ _______ _______ _____ _____    ______ ____
ROOT
ATOM      1  N   UNL     1       3.605  -0.624  -0.034  0.00  0.00    -0.325 N 
ATOM      2  C   UNL     1       3.795  -1.652   0.763  0.00  0.00    +0.212 A 
ATOM      3  C   UNL     1       5.034  -2.453   0.691  0.00  0.00    +0.097 A 
ATOM      4  C   UNL     1       5.431  -3.108   1.849  0.00  0.00    +0.030 A 
ATOM      5  C   UNL     1       4.588  -2.949   3.036  0.00  0.00    +0.019 A 
ATOM      6  C   UNL     1       5.045  -3.346   4.298  0.00  0.00    +0.026 A 
ATOM      7  C   UNL     1       4.234  -3.182   5.399  0.00  0.00    +0.019 A 
ATOM      8  C   UNL     1       2.970  -2.624   5.262  0.00  0.00    +0.019 A 
ATOM      9  C   UNL     1       2.505  -2.229   4.024  0.00  0.00    +0.048 A 
ATOM     10  C   UNL     1       3.304  -2.387   2.901  0.00  0.00    +0.137 A 
ATOM     11  O   UNL     1       2.860  -2.007   1.682  0.00  0.00    -0.439 OA
ATOM     12 BR   UNL     1       4.845  -3.718   7.106  0.00  0.00    -0.050 Br
ATOM     13  H   UNL     1       4.317  -0.330  -0.624  0.00  0.00    +0.169 HD
ENDROOT
BRANCH   1  17
ATOM     14  C   UNL     1      -0.028   1.356  -0.030  0.00  0.00    +0.000 A 
ATOM     15  C   UNL     1       1.151   2.080  -0.020  0.00  0.00    +0.002 A 
ATOM     16  C   UNL     1       2.366   1.427  -0.021  0.00  0.00    +0.026 A 
ATOM     17  C   UNL     1       2.405   0.030  -0.032  0.00  0.00    +0.042 A 
ATOM     18  C   UNL     1       1.210  -0.694  -0.042  0.00  0.00    +0.026 A 
ATOM     19  C   UNL     1       0.003  -0.028  -0.041  0.00  0.00    +0.002 A 
ENDBRANCH   1  17
BRANCH   3  20
ATOM     20  C   UNL     1       5.814  -2.551  -0.554  0.00  0.00    +0.249 C 
ATOM     21  O   UNL     1       5.491  -1.897  -1.527  0.00  0.00    -0.270 OA
ATOM     22  N   UNL     1       6.885  -3.366  -0.615  0.00  0.00    -0.309 N 
ATOM     23  H   UNL     1       7.099  -3.943   0.134  0.00  0.00    +0.149 HD
BRANCH  22  24
ATOM     24  C   UNL     1       7.727  -3.381  -1.815  0.00  0.00    +0.136 C 
BRANCH  24  25
ATOM     25  C   UNL     1       8.866  -4.385  -1.626  0.00  0.00    +0.135 C 
ATOM     26  C   UNL     1       9.789  -4.390  -2.870  0.00  0.00    +0.035 C 
ATOM     27  C   UNL     1      11.117  -4.904  -2.250  0.00  0.00    +0.031 C 
ATOM     28  C   UNL     1      11.076  -4.291  -0.834  0.00  0.00    +0.160 C 
ATOM     29  O   UNL     1       9.708  -3.984  -0.533  0.00  0.00    -0.375 OA
ENDBRANCH  24  25
ENDBRANCH  22  24
ENDBRANCH   3  20
TORSDOF 4
