REMARK  Name = ZINC45673208
REMARK  9 active torsions:
REMARK  status: ('A' for Active; 'I' for Inactive)
REMARK    1  A    between atoms: C_1  and  C_2
REMARK    2  A    between atoms: C_2  and  C_3
REMARK    3  A    between atoms: C_2  and  C_4
REMARK    4  A    between atoms: C_4  and  C_6
REMARK    5  A    between atoms: C_4  and  N_16
REMARK    6  A    between atoms: C_17  and  C_19
REMARK    7  A    between atoms: C_19  and  C_20
REMARK    8  A    between atoms: C_20  and  N_21
REMARK    9  A    between atoms: C_22  and  C_24
REMARK                            x       y       z     vdW  Elec       q    Type
REMARK                         _______ _______ _______ _____ _____    ______ ____
ROOT
ATOM      1  N   UNL     1      -1.413  -1.998   0.005  0.00  0.00    -0.305 N 
ATOM      2  C   UNL     1      -1.314  -2.665  -1.163  0.00  0.00    +0.215 C 
ATOM      3  O   UNL     1      -1.240  -2.051  -2.206  0.00  0.00    -0.276 OA
ATOM      4  H   UNL     1      -1.472  -2.489   0.840  0.00  0.00    +0.149 HD
ENDROOT
BRANCH   1   5
ATOM      5  C   UNL     1      -1.433  -0.534   0.013  0.00  0.00    +0.141 C 
BRANCH   5   6
ATOM      6  C   UNL     1      -2.139  -0.048   1.253  0.00  0.00    +0.129 A 
ATOM      7  N   UNL     1      -3.315   0.636   1.263  0.00  0.00    -0.340 N 
ATOM      8  H   UNL     1      -3.838   0.891   0.487  0.00  0.00    +0.167 HD
ATOM      9  C   UNL     1      -3.626   0.898   2.582  0.00  0.00    +0.066 A 
ATOM     10  C   UNL     1      -4.676   1.547   3.217  0.00  0.00    +0.028 A 
ATOM     11  C   UNL     1      -4.690   1.639   4.593  0.00  0.00    +0.002 A 
ATOM     12  C   UNL     1      -3.662   1.089   5.345  0.00  0.00    +0.002 A 
ATOM     13  C   UNL     1      -2.620   0.447   4.737  0.00  0.00    +0.030 A 
ATOM     14  C   UNL     1      -2.585   0.341   3.344  0.00  0.00    +0.089 A 
ATOM     15  N   UNL     1      -1.714  -0.226   2.470  0.00  0.00    -0.231 NA
ENDBRANCH   5   6
BRANCH   5  17
ATOM     16  C   UNL     1      -0.019   1.526   0.010  0.00  0.00    +0.009 C 
ATOM     17  C   UNL     1       0.002  -0.004   0.002  0.00  0.00    +0.011 C 
ATOM     18  C   UNL     1       0.742  -0.511   1.242  0.00  0.00    +0.009 C 
ENDBRANCH   5  17
ENDBRANCH   1   5
BRANCH   2  19
ATOM     19  C   UNL     1      -1.293  -4.171  -1.171  0.00  0.00    +0.114 C 
BRANCH  19  20
ATOM     20  C   UNL     1      -1.174  -4.672  -2.612  0.00  0.00    +0.113 C 
BRANCH  20  21
ATOM     21  N   UNL     1      -1.155  -6.137  -2.620  0.00  0.00    -0.311 N 
ATOM     22  C   UNL     1      -1.055  -6.803  -3.787  0.00  0.00    +0.244 C 
ATOM     23  O   UNL     1      -0.981  -6.188  -4.833  0.00  0.00    -0.270 OA
ATOM     24  H   UNL     1      -1.213  -6.627  -1.785  0.00  0.00    +0.149 HD
BRANCH  22  25
ATOM     25  C   UNL     1      -1.035  -8.281  -3.795  0.00  0.00    +0.037 A 
ATOM     26  C   UNL     1      -1.125  -8.989  -2.596  0.00  0.00    +0.014 A 
ATOM     27  C   UNL     1      -1.106 -10.368  -2.610  0.00  0.00    +0.021 A 
ATOM     28  C   UNL     1      -0.998 -11.050  -3.811  0.00  0.00    +0.041 A 
ATOM     29  C   UNL     1      -0.908 -10.352  -5.004  0.00  0.00    +0.021 A 
ATOM     30  C   UNL     1      -0.931  -8.974  -5.003  0.00  0.00    +0.014 A 
ATOM     31 CL   UNL     1      -0.974 -12.786  -3.820  0.00  0.00    -0.084 Cl
ENDBRANCH  22  25
ENDBRANCH  20  21
ENDBRANCH  19  20
ENDBRANCH   2  19
TORSDOF 7
