REMARK  Name = ZINC14625617
REMARK  6 active torsions:
REMARK  status: ('A' for Active; 'I' for Inactive)
REMARK    1  A    between atoms: C_4  and  C_7
REMARK    2  A    between atoms: N_11  and  C_15
REMARK    3  A    between atoms: C_15  and  C_16
REMARK    4  A    between atoms: C_16  and  N_17
REMARK    5  A    between atoms: C_18  and  C_20
REMARK    6  A    between atoms: C_20  and  N_21
REMARK                            x       y       z     vdW  Elec       q    Type
REMARK                         _______ _______ _______ _____ _____    ______ ____
ROOT
ATOM      1  N   UNL     1      -5.112   0.226   1.177  0.00  0.00    -0.312 N 
ATOM      2  C   UNL     1      -3.845   0.476   0.789  0.00  0.00    +0.231 C 
ATOM      3  O   UNL     1      -2.959   0.536   1.615  0.00  0.00    -0.274 OA
ATOM      4  H   UNL     1      -5.820   0.178   0.516  0.00  0.00    +0.149 HD
ENDROOT
BRANCH   1   5
ATOM      5  C   UNL     1      -5.418   0.026   2.595  0.00  0.00    +0.123 C 
BRANCH   5   6
ATOM      6  C   UNL     1      -6.915  -0.240   2.762  0.00  0.00    +0.136 C 
BRANCH   6  11
ATOM      7  C   UNL     1      -8.194   1.195   7.335  0.00  0.00    +0.028 C 
ATOM      8  C   UNL     1      -7.841   0.335   6.348  0.00  0.00    +0.080 C 
ATOM      9  C   UNL     1      -7.544   0.605   4.925  0.00  0.00    +0.260 C 
ATOM     10  O   UNL     1      -7.594   1.729   4.463  0.00  0.00    -0.269 OA
ATOM     11  N   UNL     1      -7.221  -0.440   4.180  0.00  0.00    -0.227 N 
ATOM     12  C   UNL     1      -7.173  -1.685   4.695  0.00  0.00    +0.286 C 
ATOM     13  O   UNL     1      -6.899  -2.726   4.130  0.00  0.00    -0.262 OA
ATOM     14  S   UNL     1      -7.606  -1.436   6.410  0.00  0.00    -0.026 S 
BRANCH   7  18
ATOM     15  C   UNL     1      -9.383  -0.296  11.122  0.00  0.00    +0.000 A 
ATOM     16  C   UNL     1      -9.188   1.063  10.948  0.00  0.00    +0.001 A 
ATOM     17  C   UNL     1      -8.801   1.556   9.720  0.00  0.00    +0.008 A 
ATOM     18  C   UNL     1      -8.606   0.678   8.648  0.00  0.00    -0.024 A 
ATOM     19  C   UNL     1      -8.811  -0.694   8.831  0.00  0.00    +0.008 A 
ATOM     20  C   UNL     1      -9.193  -1.171  10.067  0.00  0.00    +0.001 A 
ENDBRANCH   7  18
ENDBRANCH   6  11
ENDBRANCH   5   6
ENDBRANCH   1   5
BRANCH   2  21
ATOM     21  C   UNL     1      -3.530   0.682  -0.670  0.00  0.00    +0.213 C 
BRANCH  21  22
ATOM     22  N   UNL     1      -2.096   0.936  -0.829  0.00  0.00    -0.215 N 
ATOM     23  C   UNL     1      -1.534   2.164  -0.791  0.00  0.00    +0.251 C 
ATOM     24  O   UNL     1      -2.095   3.226  -0.626  0.00  0.00    -0.272 OA
ATOM     25  C   UNL     1      -0.061   1.932  -1.004  0.00  0.00    +0.138 C 
ATOM     26  C   UNL     1       0.442   2.663  -2.256  0.00  0.00    +0.045 C 
ATOM     27  C   UNL     1       1.889   3.031  -1.859  0.00  0.00    +0.038 C 
ATOM     28  C   UNL     1       1.882   3.096  -0.345  0.00  0.00    -0.042 A 
ATOM     29  C   UNL     1       0.756   2.455   0.146  0.00  0.00    -0.012 A 
ATOM     30  C   UNL     1       0.547   2.388   1.513  0.00  0.00    +0.006 A 
ATOM     31  C   UNL     1       1.454   2.956   2.386  0.00  0.00    +0.000 A 
ATOM     32  C   UNL     1       2.576   3.596   1.895  0.00  0.00    +0.000 A 
ATOM     33  C   UNL     1       2.788   3.666   0.532  0.00  0.00    +0.004 A 
ATOM     34  N   UNL     1       0.067   0.481  -1.146  0.00  0.00    -0.281 N 
ATOM     35  C   UNL     1      -1.179  -0.020  -1.026  0.00  0.00    +0.310 C 
ATOM     36  O   UNL     1      -1.441  -1.204  -1.093  0.00  0.00    -0.252 OA
ATOM     37  H   UNL     1       0.884  -0.020  -1.296  0.00  0.00    +0.152 HD
ENDBRANCH  21  22
ENDBRANCH   2  21
TORSDOF 6
