REMARK  Name = ZINC66834300
REMARK  8 active torsions:
REMARK  status: ('A' for Active; 'I' for Inactive)
REMARK    1  A    between atoms: C_1  and  C_2
REMARK    2  A    between atoms: C_2  and  C_4
REMARK    3  A    between atoms: C_2  and  N_18
REMARK    4  A    between atoms: N_6  and  C_7
REMARK    5  A    between atoms: C_8  and  C_15
REMARK    6  A    between atoms: C_22  and  C_25
REMARK    7  A    between atoms: C_25  and  O_27
REMARK    8  A    between atoms: O_27  and  C_28
REMARK                            x       y       z     vdW  Elec       q    Type
REMARK                         _______ _______ _______ _____ _____    ______ ____
ROOT
ATOM      1  C   UNL     1      -1.363  -0.634   0.107  0.00  0.00    +0.204 C 
ATOM      2  O   UNL     1      -1.596  -1.434   0.988  0.00  0.00    -0.277 OA
ATOM      3  N   UNL     1      -2.325  -0.308  -0.779  0.00  0.00    -0.281 N 
ATOM      4  H   UNL     1      -2.139   0.332  -1.484  0.00  0.00    +0.155 HD
ENDROOT
BRANCH   3   5
ATOM      5  C   UNL     1      -3.581  -0.888  -0.683  0.00  0.00    +0.084 A 
ATOM      6  C   UNL     1      -4.678  -0.680  -1.498  0.00  0.00    +0.068 A 
ATOM      7  C   UNL     1      -5.898  -1.421  -1.182  0.00  0.00    -0.023 A 
ATOM      8  C   UNL     1      -5.788  -2.227  -0.110  0.00  0.00    -0.004 A 
ATOM      9  S   UNL     1      -4.117  -2.008   0.445  0.00  0.00    -0.077 S 
ATOM     10  C   UNL     1      -7.071  -2.961   0.173  0.00  0.00    +0.043 C 
ATOM     11  C   UNL     1      -8.148  -2.185  -0.617  0.00  0.00    +0.010 C 
ATOM     12  C   UNL     1      -7.312  -1.546  -1.745  0.00  0.00    +0.037 C 
BRANCH   6  13
ATOM     13  C   UNL     1      -4.620   0.246  -2.634  0.00  0.00    +0.244 C 
ATOM     14  O   UNL     1      -4.281  -0.157  -3.731  0.00  0.00    -0.270 OA
ATOM     15  N   UNL     1      -4.944   1.543  -2.462  0.00  0.00    -0.325 N 
ATOM     16  H   UNL     1      -5.214   1.864  -1.588  0.00  0.00    +0.145 HD
ATOM     17  H   UNL     1      -4.905   2.156  -3.214  0.00  0.00    +0.145 HD
ENDBRANCH   6  13
ENDBRANCH   3   5
BRANCH   1  19
ATOM     18  C   UNL     1       0.014   1.319   0.771  0.00  0.00    -0.004 C 
ATOM     19  C   UNL     1       0.002  -0.004   0.002  0.00  0.00    +0.016 C 
BRANCH  19  20
ATOM     20  N   UNL     1       1.005  -0.912   0.574  0.00  0.00    +0.388 N 
ATOM     21  C   UNL     1       2.328  -0.278   0.513  0.00  0.00    -0.078 C 
ATOM     22  C   UNL     1       3.364  -1.185   1.181  0.00  0.00    -0.018 C 
ATOM     23  C   UNL     1       3.405  -2.529   0.448  0.00  0.00    +0.011 C 
ATOM     24  C   UNL     1       2.004  -3.146   0.454  0.00  0.00    +0.081 C 
ATOM     25  C   UNL     1       1.018  -2.167  -0.187  0.00  0.00    -0.063 C 
ATOM     26  H   UNL     1       0.772  -1.106   1.537  0.00  0.00    -0.081 HD
BRANCH  24  27
ATOM     27  C   UNL     1       2.018  -4.433  -0.330  0.00  0.00    +0.308 C 
ATOM     28  O   UNL     1       1.309  -4.557  -1.300  0.00  0.00    -0.251 OA
BRANCH  27  29
ATOM     29  O   UNL     1       2.817  -5.442   0.050  0.00  0.00    -0.468 OA
ATOM     30  C   UNL     1       2.779  -6.633  -0.739  0.00  0.00    +0.280 C 
ENDBRANCH  27  29
ENDBRANCH  24  27
ENDBRANCH  19  20
ENDBRANCH   1  19
TORSDOF 6
