REMARK  Name = ZINC36848852
REMARK  14 active torsions:
REMARK  status: ('A' for Active; 'I' for Inactive)
REMARK    1  A    between atoms: C_1  and  C_2
REMARK    2  A    between atoms: C_5  and  C_9
REMARK    3  A    between atoms: C_7  and  C_8
REMARK    4  A    between atoms: C_9  and  C_11
REMARK    5  A    between atoms: C_9  and  N_12
REMARK    6  A    between atoms: C_13  and  C_15
REMARK    7  A    between atoms: C_15  and  S_16
REMARK    8  A    between atoms: S_16  and  C_17
REMARK    9  A    between atoms: C_20  and  C_29
REMARK   10  A    between atoms: N_21  and  C_22
REMARK   11  A    between atoms: C_29  and  C_31
REMARK   12  A    between atoms: C_29  and  N_32
REMARK   13  A    between atoms: N_32  and  C_33
REMARK   14  A    between atoms: N_32  and  C_34
REMARK                            x       y       z     vdW  Elec       q    Type
REMARK                         _______ _______ _______ _____ _____    ______ ____
ROOT
ATOM      1  C   UNL     1      -3.891  -8.627  -2.997  0.00  0.00    +0.197 A 
ATOM      2  N   UNL     1      -4.166  -7.891  -4.049  0.00  0.00    -0.122 NA
ATOM      3  N   UNL     1      -4.960  -8.528  -4.833  0.00  0.00    -0.135 NA
ATOM      4  C   UNL     1      -5.239  -9.700  -4.335  0.00  0.00    +0.125 A 
ATOM      5  N   UNL     1      -4.563  -9.809  -3.149  0.00  0.00    -0.275 N 
ENDROOT
BRANCH   5   6
ATOM      6  C   UNL     1      -4.562 -10.903  -2.271  0.00  0.00    +0.050 A 
ATOM      7  C   UNL     1      -4.012 -12.114  -2.670  0.00  0.00    +0.028 A 
ATOM      8  C   UNL     1      -4.012 -13.190  -1.804  0.00  0.00    +0.022 A 
ATOM      9  C   UNL     1      -4.560 -13.062  -0.539  0.00  0.00    +0.041 A 
ATOM     10  C   UNL     1      -5.109 -11.856  -0.140  0.00  0.00    +0.022 A 
ATOM     11  C   UNL     1      -5.106 -10.775  -1.000  0.00  0.00    +0.028 A 
ATOM     12 CL   UNL     1      -4.559 -14.416   0.547  0.00  0.00    -0.084 Cl
ENDBRANCH   5   6
BRANCH   4  13
ATOM     13  C   UNL     1      -6.133 -10.743  -4.952  0.00  0.00    -0.003 C 
ATOM     14  C   UNL     1      -7.596 -10.326  -4.784  0.00  0.00    -0.005 C 
BRANCH  13  15
ATOM     15  N   UNL     1      -5.822 -10.871  -6.382  0.00  0.00    +0.382 N 
ATOM     16  C   UNL     1      -4.418 -11.273  -6.544  0.00  0.00    -0.096 C 
ATOM     17  C   UNL     1      -6.694 -11.889  -6.984  0.00  0.00    -0.096 C 
ATOM     18  H   UNL     1      -5.973  -9.985  -6.840  0.00  0.00    -0.082 HD
ENDBRANCH  13  15
ENDBRANCH   4  13
BRANCH   1  19
ATOM     19  S   UNL     1      -2.848  -8.180  -1.649  0.00  0.00    -0.076 S 
BRANCH  19  20
ATOM     20  C   UNL     1      -2.284  -6.507  -2.067  0.00  0.00    +0.173 C 
BRANCH  20  22
ATOM     21  N   UNL     1      -0.828  -4.769  -1.077  0.00  0.00    -0.308 N 
ATOM     22  C   UNL     1      -1.371  -5.999  -0.981  0.00  0.00    +0.224 C 
ATOM     23  O   UNL     1      -1.125  -6.697  -0.019  0.00  0.00    -0.275 OA
ATOM     24  H   UNL     1      -1.024  -4.212  -1.846  0.00  0.00    +0.149 HD
BRANCH  21  25
ATOM     25  C   UNL     1       0.059  -4.275  -0.021  0.00  0.00    +0.100 C 
ATOM     26  C   UNL     1       1.485  -4.766  -0.282  0.00  0.00    +0.033 C 
BRANCH  25  31
ATOM     27  C   UNL     1      -0.018   1.503   0.010  0.00  0.00    +0.044 C 
ATOM     28  C   UNL     1       0.002  -0.004   0.002  0.00  0.00    -0.048 A 
ATOM     29  C   UNL     1       0.006  -0.689  -1.199  0.00  0.00    +0.004 A 
ATOM     30  C   UNL     1       0.025  -2.071  -1.207  0.00  0.00    +0.006 A 
ATOM     31  C   UNL     1       0.040  -2.768  -0.013  0.00  0.00    -0.027 A 
ATOM     32  C   UNL     1       0.037  -2.084   1.188  0.00  0.00    +0.009 A 
ATOM     33  C   UNL     1       0.023  -0.702   1.195  0.00  0.00    -0.047 A 
ATOM     34  C   UNL     1       0.025   0.045   2.504  0.00  0.00    +0.044 C 
ENDBRANCH  25  31
ENDBRANCH  21  25
ENDBRANCH  20  22
ENDBRANCH  19  20
ENDBRANCH   1  19
TORSDOF 8
