REMARK  Name = ZINC43548586
REMARK  11 active torsions:
REMARK  status: ('A' for Active; 'I' for Inactive)
REMARK    1  A    between atoms: C_1  and  C_2
REMARK    2  A    between atoms: C_2  and  C_3
REMARK    3  A    between atoms: C_3  and  C_4
REMARK    4  A    between atoms: C_4  and  N_5
REMARK    5  A    between atoms: C_12  and  C_34
REMARK    6  A    between atoms: C_15  and  C_25
REMARK    7  A    between atoms: C_17  and  O_24
REMARK    8  A    between atoms: C_21  and  C_23
REMARK    9  A    between atoms: C_25  and  C_27
REMARK   10  A    between atoms: C_25  and  C_28
REMARK   11  A    between atoms: N_30  and  C_31
REMARK                            x       y       z     vdW  Elec       q    Type
REMARK                         _______ _______ _______ _____ _____    ______ ____
ROOT
ATOM      1  N   UNL     1       1.360  -2.468   3.207  0.00  0.00    -0.325 N 
ATOM      2  C   UNL     1       1.532  -3.842   3.273  0.00  0.00    +0.136 A 
ATOM      3  N   UNL     1       2.390  -4.524   4.000  0.00  0.00    -0.340 N 
ATOM      4  C   UNL     1       2.443  -5.854   3.962  0.00  0.00    +0.031 A 
ATOM      5  C   UNL     1       1.551  -6.436   3.123  0.00  0.00    +0.013 A 
ATOM      6  S   UNL     1       0.690  -5.045   2.446  0.00  0.00    -0.059 S 
ATOM      7  C   UNL     1       1.365  -7.892   2.863  0.00  0.00    +0.051 C 
ATOM      8  C   UNL     1       2.570  -8.650   3.428  0.00  0.00    -0.022 C 
ATOM      9  C   UNL     1       3.793  -8.456   2.534  0.00  0.00    +0.008 C 
ATOM     10  C   UNL     1       4.954  -9.286   3.090  0.00  0.00    +0.007 C 
ATOM     11  C   UNL     1       5.263  -8.851   4.523  0.00  0.00    +0.029 C 
ATOM     12  C   UNL     1       4.022  -9.024   5.402  0.00  0.00    +0.123 C 
ATOM     13  C   UNL     1       2.894  -8.143   4.838  0.00  0.00    +0.033 C 
ATOM     14  C   UNL     1       3.412  -6.702   4.772  0.00  0.00    +0.039 C 
ATOM     15  C   UNL     1       3.524  -6.134   6.189  0.00  0.00    +0.014 C 
ATOM     16  C   UNL     1       2.242 -10.143   3.491  0.00  0.00    +0.012 C 
ATOM     17  H   UNL     1       1.919  -1.883   3.742  0.00  0.00    +0.148 HD
ATOM     18  H   UNL     1       3.001  -4.045   4.582  0.00  0.00    +0.167 HD
ENDROOT
BRANCH  12  19
ATOM     19  O   UNL     1       3.615 -10.393   5.394  0.00  0.00    -0.391 OA
ATOM     20  H   UNL     1       4.286 -11.005   5.727  0.00  0.00    +0.210 HD
ENDBRANCH  12  19
BRANCH  11  21
ATOM     21  C   UNL     1       6.400  -9.710   5.080  0.00  0.00    +0.077 C 
ATOM     22  C   UNL     1       6.712  -9.276   6.514  0.00  0.00    +0.017 C 
BRANCH  21  23
ATOM     23  C   UNL     1       7.628  -9.534   4.224  0.00  0.00    +0.216 C 
ATOM     24  O   UNL     1       7.597  -8.794   3.263  0.00  0.00    -0.276 OA
ATOM     25  N   UNL     1       8.761 -10.198   4.526  0.00  0.00    -0.312 N 
ATOM     26  H   UNL     1       8.786 -10.790   5.295  0.00  0.00    +0.149 HD
BRANCH  25  27
ATOM     27  C   UNL     1       9.955 -10.027   3.694  0.00  0.00    +0.073 C 
ATOM     28  C   UNL     1      10.748 -11.284   3.329  0.00  0.00    +0.024 C 
ATOM     29  C   UNL     1      11.314 -10.290   4.346  0.00  0.00    +0.024 C 
ENDBRANCH  25  27
ENDBRANCH  21  23
ENDBRANCH  11  21
BRANCH   1  30
ATOM     30  C   UNL     1       0.334  -1.900   2.329  0.00  0.00    +0.103 C 
BRANCH  30  31
ATOM     31  C   UNL     1       0.353  -0.375   2.443  0.00  0.00    +0.018 C 
BRANCH  31  33
ATOM     32  C   UNL     1      -0.700   1.744   1.640  0.00  0.00    +0.004 C 
ATOM     33  C   UNL     1      -0.719   0.218   1.526  0.00  0.00    -0.002 C 
ENDBRANCH  31  33
ENDBRANCH  30  31
ENDBRANCH   1  30
TORSDOF 7
