REMARK  Name = ZINC14989484
REMARK  12 active torsions:
REMARK  status: ('A' for Active; 'I' for Inactive)
REMARK    1  A    between atoms: C_1  and  C_2
REMARK    2  A    between atoms: C_2  and  C_3
REMARK    3  A    between atoms: C_2  and  C_4
REMARK    4  A    between atoms: C_4  and  N_5
REMARK    5  A    between atoms: C_6  and  C_8
REMARK    6  A    between atoms: C_12  and  C_17
REMARK    7  A    between atoms: C_17  and  O_32
REMARK    8  A    between atoms: C_22  and  C_23
REMARK    9  A    between atoms: C_22  and  N_65
REMARK   10  A    between atoms: C_26  and  O_31
REMARK   11  A    between atoms: C_27  and  O_29
REMARK   12  A    between atoms: O_29  and  C_30
REMARK                            x       y       z     vdW  Elec       q    Type
REMARK                         _______ _______ _______ _____ _____    ______ ____
ROOT
ATOM      1  C   UNL     1      -0.018   1.503   0.010  0.00  0.00    +0.088 C 
ATOM      2  C   UNL     1      -0.738   1.998   1.268  0.00  0.00    +0.021 C 
ATOM      3  C   UNL     1      -0.810   3.526   1.240  0.00  0.00    -0.075 C 
ATOM      4  C   UNL     1      -0.832   3.539  -1.183  0.00  0.00    -0.075 C 
ATOM      5  C   UNL     1      -0.761   2.011  -1.228  0.00  0.00    +0.021 C 
ATOM      6  N   UNL     1      -1.558   3.950   0.037  0.00  0.00    +0.383 N 
ATOM      7  H   UNL     1      -2.481   3.500   0.043  0.00  0.00    -0.081 HD
ENDROOT
BRANCH   1  12
ATOM      8  C   UNL     1       1.445  -4.282   0.761  0.00  0.00    +0.190 A 
ATOM      9  C   UNL     1       1.987  -3.080   1.083  0.00  0.00    +0.063 A 
ATOM     10  C   UNL     1       1.061  -2.069   0.573  0.00  0.00    +0.021 A 
ATOM     11  C   UNL     1       1.046  -0.672   0.577  0.00  0.00    +0.018 A 
ATOM     12  C   UNL     1       0.002  -0.004   0.002  0.00  0.00    -0.015 A 
ATOM     13  C   UNL     1      -1.038  -0.705  -0.594  0.00  0.00    +0.010 A 
ATOM     14  C   UNL     1      -1.039  -2.082  -0.613  0.00  0.00    +0.047 A 
ATOM     15  C   UNL     1       0.010  -2.784  -0.030  0.00  0.00    +0.136 A 
ATOM     16  O   UNL     1       0.280  -4.096   0.105  0.00  0.00    -0.450 OA
BRANCH   8  18
ATOM     17  N   UNL     1       1.407  -6.722   0.709  0.00  0.00    -0.309 N 
ATOM     18  C   UNL     1       2.037  -5.589   1.079  0.00  0.00    +0.279 C 
ATOM     19  O   UNL     1       3.095  -5.649   1.677  0.00  0.00    -0.267 OA
ATOM     20  H   UNL     1       0.564  -6.675   0.233  0.00  0.00    +0.149 HD
BRANCH  17  21
ATOM     21  C   UNL     1       1.998  -8.025   1.026  0.00  0.00    +0.107 C 
BRANCH  21  23
ATOM     22  C   UNL     1       1.042  -9.077  -1.029  0.00  0.00    +0.009 C 
ATOM     23  C   UNL     1       1.090  -9.138   0.499  0.00  0.00    -0.000 C 
ATOM     24  C   UNL     1       1.641 -10.496   0.938  0.00  0.00    +0.009 C 
ENDBRANCH  21  23
ENDBRANCH  17  21
ENDBRANCH   8  18
ENDBRANCH   1  12
BRANCH   1  25
ATOM     25  O   UNL     1       1.322   1.999   0.000  0.00  0.00    -0.384 OA
ATOM     26  H   UNL     1       1.851   1.717   0.759  0.00  0.00    +0.211 HD
ENDBRANCH   1  25
BRANCH   6  27
ATOM     27  C   UNL     1      -1.739   5.417   0.047  0.00  0.00    -0.043 C 
BRANCH  27  28
ATOM     28  C   UNL     1      -2.231   5.845   1.406  0.00  0.00    -0.060 A 
ATOM     29  C   UNL     1      -3.588   5.886   1.667  0.00  0.00    +0.005 A 
ATOM     30  C   UNL     1      -4.043   6.272   2.914  0.00  0.00    +0.049 A 
ATOM     31  C   UNL     1      -3.139   6.630   3.901  0.00  0.00    +0.158 A 
ATOM     32  C   UNL     1      -1.774   6.594   3.636  0.00  0.00    +0.161 A 
ATOM     33  C   UNL     1      -1.324   6.200   2.386  0.00  0.00    +0.051 A 
BRANCH  32  34
ATOM     34  O   UNL     1      -0.883   6.944   4.602  0.00  0.00    -0.491 OA
ATOM     35  C   UNL     1       0.503   6.883   4.260  0.00  0.00    +0.277 C 
ENDBRANCH  32  34
BRANCH  31  36
ATOM     36  O   UNL     1      -3.586   7.016   5.127  0.00  0.00    -0.503 OA
ATOM     37  H   UNL     1      -3.746   7.966   5.206  0.00  0.00    +0.292 HD
ENDBRANCH  31  36
ENDBRANCH  27  28
ENDBRANCH   6  27
TORSDOF 9
