REMARK  Name = ZINC04855509
REMARK  7 active torsions:
REMARK  status: ('A' for Active; 'I' for Inactive)
REMARK    1  A    between atoms: C_1  and  C_2
REMARK    2  A    between atoms: C_2  and  O_3
REMARK    3  A    between atoms: O_3  and  C_4
REMARK    4  A    between atoms: C_6  and  C_11
REMARK    5  A    between atoms: C_9  and  O_10
REMARK    6  A    between atoms: N_12  and  N_13
REMARK    7  A    between atoms: C_16  and  C_26
REMARK                            x       y       z     vdW  Elec       q    Type
REMARK                         _______ _______ _______ _____ _____    ______ ____
ROOT
ATOM      1  N   UNL     1      -2.907   2.293  -5.320  0.00  0.00    -0.221 N 
ATOM      2  C   UNL     1      -2.472   3.174  -4.343  0.00  0.00    +0.143 A 
ATOM      3  C   UNL     1      -2.655   4.550  -4.498  0.00  0.00    +0.068 A 
ATOM      4  C   UNL     1      -2.206   5.391  -3.499  0.00  0.00    +0.045 A 
ATOM      5  N   UNL     1      -1.623   4.872  -2.428  0.00  0.00    -0.219 NA
ATOM      6  C   UNL     1      -1.458   3.563  -2.310  0.00  0.00    +0.220 A 
ATOM      7  N   UNL     1      -1.874   2.722  -3.245  0.00  0.00    -0.198 NA
ATOM      8  N   UNL     1      -0.839   3.061  -1.178  0.00  0.00    -0.295 N 
ATOM      9  C   UNL     1      -0.755   1.594  -1.231  0.00  0.00    +0.136 C 
ATOM     10  C   UNL     1      -0.013   1.086   0.008  0.00  0.00    +0.179 C 
ATOM     11  O   UNL     1      -0.684   1.548   1.183  0.00  0.00    -0.377 OA
ATOM     12  C   UNL     1      -0.784   2.972   1.267  0.00  0.00    +0.179 C 
ATOM     13  C   UNL     1      -1.534   3.499   0.041  0.00  0.00    +0.136 C 
ATOM     14  C   UNL     1      -2.382   6.883  -3.623  0.00  0.00    +0.066 C 
ATOM     15  H   UNL     1      -3.342   2.630  -6.118  0.00  0.00    +0.176 HD
ENDROOT
BRANCH   1  17
ATOM     16  C   UNL     1      -3.125   0.089  -6.069  0.00  0.00    +0.138 C 
ATOM     17  N   UNL     1      -2.718   0.914  -5.154  0.00  0.00    -0.189 NA
BRANCH  16  20
ATOM     18  C   UNL     1      -3.175  -3.611  -6.709  0.00  0.00    +0.162 A 
ATOM     19  C   UNL     1      -3.364  -2.252  -6.878  0.00  0.00    +0.059 A 
ATOM     20  C   UNL     1      -2.926  -1.362  -5.894  0.00  0.00    -0.002 A 
ATOM     21  C   UNL     1      -2.294  -1.849  -4.747  0.00  0.00    +0.013 A 
ATOM     22  C   UNL     1      -2.114  -3.206  -4.583  0.00  0.00    +0.050 A 
ATOM     23  C   UNL     1      -2.549  -4.090  -5.560  0.00  0.00    +0.158 A 
BRANCH  23  24
ATOM     24  O   UNL     1      -2.365  -5.427  -5.396  0.00  0.00    -0.503 OA
ATOM     25  H   UNL     1      -1.527  -5.755  -5.751  0.00  0.00    +0.292 HD
ENDBRANCH  23  24
BRANCH  18  26
ATOM     26  O   UNL     1      -3.600  -4.481  -7.664  0.00  0.00    -0.489 OA
BRANCH  26  28
ATOM     27  C   UNL     1      -4.641  -5.044  -9.771  0.00  0.00    +0.048 C 
ATOM     28  C   UNL     1      -4.234  -3.920  -8.815  0.00  0.00    +0.226 C 
ENDBRANCH  26  28
ENDBRANCH  18  26
ENDBRANCH  16  20
ENDBRANCH   1  17
TORSDOF 5
