REMARK  Name = ZINC51925941
REMARK  7 active torsions:
REMARK  status: ('A' for Active; 'I' for Inactive)
REMARK    1  A    between atoms: C_1  and  C_2
REMARK    2  A    between atoms: C_3  and  C_21
REMARK    3  A    between atoms: N_4  and  C_7
REMARK    4  A    between atoms: C_7  and  C_8
REMARK    5  A    between atoms: C_8  and  C_9
REMARK    6  A    between atoms: N_11  and  C_12
REMARK    7  A    between atoms: C_15  and  N_19
REMARK                            x       y       z     vdW  Elec       q    Type
REMARK                         _______ _______ _______ _____ _____    ______ ____
ROOT
ATOM      1  C   UNL     1       2.427  -5.336  -1.891  0.00  0.00    +0.219 C 
ATOM      2  O   UNL     1       2.148  -6.373  -1.327  0.00  0.00    -0.275 OA
ATOM      3  N   UNL     1       2.662  -5.333  -3.218  0.00  0.00    -0.283 N 
ATOM      4  H   UNL     1       2.813  -4.495  -3.681  0.00  0.00    +0.155 HD
ENDROOT
BRANCH   3   5
ATOM      5  C   UNL     1       2.687  -6.542  -3.928  0.00  0.00    +0.071 A 
ATOM      6  C   UNL     1       1.523  -7.031  -4.509  0.00  0.00    +0.065 A 
ATOM      7  C   UNL     1       1.548  -8.222  -5.209  0.00  0.00    +0.044 A 
ATOM      8  C   UNL     1       2.736  -8.930  -5.332  0.00  0.00    +0.027 A 
ATOM      9  C   UNL     1       3.900  -8.442  -4.751  0.00  0.00    +0.044 A 
ATOM     10  C   UNL     1       3.876  -7.248  -4.056  0.00  0.00    +0.065 A 
ATOM     11 CL   UNL     1       5.332  -6.634  -3.337  0.00  0.00    -0.082 Cl
ATOM     12 CL   UNL     1       0.038  -6.145  -4.355  0.00  0.00    -0.082 Cl
BRANCH   8  13
ATOM     13  N   UNL     1       2.761 -10.136  -6.041  0.00  0.00    -0.358 N 
ATOM     14  H   UNL     1       1.949 -10.477  -6.446  0.00  0.00    +0.142 HD
ATOM     15  H   UNL     1       3.591 -10.631  -6.127  0.00  0.00    +0.142 HD
ENDBRANCH   8  13
ENDBRANCH   3   5
BRANCH   1  16
ATOM     16  C   UNL     1       2.512  -4.052  -1.107  0.00  0.00    +0.117 C 
BRANCH  16  17
ATOM     17  C   UNL     1       2.204  -4.331   0.365  0.00  0.00    +0.132 C 
BRANCH  17  21
ATOM     18  C   UNL     1       1.052   0.069   2.488  0.00  0.00    +0.065 C 
ATOM     19  C   UNL     1       1.788  -1.171   2.050  0.00  0.00    +0.033 A 
ATOM     20  C   UNL     1       1.289  -2.157   1.281  0.00  0.00    +0.036 A 
ATOM     21  N   UNL     1       2.287  -3.082   1.127  0.00  0.00    -0.335 N 
ATOM     22  C   UNL     1       3.361  -2.628   1.808  0.00  0.00    +0.174 A 
ATOM     23  N   UNL     1       3.057  -1.482   2.353  0.00  0.00    -0.350 N 
ATOM     24  C   UNL     1      -0.100  -2.229   0.701  0.00  0.00    +0.065 C 
ATOM     25  H   UNL     1       3.654  -0.942   2.894  0.00  0.00    +0.166 HD
ENDBRANCH  17  21
ENDBRANCH  16  17
ENDBRANCH   1  16
TORSDOF 5
