REMARK  Name = ZINC00850877
REMARK  8 active torsions:
REMARK  status: ('A' for Active; 'I' for Inactive)
REMARK    1  A    between atoms: C_1  and  C_2
REMARK    2  A    between atoms: C_7  and  O_8
REMARK    3  A    between atoms: O_8  and  C_9
REMARK    4  A    between atoms: C_9  and  C_10
REMARK    5  A    between atoms: C_10  and  C_12
REMARK    6  A    between atoms: C_10  and  O_32
REMARK    7  A    between atoms: C_12  and  N_13
REMARK    8  A    between atoms: N_25  and  C_31
REMARK                            x       y       z     vdW  Elec       q    Type
REMARK                         _______ _______ _______ _____ _____    ______ ____
ROOT
ATOM      1  N   UNL     1       0.947  -2.027  -0.014  0.00  0.00    -0.304 N 
ATOM      2  C   UNL     1       1.246  -0.672  -0.007  0.00  0.00    +0.153 A 
ATOM      3  C   UNL     1       0.022  -0.001   0.002  0.00  0.00    +0.170 A 
ATOM      4  N   UNL     1      -0.942  -0.924   0.001  0.00  0.00    -0.196 NA
ATOM      5  C   UNL     1      -0.410  -2.129  -0.009  0.00  0.00    +0.201 A 
ATOM      6  N   UNL     1      -1.117  -3.309  -0.013  0.00  0.00    -0.301 N 
ATOM      7  C   UNL     1      -1.730  -3.555  -1.338  0.00  0.00    +0.108 C 
ATOM      8  C   UNL     1      -2.729  -4.680  -1.319  0.00  0.00    +0.019 C 
ATOM      9  C   UNL     1      -4.133  -4.084  -1.090  0.00  0.00    +0.002 C 
ATOM     10  C   UNL     1      -4.367  -3.747   0.310  0.00  0.00    +0.002 C 
ATOM     11  C   UNL     1      -3.373  -2.686   0.828  0.00  0.00    +0.019 C 
ATOM     12  C   UNL     1      -2.063  -3.365   1.124  0.00  0.00    +0.108 C 
ATOM     13  N   UNL     1       0.028   1.377   0.011  0.00  0.00    -0.280 N 
ATOM     14  C   UNL     1       1.200   2.040   0.011  0.00  0.00    +0.331 A 
ATOM     15  O   UNL     1       1.192   3.260   0.019  0.00  0.00    -0.246 OA
ATOM     16  N   UNL     1       2.366   1.401   0.002  0.00  0.00    -0.273 N 
ATOM     17  C   UNL     1       2.429   0.074  -0.007  0.00  0.00    +0.280 A 
ATOM     18  O   UNL     1       3.629  -0.551  -0.017  0.00  0.00    -0.265 OA
ATOM     19  C   UNL     1      -1.236   2.117   0.015  0.00  0.00    +0.155 C 
ATOM     20  H   UNL     1       3.214   1.931   0.002  0.00  0.00    +0.173 HD
ENDROOT
BRANCH   1  21
ATOM     21  C   UNL     1       1.906  -3.133  -0.025  0.00  0.00    +0.160 C 
BRANCH  21  22
ATOM     22  C   UNL     1       2.346  -3.441   1.408  0.00  0.00    +0.172 C 
BRANCH  22  23
ATOM     23  O   UNL     1       1.228  -3.918   2.158  0.00  0.00    -0.387 OA
ATOM     24  H   UNL     1       0.831  -4.725   1.802  0.00  0.00    +0.210 HD
ENDBRANCH  22  23
BRANCH  22  25
ATOM     25  C   UNL     1       3.440  -4.511   1.387  0.00  0.00    +0.262 C 
BRANCH  25  26
ATOM     26  O   UNL     1       3.933  -4.714   2.713  0.00  0.00    -0.489 OA
BRANCH  26  33
ATOM     27  C   UNL     1       4.920  -5.132   5.326  0.00  0.00    +0.047 C 
ATOM     28  C   UNL     1       5.440  -5.887   4.130  0.00  0.00    -0.009 A 
ATOM     29  C   UNL     1       6.440  -6.828   4.288  0.00  0.00    +0.007 A 
ATOM     30  C   UNL     1       6.917  -7.521   3.192  0.00  0.00    +0.000 A 
ATOM     31  C   UNL     1       6.396  -7.276   1.935  0.00  0.00    +0.004 A 
ATOM     32  C   UNL     1       5.393  -6.340   1.773  0.00  0.00    +0.046 A 
ATOM     33  C   UNL     1       4.916  -5.639   2.871  0.00  0.00    +0.124 A 
ENDBRANCH  26  33
ENDBRANCH  25  26
ENDBRANCH  22  25
ENDBRANCH  21  22
ENDBRANCH   1  21
TORSDOF 6
