REMARK  Name = ZINC31209175
REMARK  8 active torsions:
REMARK  status: ('A' for Active; 'I' for Inactive)
REMARK    1  A    between atoms: C_1  and  C_2
REMARK    2  A    between atoms: N_5  and  C_8
REMARK    3  A    between atoms: C_8  and  C_10
REMARK    4  A    between atoms: C_8  and  C_26
REMARK    5  A    between atoms: C_10  and  N_11
REMARK    6  A    between atoms: C_12  and  C_14
REMARK    7  A    between atoms: C_19  and  O_24
REMARK    8  A    between atoms: O_24  and  C_25
REMARK                            x       y       z     vdW  Elec       q    Type
REMARK                         _______ _______ _______ _____ _____    ______ ____
ROOT
ATOM      1  N   UNL     1      -0.714   1.924   1.317  0.00  0.00    -0.311 N 
ATOM      2  C   UNL     1      -0.997   3.221   1.547  0.00  0.00    +0.260 C 
ATOM      3  O   UNL     1      -0.737   4.059   0.705  0.00  0.00    -0.269 OA
ATOM      4  H   UNL     1      -0.949   1.166   2.079  0.00  0.00    +0.149 HD
ENDROOT
BRANCH   2   5
ATOM      5  C   UNL     1      -1.621   3.623   2.816  0.00  0.00    +0.103 A 
ATOM      6  C   UNL     1      -1.947   4.895   3.165  0.00  0.00    +0.040 A 
ATOM      7  C   UNL     1      -2.524   4.853   4.457  0.00  0.00    +0.001 A 
ATOM      8  C   UNL     1      -3.042   5.838   5.310  0.00  0.00    +0.013 A 
ATOM      9  C   UNL     1      -3.538   5.487   6.530  0.00  0.00    +0.046 A 
ATOM     10  C   UNL     1      -3.536   4.154   6.940  0.00  0.00    +0.122 A 
ATOM     11  C   UNL     1      -3.031   3.167   6.115  0.00  0.00    +0.071 A 
ATOM     12  C   UNL     1      -2.521   3.505   4.866  0.00  0.00    +0.050 A 
ATOM     13  N   UNL     1      -1.963   2.768   3.847  0.00  0.00    -0.350 N 
ATOM     14  H   UNL     1      -1.772   1.688   3.754  0.00  0.00    +0.166 HD
BRANCH  10  15
ATOM     15  O   UNL     1      -4.035   3.823   8.159  0.00  0.00    -0.495 OA
ATOM     16  C   UNL     1      -4.541   4.889   8.964  0.00  0.00    +0.277 C 
ENDBRANCH  10  15
ENDBRANCH   2   5
BRANCH   1  17
ATOM     17  C   UNL     1      -0.092   1.523   0.052  0.00  0.00    +0.094 C 
BRANCH  17  18
ATOM     18  C   UNL     1       0.010  -0.003  -0.005  0.00  0.00    -0.013 C 
BRANCH  18  23
ATOM     19  C   UNL     1       3.484  -2.120   4.010  0.00  0.00    +0.007 C 
ATOM     20  C   UNL     1       2.901  -1.666   2.670  0.00  0.00    -0.018 C 
ATOM     21  C   UNL     1       2.598  -0.166   2.725  0.00  0.00    -0.015 C 
ATOM     22  C   UNL     1       1.959   0.269   1.404  0.00  0.00    -0.078 C 
ATOM     23  N   UNL     1       0.722  -0.491   1.183  0.00  0.00    +0.386 N 
ATOM     24  C   UNL     1       0.995  -1.930   1.079  0.00  0.00    -0.078 C 
ATOM     25  C   UNL     1       1.605  -2.431   2.390  0.00  0.00    -0.015 C 
ATOM     26  H   UNL     1       0.072  -0.335   2.057  0.00  0.00    -0.081 HD
ENDBRANCH  18  23
BRANCH  18  27
ATOM     27  C   UNL     1       0.763  -0.409  -1.245  0.00  0.00    -0.022 A 
ATOM     28  C   UNL     1       0.280  -0.855  -2.430  0.00  0.00    +0.009 A 
ATOM     29  C   UNL     1       1.168  -1.173  -3.440  0.00  0.00    +0.008 A 
ATOM     30  C   UNL     1       2.497  -1.028  -3.216  0.00  0.00    +0.045 A 
ATOM     31  S   UNL     1       2.525  -0.421  -1.537  0.00  0.00    -0.103 S 
ENDBRANCH  18  27
ENDBRANCH  17  18
ENDBRANCH   1  17
TORSDOF 6
