REMARK  Name = ZINC14962878
REMARK  11 active torsions:
REMARK  status: ('A' for Active; 'I' for Inactive)
REMARK    1  A    between atoms: C_1  and  N_2
REMARK    2  A    between atoms: N_2  and  C_3
REMARK    3  A    between atoms: C_3  and  C_5
REMARK    4  A    between atoms: C_3  and  C_13
REMARK    5  A    between atoms: C_5  and  C_6
REMARK    6  A    between atoms: C_18  and  C_19
REMARK    7  A    between atoms: C_18  and  N_65
REMARK    8  A    between atoms: C_20  and  O_27
REMARK    9  A    between atoms: C_24  and  O_25
REMARK   10  A    between atoms: O_25  and  C_26
REMARK   11  A    between atoms: C_28  and  C_30
REMARK                            x       y       z     vdW  Elec       q    Type
REMARK                         _______ _______ _______ _____ _____    ______ ____
ROOT
ATOM      1  C   UNL     1       1.175   3.564   0.400  0.00  0.00    +0.083 C 
ENDROOT
BRANCH   1   2
ATOM      2  C   UNL     1       0.326   3.789   1.653  0.00  0.00    +0.006 C 
ATOM      3  C   UNL     1       0.316   5.279   2.004  0.00  0.00    -0.013 C 
ATOM      4  C   UNL     1      -0.484   5.490   3.291  0.00  0.00    -0.078 C 
ATOM      5  C   UNL     1       0.103   3.277   4.086  0.00  0.00    -0.078 C 
ATOM      6  C   UNL     1       0.921   3.001   2.823  0.00  0.00    -0.013 C 
ATOM      7  N   UNL     1       0.154   4.725   4.383  0.00  0.00    +0.383 N 
ATOM      8  H   UNL     1       1.135   5.014   4.463  0.00  0.00    -0.081 HD
BRANCH   7   9
ATOM      9  C   UNL     1      -0.533   5.002   5.662  0.00  0.00    -0.036 C 
BRANCH   9  10
ATOM     10  C   UNL     1      -0.711   6.490   5.814  0.00  0.00    +0.019 A 
ATOM     11  C   UNL     1      -1.864   7.104   5.350  0.00  0.00    +0.122 A 
ATOM     12  C   UNL     1      -2.025   8.475   5.492  0.00  0.00    +0.046 A 
ATOM     13  C   UNL     1      -1.036   9.229   6.095  0.00  0.00    +0.007 A 
ATOM     14  C   UNL     1       0.114   8.620   6.559  0.00  0.00    +0.046 A 
ATOM     15  C   UNL     1       0.277   7.248   6.424  0.00  0.00    +0.125 A 
BRANCH  15  16
ATOM     16  O   UNL     1       1.406   6.649   6.886  0.00  0.00    -0.495 OA
ATOM     17  C   UNL     1       2.381   7.491   7.503  0.00  0.00    +0.277 C 
ENDBRANCH  15  16
BRANCH  11  18
ATOM     18  O   UNL     1      -2.837   6.363   4.756  0.00  0.00    -0.506 OA
ATOM     19  H   UNL     1      -3.501   6.022   5.370  0.00  0.00    +0.292 HD
ENDBRANCH  11  18
ENDBRANCH   9  10
ENDBRANCH   7   9
ENDBRANCH   1   2
BRANCH   1  21
ATOM     20  C   UNL     1       2.459   1.407   0.033  0.00  0.00    +0.132 C 
ATOM     21  N   UNL     1       1.190   2.137   0.070  0.00  0.00    -0.297 N 
ATOM     22  C   UNL     1       0.035   1.496  -0.201  0.00  0.00    +0.253 C 
ATOM     23  O   UNL     1      -1.016   2.110  -0.200  0.00  0.00    -0.269 OA
BRANCH  22  24
ATOM     24  C   UNL     1       0.046   0.061  -0.501  0.00  0.00    +0.074 A 
ATOM     25  C   UNL     1      -1.023  -0.804  -0.670  0.00  0.00    +0.021 A 
ATOM     26  C   UNL     1      -0.728  -2.115  -0.952  0.00  0.00    +0.008 A 
ATOM     27  C   UNL     1       0.573  -2.498  -1.040  0.00  0.00    +0.046 A 
ATOM     28  S   UNL     1       1.440  -1.027  -0.738  0.00  0.00    -0.092 S 
ENDBRANCH  22  24
ENDBRANCH   1  21
BRANCH   1  29
ATOM     29  C   UNL     1       0.580   4.352  -0.768  0.00  0.00    +0.060 C 
BRANCH  29  30
ATOM     30  C   UNL     1       1.482   4.230  -1.969  0.00  0.00    -0.010 A 
ATOM     31  C   UNL     1       2.425   5.208  -2.227  0.00  0.00    +0.006 A 
ATOM     32  C   UNL     1       3.257   5.093  -3.325  0.00  0.00    +0.000 A 
ATOM     33  C   UNL     1       3.140   4.007  -4.172  0.00  0.00    +0.003 A 
ATOM     34  C   UNL     1       2.195   3.031  -3.919  0.00  0.00    +0.038 A 
ATOM     35  C   UNL     1       1.365   3.142  -2.816  0.00  0.00    +0.127 A 
ATOM     36  F   UNL     1       0.440   2.189  -2.568  0.00  0.00    -0.205 F 
ENDBRANCH  29  30
ENDBRANCH   1  29
TORSDOF 9
