REMARK  Name = ZINC03459582
REMARK  7 active torsions:
REMARK  status: ('A' for Active; 'I' for Inactive)
REMARK    1  A    between atoms: C_1  and  C_2
REMARK    2  A    between atoms: C_2  and  C_3
REMARK    3  A    between atoms: C_2  and  N_4
REMARK    4  A    between atoms: C_8  and  C_10
REMARK    5  A    between atoms: C_10  and  N_11
REMARK    6  A    between atoms: C_14  and  C_18
REMARK    7  A    between atoms: C_14  and  C_19
REMARK                            x       y       z     vdW  Elec       q    Type
REMARK                         _______ _______ _______ _____ _____    ______ ____
ROOT
ATOM      1  N   UNL     1      -5.942   1.758   0.040  0.00  0.00    -0.215 N 
ATOM      2  C   UNL     1      -6.530   2.248  -1.070  0.00  0.00    +0.251 C 
ATOM      3  O   UNL     1      -6.237   2.006  -2.221  0.00  0.00    -0.272 OA
ATOM      4  C   UNL     1      -7.633   3.164  -0.579  0.00  0.00    +0.135 C 
ATOM      5  N   UNL     1      -7.530   3.075   0.888  0.00  0.00    -0.281 N 
ATOM      6  C   UNL     1      -6.519   2.228   1.152  0.00  0.00    +0.310 C 
ATOM      7  O   UNL     1      -6.166   1.926   2.275  0.00  0.00    -0.252 OA
ATOM      8  C   UNL     1      -8.999   2.663  -1.053  0.00  0.00    +0.047 C 
ATOM      9  H   UNL     1      -8.085   3.534   1.537  0.00  0.00    +0.152 HD
ENDROOT
BRANCH   4  10
ATOM     10  C   UNL     1      -7.395   4.577  -1.042  0.00  0.00    -0.016 A 
ATOM     11  C   UNL     1      -6.725   4.812  -2.229  0.00  0.00    +0.006 A 
ATOM     12  C   UNL     1      -6.510   6.109  -2.656  0.00  0.00    +0.000 A 
ATOM     13  C   UNL     1      -6.956   7.171  -1.893  0.00  0.00    +0.000 A 
ATOM     14  C   UNL     1      -7.621   6.937  -0.704  0.00  0.00    +0.000 A 
ATOM     15  C   UNL     1      -7.840   5.640  -0.279  0.00  0.00    +0.006 A 
ENDBRANCH   4  10
BRANCH   1  16
ATOM     16  C   UNL     1      -4.816   0.821   0.029  0.00  0.00    +0.214 C 
BRANCH  16  21
ATOM     17  N   UNL     1      -0.011   0.966   0.007  0.00  0.00    -0.297 N 
ATOM     18  C   UNL     1      -1.187   1.624   0.017  0.00  0.00    +0.306 C 
ATOM     19  O   UNL     1      -1.204   2.839   0.023  0.00  0.00    -0.252 OA
ATOM     20  N   UNL     1      -2.345   0.934   0.018  0.00  0.00    -0.239 N 
ATOM     21  C   UNL     1      -3.522   1.592   0.027  0.00  0.00    +0.238 C 
ATOM     22  O   UNL     1      -3.538   2.804   0.034  0.00  0.00    -0.274 OA
ATOM     23  H   UNL     1       0.002  -0.004   0.002  0.00  0.00    +0.151 HD
ATOM     24  H   UNL     1      -2.332  -0.036   0.013  0.00  0.00    +0.159 HD
BRANCH  17  26
ATOM     25  C   UNL     1       1.635   2.077   1.435  0.00  0.00    +0.027 C 
ATOM     26  C   UNL     1       1.248   1.716  -0.001  0.00  0.00    +0.068 C 
ATOM     27  C   UNL     1       2.349   0.857  -0.625  0.00  0.00    +0.027 C 
ENDBRANCH  17  26
ENDBRANCH  16  21
ENDBRANCH   1  16
TORSDOF 4
