REMARK  Name = ZINC67206144
REMARK  7 active torsions:
REMARK  status: ('A' for Active; 'I' for Inactive)
REMARK    1  A    between atoms: C_1  and  C_2
REMARK    2  A    between atoms: N_6  and  C_14
REMARK    3  A    between atoms: C_14  and  C_15
REMARK    4  A    between atoms: C_15  and  C_16
REMARK    5  A    between atoms: C_20  and  N_29
REMARK    6  A    between atoms: N_29  and  C_30
REMARK    7  A    between atoms: N_29  and  C_31
REMARK                            x       y       z     vdW  Elec       q    Type
REMARK                         _______ _______ _______ _____ _____    ______ ____
ROOT
ATOM      1  C   UNL     1       3.914  -0.328  -4.478  0.00  0.00    +0.221 C 
ATOM      2  O   UNL     1       3.272   0.031  -3.514  0.00  0.00    -0.275 OA
ATOM      3  N   UNL     1       4.479   0.587  -5.291  0.00  0.00    -0.273 N 
ATOM      4  C   UNL     1       5.186   0.168  -6.509  0.00  0.00    +0.099 C 
ATOM      5  C   UNL     1       6.497   0.962  -6.585  0.00  0.00    -0.047 C 
ATOM      6  C   UNL     1       6.168   2.448  -6.722  0.00  0.00    +0.023 C 
ATOM      7  C   UNL     1       5.197   2.874  -5.652  0.00  0.00    -0.027 A 
ATOM      8  C   UNL     1       4.396   1.954  -4.992  0.00  0.00    +0.039 A 
ATOM      9  C   UNL     1       3.503   2.380  -4.016  0.00  0.00    +0.024 A 
ATOM     10  C   UNL     1       3.409   3.722  -3.704  0.00  0.00    +0.002 A 
ATOM     11  C   UNL     1       4.204   4.640  -4.364  0.00  0.00    +0.000 A 
ATOM     12  C   UNL     1       5.102   4.217  -5.330  0.00  0.00    +0.005 A 
ENDROOT
BRANCH   5  13
ATOM     13  N   UNL     1       7.274   0.518  -7.750  0.00  0.00    +0.379 N 
ATOM     14  C   UNL     1       8.528   1.279  -7.821  0.00  0.00    -0.096 C 
ATOM     15  C   UNL     1       7.576  -0.914  -7.621  0.00  0.00    -0.096 C 
ATOM     16  H   UNL     1       6.738   0.674  -8.591  0.00  0.00    -0.082 HD
ENDBRANCH   5  13
BRANCH   1  17
ATOM     17  C   UNL     1       4.081  -1.798  -4.767  0.00  0.00    +0.115 C 
BRANCH  17  18
ATOM     18  C   UNL     1       3.455  -2.614  -3.634  0.00  0.00    +0.123 C 
BRANCH  18  23
ATOM     19  C   UNL     1       5.602  -6.307  -5.153  0.00  0.00    +0.062 C 
ATOM     20  C   UNL     1       4.877  -6.169  -3.813  0.00  0.00    +0.256 C 
ATOM     21  C   UNL     1       4.710  -4.708  -3.481  0.00  0.00    +0.260 C 
ATOM     22  O   UNL     1       5.553  -4.131  -2.827  0.00  0.00    -0.271 OA
ATOM     23  N   UNL     1       3.617  -4.043  -3.915  0.00  0.00    -0.265 N 
ATOM     24  C   UNL     1       2.640  -4.742  -4.638  0.00  0.00    +0.078 A 
ATOM     25  C   UNL     1       1.679  -4.062  -5.369  0.00  0.00    +0.027 A 
ATOM     26  C   UNL     1       0.723  -4.770  -6.074  0.00  0.00    +0.002 A 
ATOM     27  C   UNL     1       0.725  -6.153  -6.052  0.00  0.00    +0.004 A 
ATOM     28  C   UNL     1       1.682  -6.837  -5.325  0.00  0.00    +0.047 A 
ATOM     29  C   UNL     1       2.642  -6.135  -4.617  0.00  0.00    +0.143 A 
ATOM     30  O   UNL     1       3.592  -6.791  -3.900  0.00  0.00    -0.478 OA
ENDBRANCH  18  23
ENDBRANCH  17  18
ENDBRANCH   1  17
TORSDOF 4
