REMARK  Name = ZINC25436490
REMARK  7 active torsions:
REMARK  status: ('A' for Active; 'I' for Inactive)
REMARK    1  A    between atoms: C_1  and  C_2
REMARK    2  A    between atoms: C_2  and  O_3
REMARK    3  A    between atoms: O_3  and  C_4
REMARK    4  A    between atoms: N_9  and  C_12
REMARK    5  A    between atoms: C_21  and  N_23
REMARK    6  A    between atoms: N_23  and  S_24
REMARK    7  A    between atoms: S_24  and  C_27
REMARK                            x       y       z     vdW  Elec       q    Type
REMARK                         _______ _______ _______ _____ _____    ______ ____
ROOT
ATOM      1  C   UNL     1       1.418   3.583   0.007  0.00  0.00    +0.106 C 
ATOM      2  C   UNL     1       1.135   2.096   0.010  0.00  0.00    -0.025 A 
ATOM      3  C   UNL     1      -0.069   1.412   0.032  0.00  0.00    +0.005 A 
ATOM      4  C   UNL     1      -0.083   0.031   0.029  0.00  0.00    +0.000 A 
ATOM      5  C   UNL     1       1.108  -0.671   0.005  0.00  0.00    +0.000 A 
ATOM      6  C   UNL     1       2.309   0.009  -0.017  0.00  0.00    +0.004 A 
ATOM      7  C   UNL     1       2.325   1.394  -0.015  0.00  0.00    -0.041 A 
ATOM      8  C   UNL     1       3.490   2.362  -0.035  0.00  0.00    +0.057 C 
ATOM      9  C   UNL     1       2.900   3.714   0.419  0.00  0.00    +0.102 C 
ENDROOT
BRANCH   1  15
ATOM     10  C   UNL     1      -0.685   6.538  -4.029  0.00  0.00    +0.403 C 
ATOM     11  O   UNL     1      -1.724   6.155  -4.530  0.00  0.00    -0.226 OA
ATOM     12  N   UNL     1       0.124   5.661  -3.402  0.00  0.00    -0.265 N 
ATOM     13  C   UNL     1      -0.232   4.237  -3.313  0.00  0.00    +0.126 C 
ATOM     14  C   UNL     1      -0.123   3.799  -1.848  0.00  0.00    +0.104 C 
ATOM     15  N   UNL     1       1.212   4.139  -1.337  0.00  0.00    -0.291 NA
ATOM     16  C   UNL     1       1.431   5.591  -1.346  0.00  0.00    +0.104 C 
ATOM     17  C   UNL     1       1.386   6.102  -2.790  0.00  0.00    +0.126 C 
BRANCH  10  18
ATOM     18  O   UNL     1      -0.342   7.838  -4.101  0.00  0.00    -0.451 OA
BRANCH  18  20
ATOM     19  C   UNL     1      -0.705  10.151  -4.770  0.00  0.00    +0.048 C 
ATOM     20  C   UNL     1      -1.260   8.725  -4.791  0.00  0.00    +0.230 C 
ENDBRANCH  18  20
ENDBRANCH  10  18
ENDBRANCH   1  15
BRANCH   9  21
ATOM     21  N   UNL     1       3.025   3.876   1.870  0.00  0.00    -0.185 NA
ATOM     22  H   UNL     1       2.236   3.495   2.535  0.00  0.00    +0.148 HD
BRANCH  21  23
ATOM     23  S   UNL     1       4.216   4.840   2.495  0.00  0.00    +0.059 S 
ATOM     24  O   UNL     1       4.060   4.814   3.908  0.00  0.00    -0.153 OA
ATOM     25  O   UNL     1       5.426   4.458   1.855  0.00  0.00    -0.153 OA
BRANCH  23  26
ATOM     26  C   UNL     1       3.874   6.491   1.982  0.00  0.00    +0.105 A 
ATOM     27  C   UNL     1       4.401   6.969   0.797  0.00  0.00    +0.028 A 
ATOM     28  C   UNL     1       4.128   8.262   0.391  0.00  0.00    +0.002 A 
ATOM     29  C   UNL     1       3.337   9.080   1.176  0.00  0.00    +0.000 A 
ATOM     30  C   UNL     1       2.815   8.604   2.364  0.00  0.00    +0.002 A 
ATOM     31  C   UNL     1       3.083   7.309   2.767  0.00  0.00    +0.028 A 
ENDBRANCH  23  26
ENDBRANCH  21  23
ENDBRANCH   9  21
TORSDOF 6
