REMARK  Name = ZINC00906501
REMARK  11 active torsions:
REMARK  status: ('A' for Active; 'I' for Inactive)
REMARK    1  A    between atoms: C_1  and  C_2
REMARK    2  A    between atoms: C_5  and  S_13
REMARK    3  A    between atoms: N_6  and  C_7
REMARK    4  A    between atoms: C_7  and  C_8
REMARK    5  A    between atoms: S_13  and  C_14
REMARK    6  A    between atoms: C_14  and  C_15
REMARK    7  A    between atoms: N_17  and  C_18
REMARK    8  A    between atoms: N_17  and  C_24
REMARK    9  A    between atoms: C_24  and  C_26
REMARK   10  A    between atoms: C_24  and  C_33
REMARK   11  A    between atoms: N_35  and  C_36
REMARK                            x       y       z     vdW  Elec       q    Type
REMARK                         _______ _______ _______ _____ _____    ______ ____
ROOT
ATOM      1  C   UNL     1       1.033  -6.663   1.195  0.00  0.00    +0.231 C 
ATOM      2  O   UNL     1       0.867  -6.798   2.389  0.00  0.00    -0.274 OA
ATOM      3  N   UNL     1       0.471  -7.535   0.334  0.00  0.00    -0.255 N 
ENDROOT
BRANCH   3   4
ATOM      4  C   UNL     1       0.776  -7.465  -1.030  0.00  0.00    +0.037 A 
ATOM      5  C   UNL     1       0.279  -6.424  -1.802  0.00  0.00    +0.023 A 
ATOM      6  C   UNL     1       0.582  -6.358  -3.148  0.00  0.00    +0.002 A 
ATOM      7  C   UNL     1       1.380  -7.329  -3.727  0.00  0.00    +0.000 A 
ATOM      8  C   UNL     1       1.876  -8.367  -2.961  0.00  0.00    +0.002 A 
ATOM      9  C   UNL     1       1.582  -8.435  -1.613  0.00  0.00    +0.023 A 
ENDBRANCH   3   4
BRANCH   1  10
ATOM     10  C   UNL     1       1.867  -5.521   0.674  0.00  0.00    +0.173 C 
BRANCH  10  11
ATOM     11  S   UNL     1       2.422  -4.496   2.064  0.00  0.00    -0.077 S 
BRANCH  11  16
ATOM     12  C   UNL     1       5.439  -0.221   1.133  0.00  0.00    +0.088 C 
ATOM     13  C   UNL     1       4.608  -1.464   0.946  0.00  0.00    +0.131 A 
ATOM     14  N   UNL     1       4.330  -2.044  -0.187  0.00  0.00    -0.134 NA
ATOM     15  N   UNL     1       3.600  -3.082   0.016  0.00  0.00    -0.122 NA
ATOM     16  C   UNL     1       3.371  -3.222   1.301  0.00  0.00    +0.192 A 
ATOM     17  N   UNL     1       4.012  -2.197   1.935  0.00  0.00    -0.299 N 
BRANCH  17  18
ATOM     18  C   UNL     1       4.050  -1.934   3.376  0.00  0.00    +0.199 C 
BRANCH  18  19
ATOM     19  C   UNL     1       2.893  -1.045   3.756  0.00  0.00    +0.125 A 
ATOM     20  C   UNL     1       1.673  -1.463   4.136  0.00  0.00    +0.046 A 
ATOM     21  C   UNL     1       0.906  -0.304   4.396  0.00  0.00    +0.041 A 
ATOM     22  C   UNL     1       1.704   0.752   4.159  0.00  0.00    +0.195 A 
ATOM     23  O   UNL     1       2.908   0.297   3.777  0.00  0.00    -0.466 OA
ENDBRANCH  18  19
ENDBRANCH  17  18
ENDBRANCH  11  16
ENDBRANCH  10  11
ENDBRANCH   1  10
BRANCH   3  24
ATOM     24  C   UNL     1      -0.459  -8.554   0.825  0.00  0.00    +0.197 C 
BRANCH  24  25
ATOM     25  C   UNL     1      -0.824  -9.486  -0.301  0.00  0.00    -0.018 A 
ATOM     26  C   UNL     1      -1.363  -8.980  -1.469  0.00  0.00    +0.009 A 
ATOM     27  C   UNL     1      -1.698  -9.833  -2.503  0.00  0.00    +0.038 A 
ATOM     28  C   UNL     1      -1.494 -11.196  -2.369  0.00  0.00    +0.123 A 
ATOM     29  C   UNL     1      -0.954 -11.702  -1.199  0.00  0.00    +0.038 A 
ATOM     30  C   UNL     1      -0.615 -10.846  -0.168  0.00  0.00    +0.009 A 
ATOM     31  F   UNL     1      -1.821 -12.031  -3.379  0.00  0.00    -0.205 F 
ENDBRANCH  24  25
BRANCH  24  32
ATOM     32  C   UNL     1      -1.704  -7.888   1.350  0.00  0.00    +0.239 C 
ATOM     33  O   UNL     1      -1.805  -6.679   1.316  0.00  0.00    -0.273 OA
ATOM     34  N   UNL     1      -2.706  -8.634   1.856  0.00  0.00    -0.311 N 
ATOM     35  H   UNL     1      -2.625  -9.600   1.883  0.00  0.00    +0.149 HD
BRANCH  34  36
ATOM     36  C   UNL     1      -3.916  -7.986   2.366  0.00  0.00    +0.073 C 
ATOM     37  C   UNL     1      -3.694  -7.561   3.819  0.00  0.00    +0.022 C 
ATOM     38  C   UNL     1      -4.959  -6.884   4.352  0.00  0.00    +0.002 C 
ATOM     39  C   UNL     1      -6.131  -7.865   4.280  0.00  0.00    +0.000 C 
ATOM     40  C   UNL     1      -6.353  -8.289   2.827  0.00  0.00    +0.002 C 
ATOM     41  C   UNL     1      -5.089  -8.966   2.295  0.00  0.00    +0.022 C 
ENDBRANCH  34  36
ENDBRANCH  24  32
ENDBRANCH   3  24
TORSDOF 10
