REMARK  Name = ZINC21247791
REMARK  8 active torsions:
REMARK  status: ('A' for Active; 'I' for Inactive)
REMARK    1  A    between atoms: C_1  and  C_2
REMARK    2  A    between atoms: C_2  and  C_3
REMARK    3  A    between atoms: C_2  and  O_4
REMARK    4  A    between atoms: O_4  and  C_5
REMARK    5  A    between atoms: C_8  and  C_13
REMARK    6  A    between atoms: C_10  and  O_11
REMARK    7  A    between atoms: O_11  and  C_12
REMARK    8  A    between atoms: C_18  and  C_28
REMARK                            x       y       z     vdW  Elec       q    Type
REMARK                         _______ _______ _______ _____ _____    ______ ____
ROOT
ATOM      1  C   UNL     1      -4.881   4.547  -3.771  0.00  0.00    +0.032 C 
ATOM      2  C   UNL     1      -5.636   3.244  -3.515  0.00  0.00    +0.059 C 
ATOM      3  C   UNL     1      -5.503   2.846  -2.054  0.00  0.00    +0.017 C 
ATOM      4  C   UNL     1      -4.385   3.137  -1.369  0.00  0.00    +0.036 C 
ATOM      5  C   UNL     1      -4.111   2.780   0.073  0.00  0.00    +0.136 C 
ATOM      6  N   UNL     1      -5.269   2.303   0.799  0.00  0.00    -0.331 N 
ATOM      7  C   UNL     1      -5.899   1.112   0.452  0.00  0.00    +0.049 A 
ATOM      8  C   UNL     1      -5.862   0.003   1.282  0.00  0.00    +0.025 A 
ATOM      9  C   UNL     1      -6.410  -1.191   0.847  0.00  0.00    +0.002 A 
ATOM     10  C   UNL     1      -6.991  -1.280  -0.405  0.00  0.00    +0.002 A 
ATOM     11  C   UNL     1      -7.048  -0.168  -1.229  0.00  0.00    +0.025 A 
ATOM     12  C   UNL     1      -6.516   1.031  -0.788  0.00  0.00    +0.052 A 
ATOM     13  N   UNL     1      -6.579   2.195  -1.545  0.00  0.00    -0.316 N 
ATOM     14  C   UNL     1      -3.330   3.844  -1.993  0.00  0.00    +0.163 C 
ATOM     15  O   UNL     1      -2.324   4.080  -1.353  0.00  0.00    -0.292 OA
ATOM     16  C   UNL     1      -3.408   4.311  -3.416  0.00  0.00    +0.088 C 
ATOM     17  H   UNL     1      -5.667   2.884   1.643  0.00  0.00    +0.147 HD
ATOM     18  H   UNL     1      -7.593   2.585  -1.722  0.00  0.00    +0.152 HD
ENDROOT
BRANCH   5  19
ATOM     19  C   UNL     1      -3.050   1.710   0.107  0.00  0.00    -0.022 A 
ATOM     20  C   UNL     1      -3.319   0.459  -0.444  0.00  0.00    +0.006 A 
ATOM     21  C   UNL     1      -2.386  -0.531  -0.425  0.00  0.00    +0.009 A 
ATOM     22  C   UNL     1      -1.126  -0.287   0.149  0.00  0.00    -0.018 A 
ATOM     23  C   UNL     1      -0.134  -1.283   0.183  0.00  0.00    +0.008 A 
ATOM     24  C   UNL     1       1.074  -1.010   0.747  0.00  0.00    +0.001 A 
ATOM     25  C   UNL     1       1.345   0.243   1.293  0.00  0.00    +0.001 A 
ATOM     26  C   UNL     1       0.409   1.231   1.279  0.00  0.00    +0.008 A 
ATOM     27  C   UNL     1      -0.850   0.987   0.705  0.00  0.00    -0.018 A 
ATOM     28  C   UNL     1      -1.842   1.982   0.671  0.00  0.00    +0.014 A 
ENDBRANCH   5  19
BRANCH   1  32
ATOM     29  C   UNL     1      -5.217   5.627  -7.896  0.00  0.00    +0.162 A 
ATOM     30  C   UNL     1      -4.666   4.407  -7.539  0.00  0.00    +0.050 A 
ATOM     31  C   UNL     1      -4.559   4.061  -6.205  0.00  0.00    +0.008 A 
ATOM     32  C   UNL     1      -5.000   4.930  -5.224  0.00  0.00    -0.040 A 
ATOM     33  C   UNL     1      -5.556   6.146  -5.574  0.00  0.00    +0.053 A 
ATOM     34  C   UNL     1      -5.662   6.502  -6.909  0.00  0.00    +0.162 A 
BRANCH  34  35
ATOM     35  O   UNL     1      -6.203   7.700  -7.254  0.00  0.00    -0.491 OA
ATOM     36  C   UNL     1      -6.638   8.547  -6.188  0.00  0.00    +0.277 C 
ENDBRANCH  34  35
BRANCH  29  37
ATOM     37  O   UNL     1      -5.324   5.969  -9.208  0.00  0.00    -0.486 OA
BRANCH  37  39
ATOM     38  C   UNL     1      -5.727   3.954 -10.479  0.00  0.00    +0.051 C 
ATOM     39  C   UNL     1      -4.740   5.078 -10.160  0.00  0.00    +0.167 C 
ATOM     40  C   UNL     1      -4.410   5.846 -11.441  0.00  0.00    +0.051 C 
ENDBRANCH  37  39
ENDBRANCH  29  37
ENDBRANCH   1  32
TORSDOF 5
