REMARK  Name = ZINC12516907
REMARK  8 active torsions:
REMARK  status: ('A' for Active; 'I' for Inactive)
REMARK    1  A    between atoms: C_1  and  C_2
REMARK    2  A    between atoms: C_2  and  C_4
REMARK    3  A    between atoms: C_2  and  S_10
REMARK    4  A    between atoms: S_10  and  C_11
REMARK    5  A    between atoms: C_14  and  C_23
REMARK    6  A    between atoms: N_15  and  C_16
REMARK    7  A    between atoms: C_23  and  C_25
REMARK    8  A    between atoms: C_23  and  N_56
REMARK                            x       y       z     vdW  Elec       q    Type
REMARK                         _______ _______ _______ _____ _____    ______ ____
ROOT
ATOM      1  C   UNL     1       0.519  -0.695   1.545  0.00  0.00    +0.197 A 
ATOM      2  N   UNL     1       1.050   0.320   2.187  0.00  0.00    -0.122 NA
ATOM      3  N   UNL     1       1.890  -0.106   3.062  0.00  0.00    -0.135 NA
ATOM      4  C   UNL     1       1.953  -1.407   3.027  0.00  0.00    +0.125 A 
ATOM      5  N   UNL     1       1.081  -1.831   2.059  0.00  0.00    -0.275 N 
ENDROOT
BRANCH   5   6
ATOM      6  C   UNL     1       0.820  -3.155   1.674  0.00  0.00    +0.050 A 
ATOM      7  C   UNL     1       0.234  -4.037   2.572  0.00  0.00    +0.029 A 
ATOM      8  C   UNL     1      -0.027  -5.338   2.189  0.00  0.00    +0.040 A 
ATOM      9  C   UNL     1       0.305  -5.766   0.915  0.00  0.00    +0.124 A 
ATOM     10  C   UNL     1       0.894  -4.889   0.020  0.00  0.00    +0.040 A 
ATOM     11  C   UNL     1       1.152  -3.586   0.397  0.00  0.00    +0.029 A 
ATOM     12  F   UNL     1       0.053  -7.041   0.544  0.00  0.00    -0.205 F 
ENDBRANCH   5   6
BRANCH   4  13
ATOM     13  C   UNL     1       2.822  -2.284   3.891  0.00  0.00    -0.002 C 
ATOM     14  C   UNL     1       4.276  -2.175   3.428  0.00  0.00    -0.005 C 
BRANCH  13  20
ATOM     15  C   UNL     1       3.534  -2.697   6.168  0.00  0.00    -0.078 C 
ATOM     16  C   UNL     1       3.521  -2.128   7.588  0.00  0.00    -0.019 C 
ATOM     17  C   UNL     1       2.078  -2.071   8.096  0.00  0.00    -0.004 C 
ATOM     18  C   UNL     1       1.241  -1.218   7.138  0.00  0.00    -0.019 C 
ATOM     19  C   UNL     1       1.321  -1.814   5.731  0.00  0.00    -0.078 C 
ATOM     20  N   UNL     1       2.732  -1.819   5.291  0.00  0.00    +0.386 N 
ATOM     21  H   UNL     1       3.102  -0.863   5.349  0.00  0.00    -0.081 HD
ENDBRANCH  13  20
ENDBRANCH   4  13
BRANCH   1  22
ATOM     22  S   UNL     1      -0.683  -0.609   0.261  0.00  0.00    -0.078 S 
BRANCH  22  24
ATOM     23  C   UNL     1      -1.518   1.696   1.467  0.00  0.00    +0.024 C 
ATOM     24  C   UNL     1      -0.908   1.185   0.160  0.00  0.00    +0.081 C 
BRANCH  24  25
ATOM     25  C   UNL     1      -1.830   1.512  -0.986  0.00  0.00    -0.034 A 
ATOM     26  C   UNL     1      -3.117   1.007  -1.004  0.00  0.00    +0.005 A 
ATOM     27  C   UNL     1      -3.964   1.311  -2.053  0.00  0.00    +0.000 A 
ATOM     28  C   UNL     1      -3.521   2.112  -3.089  0.00  0.00    +0.000 A 
ATOM     29  C   UNL     1      -2.233   2.612  -3.074  0.00  0.00    +0.000 A 
ATOM     30  C   UNL     1      -1.387   2.312  -2.022  0.00  0.00    +0.005 A 
ENDBRANCH  24  25
ENDBRANCH  22  24
ENDBRANCH   1  22
TORSDOF 6
