REMARK  Name = ZINC15678276
REMARK  9 active torsions:
REMARK  status: ('A' for Active; 'I' for Inactive)
REMARK    1  A    between atoms: C_1  and  C_2
REMARK    2  A    between atoms: C_2  and  C_3
REMARK    3  A    between atoms: C_3  and  C_5
REMARK    4  A    between atoms: C_3  and  N_6
REMARK    5  A    between atoms: C_10  and  N_33
REMARK    6  A    between atoms: C_19  and  C_20
REMARK    7  A    between atoms: C_19  and  C_21
REMARK    8  A    between atoms: N_23  and  C_24
REMARK    9  A    between atoms: C_34  and  C_36
REMARK                            x       y       z     vdW  Elec       q    Type
REMARK                         _______ _______ _______ _____ _____    ______ ____
ROOT
ATOM      1  N   UNL     1       1.105   5.582   5.540  0.00  0.00    -0.278 N 
ATOM      2  C   UNL     1       1.326   6.591   6.413  0.00  0.00    +0.266 C 
ATOM      3  O   UNL     1       1.174   6.446   7.612  0.00  0.00    -0.268 OA
ATOM      4  C   UNL     1       1.756   7.870   5.839  0.00  0.00    +0.127 A 
ATOM      5  C   UNL     1       2.233   8.992   6.463  0.00  0.00    +0.072 A 
ATOM      6  C   UNL     1       2.531   9.950   5.408  0.00  0.00    +0.025 A 
ATOM      7  C   UNL     1       3.042  11.253   5.452  0.00  0.00    +0.050 A 
ATOM      8  C   UNL     1       3.210  11.898   4.239  0.00  0.00    +0.124 A 
ATOM      9  C   UNL     1       2.890  11.286   3.035  0.00  0.00    +0.040 A 
ATOM     10  C   UNL     1       2.384  10.001   2.970  0.00  0.00    +0.029 A 
ATOM     11  C   UNL     1       2.200   9.325   4.178  0.00  0.00    +0.052 A 
ATOM     12  N   UNL     1       1.730   8.082   4.452  0.00  0.00    -0.332 N 
ATOM     13  C   UNL     1       1.238   7.043   3.537  0.00  0.00    +0.157 C 
ATOM     14  C   UNL     1       1.512   5.668   4.143  0.00  0.00    +0.129 C 
ATOM     15  C   UNL     1       3.011   5.374   4.046  0.00  0.00    +0.043 C 
ATOM     16  F   UNL     1       3.700  13.157   4.227  0.00  0.00    -0.205 F 
ENDROOT
BRANCH   5  17
ATOM     17  N   UNL     1       2.398   9.179   7.832  0.00  0.00    -0.283 N 
ATOM     18  C   UNL     1       2.106  10.371   8.390  0.00  0.00    +0.214 C 
ATOM     19  O   UNL     1       1.790  11.307   7.687  0.00  0.00    -0.276 OA
ATOM     20  C   UNL     1       2.172  10.539   9.886  0.00  0.00    +0.109 C 
ATOM     21  H   UNL     1       2.724   8.451   8.385  0.00  0.00    +0.155 HD
ENDBRANCH   5  17
BRANCH  14  22
ATOM     22  C   UNL     1       0.761   4.628   3.352  0.00  0.00    +0.238 C 
ATOM     23  O   UNL     1       1.358   3.897   2.591  0.00  0.00    -0.273 OA
ATOM     24  N   UNL     1      -0.575   4.512   3.490  0.00  0.00    -0.311 N 
ATOM     25  H   UNL     1      -1.044   5.052   4.144  0.00  0.00    +0.149 HD
BRANCH  24  26
ATOM     26  C   UNL     1      -1.318   3.569   2.650  0.00  0.00    +0.073 C 
ATOM     27  C   UNL     1      -1.279   2.178   3.287  0.00  0.00    +0.022 C 
ATOM     28  C   UNL     1      -0.779   1.160   2.260  0.00  0.00    +0.002 C 
ATOM     29  C   UNL     1      -1.464   1.414   0.916  0.00  0.00    +0.000 C 
ATOM     30  C   UNL     1      -2.902   0.894   0.970  0.00  0.00    +0.000 C 
ATOM     31  C   UNL     1      -3.765   1.866   1.776  0.00  0.00    +0.000 C 
ATOM     32  C   UNL     1      -3.441   3.302   1.361  0.00  0.00    +0.002 C 
ATOM     33  C   UNL     1      -2.771   4.032   2.527  0.00  0.00    +0.022 C 
ENDBRANCH  24  26
ENDBRANCH  14  22
BRANCH   1  34
ATOM     34  C   UNL     1       0.439   4.366   6.014  0.00  0.00    +0.074 C 
ATOM     35  C   UNL     1      -0.894   4.736   6.667  0.00  0.00    +0.028 C 
BRANCH  34  37
ATOM     36  C   UNL     1       2.612   3.182   6.354  0.00  0.00    +0.005 C 
ATOM     37  C   UNL     1       1.331   3.662   7.039  0.00  0.00    +0.019 C 
ENDBRANCH  34  37
ENDBRANCH   1  34
TORSDOF 5
