REMARK  Name = ZINC36348362
REMARK  11 active torsions:
REMARK  status: ('A' for Active; 'I' for Inactive)
REMARK    1  A    between atoms: C_1  and  C_2
REMARK    2  A    between atoms: C_2  and  N_3
REMARK    3  A    between atoms: N_3  and  C_4
REMARK    4  A    between atoms: N_3  and  C_6
REMARK    5  A    between atoms: C_4  and  C_5
REMARK    6  A    between atoms: C_9  and  C_13
REMARK    7  A    between atoms: C_10  and  O_12
REMARK    8  A    between atoms: C_13  and  N_14
REMARK    9  A    between atoms: C_23  and  C_25
REMARK   10  A    between atoms: C_29  and  O_31
REMARK   11  A    between atoms: O_31  and  C_32
REMARK                            x       y       z     vdW  Elec       q    Type
REMARK                         _______ _______ _______ _____ _____    ______ ____
ROOT
ATOM      1  N   UNL     1      -3.996  -2.921   5.235  0.00  0.00    +0.391 N 
ATOM      2  C   UNL     1      -4.874  -3.664   4.327  0.00  0.00    -0.075 C 
ATOM      3  C   UNL     1      -4.731  -5.167   4.535  0.00  0.00    +0.003 C 
ATOM      4  C   UNL     1      -3.286  -5.502   4.916  0.00  0.00    +0.119 C 
ATOM      5  N   UNL     1      -3.144  -5.409   6.374  0.00  0.00    -0.352 N 
ATOM      6  C   UNL     1      -2.530  -6.314   7.185  0.00  0.00    +0.086 A 
ATOM      7  C   UNL     1      -2.596  -5.856   8.453  0.00  0.00    +0.019 A 
ATOM      8  C   UNL     1      -3.282  -4.625   8.422  0.00  0.00    +0.021 A 
ATOM      9  C   UNL     1      -3.612  -4.379   7.139  0.00  0.00    +0.009 A 
ATOM     10  C   UNL     1      -4.377  -3.182   6.630  0.00  0.00    +0.011 C 
ATOM     11  H   UNL     1      -3.041  -3.213   5.088  0.00  0.00    -0.080 HD
ENDROOT
BRANCH  10  12
ATOM     12  C   UNL     1      -4.048  -1.978   7.474  0.00  0.00    -0.052 A 
ATOM     13  C   UNL     1      -5.047  -1.344   8.191  0.00  0.00    +0.002 A 
ATOM     14  C   UNL     1      -4.748  -0.239   8.967  0.00  0.00    +0.004 A 
ATOM     15  C   UNL     1      -3.452   0.234   9.028  0.00  0.00    +0.045 A 
ATOM     16  C   UNL     1      -2.449  -0.400   8.310  0.00  0.00    +0.120 A 
ATOM     17  C   UNL     1      -2.749  -1.512   7.537  0.00  0.00    +0.048 A 
BRANCH  16  18
ATOM     18  O   UNL     1      -1.173   0.063   8.368  0.00  0.00    -0.495 OA
ATOM     19  C   UNL     1      -0.935   1.209   9.189  0.00  0.00    +0.277 C 
ENDBRANCH  16  18
ENDBRANCH  10  12
BRANCH   1  20
ATOM     20  C   UNL     1      -4.114  -1.483   4.958  0.00  0.00    -0.038 C 
BRANCH  20  24
ATOM     21  C   UNL     1      -2.799  -0.688   0.966  0.00  0.00    +0.033 A 
ATOM     22  C   UNL     1      -1.952  -0.448   2.042  0.00  0.00    +0.023 A 
ATOM     23  C   UNL     1      -2.380  -0.706   3.329  0.00  0.00    +0.007 A 
ATOM     24  C   UNL     1      -3.651  -1.203   3.552  0.00  0.00    -0.022 A 
ATOM     25  C   UNL     1      -4.501  -1.444   2.481  0.00  0.00    +0.120 A 
ATOM     26  C   UNL     1      -4.077  -1.181   1.188  0.00  0.00    +0.068 A 
BRANCH  25  27
ATOM     27  O   UNL     1      -5.750  -1.932   2.702  0.00  0.00    -0.507 OA
ATOM     28  H   UNL     1      -6.423  -1.249   2.827  0.00  0.00    +0.292 HD
ENDBRANCH  25  27
BRANCH  21  29
ATOM     29  N   UNL     1      -2.366  -0.427  -0.336  0.00  0.00    -0.330 N 
BRANCH  29  31
ATOM     30  C   UNL     1      -1.050   1.624  -0.547  0.00  0.00    +0.024 C 
ATOM     31  C   UNL     1      -1.017   0.094  -0.569  0.00  0.00    +0.102 C 
ENDBRANCH  29  31
BRANCH  29  32
ATOM     32  C   UNL     1      -3.262  -0.674  -1.469  0.00  0.00    +0.102 C 
ATOM     33  C   UNL     1      -3.070  -2.109  -1.966  0.00  0.00    +0.024 C 
ENDBRANCH  29  32
ENDBRANCH  21  29
ENDBRANCH  20  24
ENDBRANCH   1  20
TORSDOF 8
