REMARK  Name = ZINC32385401
REMARK  9 active torsions:
REMARK  status: ('A' for Active; 'I' for Inactive)
REMARK    1  A    between atoms: C_1  and  C_2
REMARK    2  A    between atoms: C_5  and  C_7
REMARK    3  A    between atoms: C_7  and  N_8
REMARK    4  A    between atoms: C_9  and  C_11
REMARK    5  A    between atoms: C_11  and  C_12
REMARK    6  A    between atoms: C_12  and  C_13
REMARK    7  A    between atoms: C_13  and  N_14
REMARK    8  A    between atoms: N_21  and  C_26
REMARK    9  A    between atoms: N_24  and  C_25
REMARK                            x       y       z     vdW  Elec       q    Type
REMARK                         _______ _______ _______ _____ _____    ______ ____
ROOT
ATOM      1  N   UNL     1      -0.020   1.094   2.454  0.00  0.00    -0.325 N 
ATOM      2  C   UNL     1      -0.310  -0.014   3.163  0.00  0.00    +0.202 A 
ATOM      3  N   UNL     1       0.535  -0.137   4.155  0.00  0.00    -0.218 NA
ATOM      4  C   UNL     1       1.399   0.881   4.142  0.00  0.00    +0.168 A 
ATOM      5  C   UNL     1       1.067   1.689   3.061  0.00  0.00    +0.151 A 
ATOM      6  C   UNL     1       1.830   2.850   2.811  0.00  0.00    +0.282 A 
ATOM      7  O   UNL     1       1.559   3.574   1.870  0.00  0.00    -0.265 OA
ATOM      8  N   UNL     1       2.862   3.149   3.628  0.00  0.00    -0.262 N 
ATOM      9  C   UNL     1       3.171   2.359   4.670  0.00  0.00    +0.333 A 
ATOM     10  O   UNL     1       4.108   2.659   5.384  0.00  0.00    -0.246 OA
ATOM     11  N   UNL     1       2.470   1.242   4.943  0.00  0.00    -0.280 N 
ATOM     12  C   UNL     1       2.840   0.408   6.089  0.00  0.00    +0.155 C 
ATOM     13  C   UNL     1       3.657   4.353   3.374  0.00  0.00    +0.157 C 
ENDROOT
BRANCH   1  14
ATOM     14  C   UNL     1      -0.729   1.579   1.267  0.00  0.00    +0.124 C 
BRANCH  14  15
ATOM     15  C   UNL     1      -0.013   1.086   0.008  0.00  0.00    +0.031 C 
BRANCH  15  16
ATOM     16  C   UNL     1      -0.753   1.593  -1.232  0.00  0.00    +0.097 C 
BRANCH  16  18
ATOM     17  N   UNL     1      -0.524   1.433  -3.689  0.00  0.00    -0.315 N 
ATOM     18  C   UNL     1      -0.047   1.107  -2.471  0.00  0.00    +0.213 C 
ATOM     19  O   UNL     1       0.949   0.422  -2.373  0.00  0.00    -0.276 OA
ATOM     20  H   UNL     1      -1.428   2.053  -3.778  0.00  0.00    +0.149 HD
BRANCH  17  21
ATOM     21  C   UNL     1       0.162   0.960  -4.895  0.00  0.00    +0.108 C 
BRANCH  21  25
ATOM     22  C   UNL     1      -0.111   2.236  -8.590  0.00  0.00    +0.008 C 
ATOM     23  C   UNL     1       0.049   1.176  -7.499  0.00  0.00    -0.009 C 
ATOM     24  C   UNL     1      -1.208   0.422  -7.057  0.00  0.00    +0.009 C 
ATOM     25  C   UNL     1      -0.578   1.467  -6.134  0.00  0.00    +0.009 C 
ENDBRANCH  21  25
ENDBRANCH  17  21
ENDBRANCH  16  18
ENDBRANCH  15  16
ENDBRANCH  14  15
ENDBRANCH   1  14
TORSDOF 6
