REMARK  Name = ZINC39468302
REMARK  7 active torsions:
REMARK  status: ('A' for Active; 'I' for Inactive)
REMARK    1  A    between atoms: C_1  and  S_2
REMARK    2  A    between atoms: S_2  and  P_3
REMARK    3  A    between atoms: C_11  and  S_28
REMARK    4  A    between atoms: C_12  and  C_21
REMARK    5  A    between atoms: C_26  and  O_27
REMARK    6  A    between atoms: S_28  and  O_31
REMARK    7  A    between atoms: O_31  and  C_32
REMARK                            x       y       z     vdW  Elec       q    Type
REMARK                         _______ _______ _______ _____ _____    ______ ____
ROOT
ATOM      1  P   UNL     1       1.399  -0.736  -2.160  0.00  0.00    +0.314 P 
ATOM      2  O   UNL     1       0.726  -0.287  -3.399  0.00  0.00    -0.262 OA
ATOM      3  N   UNL     1       1.597  -2.375  -2.174  0.00  0.00    -0.283 NA
ATOM      4  N   UNL     1       2.553  -2.914  -1.340  0.00  0.00    +0.398 N 
ATOM      5  C   UNL     1       2.590  -4.354  -1.641  0.00  0.00    -0.046 C 
ATOM      6  C   UNL     1       3.606  -5.069  -0.760  0.00  0.00    +0.006 C 
ATOM      7  C   UNL     1       3.247  -4.911   0.693  0.00  0.00    +0.006 C 
ATOM      8  C   UNL     1       4.186  -5.056   1.622  0.00  0.00    +0.132 C 
ATOM      9  C   UNL     1       5.569  -5.384   1.212  0.00  0.00    +0.010 C 
ATOM     10  C   UNL     1       5.971  -5.111  -0.040  0.00  0.00    -0.013 C 
ATOM     11  C   UNL     1       4.996  -4.471  -0.998  0.00  0.00    +0.016 C 
ATOM     12  C   UNL     1       4.933  -2.968  -0.724  0.00  0.00    -0.003 C 
ATOM     13  C   UNL     1       3.860  -2.306  -1.596  0.00  0.00    -0.020 C 
ATOM     14  C   UNL     1       3.861  -0.810  -1.253  0.00  0.00    +0.157 C 
ATOM     15  O   UNL     1       2.905  -0.126  -2.082  0.00  0.00    -0.312 OA
ATOM     16  H   UNL     1       1.058  -2.940  -2.750  0.00  0.00    +0.112 HD
ATOM     17  H   UNL     1       2.289  -2.762  -0.378  0.00  0.00    -0.055 HD
ENDROOT
BRANCH   9  18
ATOM     18  C   UNL     1       6.506  -6.009   2.177  0.00  0.00    +0.025 A 
ATOM     19  C   UNL     1       7.072  -5.248   3.197  0.00  0.00    +0.012 A 
ATOM     20  C   UNL     1       7.942  -5.834   4.093  0.00  0.00    +0.001 A 
ATOM     21  C   UNL     1       8.256  -7.178   3.982  0.00  0.00    +0.004 A 
ATOM     22  C   UNL     1       7.700  -7.943   2.974  0.00  0.00    +0.046 A 
ATOM     23  C   UNL     1       6.820  -7.368   2.071  0.00  0.00    +0.125 A 
BRANCH  23  24
ATOM     24  O   UNL     1       6.269  -8.120   1.083  0.00  0.00    -0.506 OA
ATOM     25  H   UNL     1       6.788  -8.139   0.267  0.00  0.00    +0.292 HD
ENDBRANCH  23  24
ENDBRANCH   9  18
BRANCH   8  26
ATOM     26  S   UNL     1       3.787  -4.860   3.327  0.00  0.00    +0.151 S 
ATOM     27  O   UNL     1       4.925  -5.291   4.062  0.00  0.00    -0.131 OA
ATOM     28  O   UNL     1       3.238  -3.558   3.468  0.00  0.00    -0.131 OA
BRANCH  26  29
ATOM     29  O   UNL     1       2.668  -5.841   3.643  0.00  0.00    -0.342 OA
BRANCH  29  30
ATOM     30  C   UNL     1       3.078  -7.133   3.747  0.00  0.00    +0.157 A 
ATOM     31  C   UNL     1       3.188  -7.920   2.610  0.00  0.00    +0.048 A 
ATOM     32  C   UNL     1       3.605  -9.233   2.717  0.00  0.00    +0.004 A 
ATOM     33  C   UNL     1       3.913  -9.762   3.957  0.00  0.00    +0.000 A 
ATOM     34  C   UNL     1       3.803  -8.980   5.092  0.00  0.00    +0.004 A 
ATOM     35  C   UNL     1       3.392  -7.665   4.989  0.00  0.00    +0.048 A 
ENDBRANCH  29  30
ENDBRANCH  26  29
ENDBRANCH   8  26
BRANCH   1  37
ATOM     36  C   UNL     1       0.274   1.666  -0.545  0.00  0.00    +0.096 C 
ATOM     37  S   UNL     1       0.277  -0.146  -0.461  0.00  0.00    -0.059 S 
ENDBRANCH   1  37
TORSDOF 6
