REMARK  Name = ZINC38658844
REMARK  13 active torsions:
REMARK  status: ('A' for Active; 'I' for Inactive)
REMARK    1  A    between atoms: C_1  and  O_2
REMARK    2  A    between atoms: O_2  and  C_3
REMARK    3  A    between atoms: C_7  and  C_11
REMARK    4  A    between atoms: C_8  and  O_9
REMARK    5  A    between atoms: O_9  and  C_10
REMARK    6  A    between atoms: C_16  and  O_25
REMARK    7  A    between atoms: C_20  and  N_24
REMARK    8  A    between atoms: C_21  and  C_22
REMARK    9  A    between atoms: O_25  and  C_26
REMARK   10  A    between atoms: C_26  and  C_28
REMARK   11  A    between atoms: C_28  and  O_29
REMARK   12  A    between atoms: O_29  and  C_30
REMARK   13  A    between atoms: C_33  and  N_36
REMARK                            x       y       z     vdW  Elec       q    Type
REMARK                         _______ _______ _______ _____ _____    ______ ____
ROOT
ATOM      1  C   UNL     1      -2.590  -4.211   0.053  0.00  0.00    +0.102 C 
ATOM      2  C   UNL     1      -3.312  -4.670  -1.186  0.00  0.00    +0.008 A 
ATOM      3  C   UNL     1      -2.689  -4.560  -2.417  0.00  0.00    +0.012 A 
ATOM      4  C   UNL     1      -3.336  -4.975  -3.564  0.00  0.00    +0.047 A 
ATOM      5  C   UNL     1      -4.616  -5.506  -3.484  0.00  0.00    +0.135 A 
ATOM      6  C   UNL     1      -5.242  -5.617  -2.254  0.00  0.00    +0.093 A 
ATOM      7  C   UNL     1      -4.590  -5.198  -1.101  0.00  0.00    +0.138 A 
ATOM      8  O   UNL     1      -5.217  -5.314   0.096  0.00  0.00    -0.441 OA
ATOM      9  C   UNL     1      -4.500  -5.290   1.232  0.00  0.00    +0.199 C 
ATOM     10  C   UNL     1      -3.251  -4.780   1.277  0.00  0.00    +0.098 C 
ENDROOT
BRANCH   1  15
ATOM     11  C   UNL     1      -1.474  -0.596   0.189  0.00  0.00    +0.162 A 
ATOM     12  C   UNL     1      -2.692   0.062   0.249  0.00  0.00    +0.049 A 
ATOM     13  C   UNL     1      -3.869  -0.662   0.244  0.00  0.00    +0.004 A 
ATOM     14  C   UNL     1      -3.835  -2.043   0.181  0.00  0.00    +0.008 A 
ATOM     15  C   UNL     1      -2.623  -2.705   0.122  0.00  0.00    +0.011 A 
ATOM     16  C   UNL     1      -1.439  -1.985   0.120  0.00  0.00    +0.166 A 
BRANCH  11  18
ATOM     17  C   UNL     1      -0.426   1.538   0.267  0.00  0.00    +0.277 C 
ATOM     18  O   UNL     1      -0.314   0.115   0.194  0.00  0.00    -0.491 OA
ENDBRANCH  11  18
BRANCH  16  19
ATOM     19  O   UNL     1      -0.246  -2.635   0.055  0.00  0.00    -0.491 OA
ATOM     20  C   UNL     1       0.357  -3.008   1.296  0.00  0.00    +0.277 C 
ENDBRANCH  16  19
ENDBRANCH   1  15
BRANCH   9  21
ATOM     21  N   UNL     1      -5.056  -5.798   2.380  0.00  0.00    -0.328 N 
ATOM     22  H   UNL     1      -5.953  -6.167   2.363  0.00  0.00    +0.145 HD
ATOM     23  H   UNL     1      -4.551  -5.788   3.208  0.00  0.00    +0.145 HD
ENDBRANCH   9  21
BRANCH  10  24
ATOM     24  C   UNL     1      -2.541  -4.783   2.520  0.00  0.00    +0.101 C 
ATOM     25  N   UNL     1      -1.977  -4.786   3.507  0.00  0.00    -0.191 NA
ENDBRANCH  10  24
BRANCH   5  26
ATOM     26  O   UNL     1      -5.254  -5.915  -4.612  0.00  0.00    -0.423 OA
BRANCH  26  27
ATOM     27  C   UNL     1      -6.312  -5.203  -5.032  0.00  0.00    +0.350 C 
ATOM     28  O   UNL     1      -6.607  -4.173  -4.473  0.00  0.00    -0.247 OA
BRANCH  27  29
ATOM     29  C   UNL     1      -7.131  -5.688  -6.200  0.00  0.00    +0.349 C 
BRANCH  29  30
ATOM     30  O   UNL     1      -8.193  -4.765  -6.452  0.00  0.00    -0.481 OA
BRANCH  30  31
ATOM     31  C   UNL     1      -9.032  -5.056  -7.481  0.00  0.00    +0.121 A 
ATOM     32  C   UNL     1      -8.840  -6.209  -8.229  0.00  0.00    +0.048 A 
ATOM     33  C   UNL     1      -9.695  -6.503  -9.274  0.00  0.00    +0.036 A 
ATOM     34  C   UNL     1     -10.740  -5.649  -9.575  0.00  0.00    +0.126 A 
ATOM     35  C   UNL     1     -10.933  -4.500  -8.832  0.00  0.00    +0.036 A 
ATOM     36  C   UNL     1     -10.085  -4.204  -7.782  0.00  0.00    +0.048 A 
BRANCH  34  37
ATOM     37  N   UNL     1     -11.654  -5.967 -10.695  0.00  0.00    +0.056 N 
ATOM     38  O   UNL     1     -11.486  -6.971 -11.347  0.00  0.00    -0.126 OA
ATOM     39  O   UNL     1     -12.568  -5.221 -10.959  0.00  0.00    -0.126 OA
ENDBRANCH  34  37
ENDBRANCH  30  31
ENDBRANCH  29  30
ENDBRANCH  27  29
ENDBRANCH  26  27
ENDBRANCH   5  26
TORSDOF 11
