REMARK  Name = ZINC35004532
REMARK  13 active torsions:
REMARK  status: ('A' for Active; 'I' for Inactive)
REMARK    1  A    between atoms: C_1  and  C_2
REMARK    2  A    between atoms: C_2  and  C_3
REMARK    3  A    between atoms: C_3  and  C_4
REMARK    4  A    between atoms: C_4  and  N_5
REMARK    5  A    between atoms: C_13  and  C_15
REMARK    6  A    between atoms: C_16  and  C_18
REMARK    7  A    between atoms: C_18  and  C_20
REMARK    8  A    between atoms: C_18  and  N_25
REMARK    9  A    between atoms: C_20  and  C_22
REMARK   10  A    between atoms: C_20  and  C_23
REMARK   11  A    between atoms: C_23  and  C_24
REMARK   12  A    between atoms: N_28  and  C_29
REMARK   13  A    between atoms: C_34  and  C_35
REMARK                            x       y       z     vdW  Elec       q    Type
REMARK                         _______ _______ _______ _____ _____    ______ ____
ROOT
ATOM      1  C   UNL     1       3.162  -4.202  -9.154  0.00  0.00    +0.163 C 
ENDROOT
BRANCH   1  12
ATOM      2  N   UNL     1       2.557  -3.367  -2.584  0.00  0.00    -0.299 N 
ATOM      3  C   UNL     1       2.627  -4.630  -3.051  0.00  0.00    +0.303 C 
ATOM      4  O   UNL     1       2.417  -5.566  -2.305  0.00  0.00    -0.253 OA
ATOM      5  N   UNL     1       2.930  -4.854  -4.345  0.00  0.00    -0.280 N 
ATOM      6  C   UNL     1       3.314  -3.743  -5.227  0.00  0.00    +0.128 C 
ATOM      7  C   UNL     1       2.385  -3.742  -6.447  0.00  0.00    +0.127 C 
ATOM      8  N   UNL     1       2.338  -5.102  -7.002  0.00  0.00    -0.297 N 
ATOM      9  C   UNL     1       1.953  -6.214  -6.120  0.00  0.00    +0.130 C 
ATOM     10  C   UNL     1       2.887  -6.215  -4.898  0.00  0.00    +0.092 C 
ATOM     11  C   UNL     1       2.352  -7.183  -3.841  0.00  0.00    +0.030 C 
ATOM     12  C   UNL     1       2.640  -5.327  -8.296  0.00  0.00    +0.236 C 
ATOM     13  O   UNL     1       2.493  -6.433  -8.770  0.00  0.00    -0.274 OA
ATOM     14  H   UNL     1       2.796  -2.624  -3.159  0.00  0.00    +0.150 HD
BRANCH   2  15
ATOM     15  C   UNL     1       2.121  -3.118  -1.208  0.00  0.00    +0.106 C 
BRANCH  15  16
ATOM     16  C   UNL     1       2.131  -1.613  -0.934  0.00  0.00    +0.018 C 
BRANCH  16  18
ATOM     17  C   UNL     1       1.685   0.152   0.776  0.00  0.00    +0.004 C 
ATOM     18  C   UNL     1       1.675  -1.353   0.503  0.00  0.00    -0.002 C 
ENDBRANCH  16  18
ENDBRANCH  15  16
ENDBRANCH   2  15
ENDBRANCH   1  12
BRANCH   1  19
ATOM     19  N   UNL     1       3.619  -4.740 -10.438  0.00  0.00    -0.288 N 
ATOM     20  C   UNL     1       4.638  -4.147 -11.091  0.00  0.00    +0.304 C 
ATOM     21  O   UNL     1       5.238  -3.225 -10.574  0.00  0.00    -0.252 OA
ATOM     22  N   UNL     1       4.991  -4.576 -12.319  0.00  0.00    -0.269 N 
ATOM     23  H   UNL     1       3.189  -5.522 -10.817  0.00  0.00    +0.151 HD
ATOM     24  H   UNL     1       4.569  -5.363 -12.698  0.00  0.00    +0.156 HD
BRANCH  22  25
ATOM     25  C   UNL     1       5.968  -3.887 -13.047  0.00  0.00    +0.046 A 
ATOM     26  C   UNL     1       6.218  -2.548 -12.781  0.00  0.00    +0.024 A 
ATOM     27  C   UNL     1       7.183  -1.871 -13.501  0.00  0.00    +0.002 A 
ATOM     28  C   UNL     1       7.899  -2.525 -14.486  0.00  0.00    +0.001 A 
ATOM     29  C   UNL     1       7.651  -3.859 -14.755  0.00  0.00    +0.014 A 
ATOM     30  C   UNL     1       6.692  -4.543 -14.034  0.00  0.00    +0.076 A 
BRANCH  30  31
ATOM     31  C   UNL     1       6.427  -5.998 -14.322  0.00  0.00    +0.419 C 
ATOM     32  F   UNL     1       7.274  -6.432 -15.348  0.00  0.00    -0.166 F 
ATOM     33  F   UNL     1       6.667  -6.754 -13.169  0.00  0.00    -0.166 F 
ATOM     34  F   UNL     1       5.095  -6.161 -14.717  0.00  0.00    -0.166 F 
ENDBRANCH  30  31
ENDBRANCH  22  25
ENDBRANCH   1  19
BRANCH   1  35
ATOM     35  C   UNL     1       2.045  -3.185  -9.395  0.00  0.00    +0.015 C 
ATOM     36  C   UNL     1       2.617  -1.960 -10.111  0.00  0.00    +0.010 C 
BRANCH  35  37
ATOM     37  C   UNL     1       0.955  -3.820 -10.262  0.00  0.00    +0.002 C 
ATOM     38  C   UNL     1       0.108  -4.764  -9.406  0.00  0.00    +0.004 C 
ENDBRANCH  35  37
ENDBRANCH   1  35
TORSDOF 9
