REMARK  Name = ZINC66586786
REMARK  12 active torsions:
REMARK  status: ('A' for Active; 'I' for Inactive)
REMARK    1  A    between atoms: C_1  and  C_2
REMARK    2  A    between atoms: N_6  and  C_7
REMARK    3  A    between atoms: C_7  and  C_8
REMARK    4  A    between atoms: C_8  and  C_9
REMARK    5  A    between atoms: C_9  and  N_10
REMARK    6  A    between atoms: N_10  and  C_11
REMARK    7  A    between atoms: C_11  and  C_12
REMARK    8  A    between atoms: N_14  and  C_24
REMARK    9  A    between atoms: C_16  and  C_17
REMARK   10  A    between atoms: C_24  and  C_25
REMARK   11  A    between atoms: C_24  and  C_26
REMARK   12  A    between atoms: C_24  and  C_27
REMARK                            x       y       z     vdW  Elec       q    Type
REMARK                         _______ _______ _______ _____ _____    ______ ____
ROOT
ATOM      1  C   UNL     1      -4.175   1.306   6.740  0.00  0.00    -0.019 A 
ATOM      2  C   UNL     1      -4.757   2.515   6.899  0.00  0.00    +0.111 A 
ATOM      3  N   UNL     1      -6.038   2.315   7.275  0.00  0.00    -0.265 N 
ATOM      4  N   UNL     1      -6.260   0.934   7.352  0.00  0.00    -0.170 NA
ATOM      5  C   UNL     1      -5.141   0.322   7.025  0.00  0.00    +0.095 A 
ENDROOT
BRANCH   5   6
ATOM      6  C   UNL     1      -4.934  -1.147   6.969  0.00  0.00    +0.021 A 
ATOM      7  C   UNL     1      -3.827  -1.721   7.589  0.00  0.00    +0.011 A 
ATOM      8  C   UNL     1      -3.639  -3.087   7.534  0.00  0.00    +0.001 A 
ATOM      9  C   UNL     1      -4.547  -3.887   6.864  0.00  0.00    +0.001 A 
ATOM     10  C   UNL     1      -5.649  -3.323   6.247  0.00  0.00    +0.020 A 
ATOM     11  C   UNL     1      -5.850  -1.957   6.300  0.00  0.00    +0.050 A 
ATOM     12 CL   UNL     1      -7.237  -1.252   5.530  0.00  0.00    -0.083 Cl
ENDBRANCH   5   6
BRANCH   3  13
ATOM     13  C   UNL     1      -7.025   3.361   7.554  0.00  0.00    +0.055 C 
ATOM     14  C   UNL     1      -7.504   3.975   6.237  0.00  0.00    +0.036 C 
ATOM     15  C   UNL     1      -8.217   2.753   8.296  0.00  0.00    +0.036 C 
ATOM     16  C   UNL     1      -6.386   4.448   8.421  0.00  0.00    +0.036 C 
ENDBRANCH   3  13
BRANCH   1  17
ATOM     17  C   UNL     1      -2.748   1.056   6.326  0.00  0.00    -0.043 C 
BRANCH  17  18
ATOM     18  N   UNL     1      -2.714   0.634   4.919  0.00  0.00    +0.382 N 
ATOM     19  H   UNL     1      -3.109   1.360   4.340  0.00  0.00    -0.085 HD
ATOM     20  H   UNL     1      -3.250  -0.214   4.809  0.00  0.00    -0.085 HD
BRANCH  18  21
ATOM     21  C   UNL     1      -1.323   0.390   4.515  0.00  0.00    -0.080 C 
BRANCH  21  22
ATOM     22  C   UNL     1      -1.287  -0.050   3.050  0.00  0.00    +0.003 C 
BRANCH  22  23
ATOM     23  C   UNL     1       0.162  -0.304   2.629  0.00  0.00    +0.121 C 
BRANCH  23  29
ATOM     24  C   UNL     1       0.200   1.593   0.179  0.00  0.00    +0.084 C 
ATOM     25  C   UNL     1       0.213   0.086   0.146  0.00  0.00    +0.084 A 
ATOM     26  N   UNL     1       0.249  -0.651  -0.930  0.00  0.00    -0.350 N 
ATOM     27  C   UNL     1       0.251  -1.945  -0.580  0.00  0.00    +0.101 A 
ATOM     28  C   UNL     1       0.215  -2.013   0.765  0.00  0.00    +0.104 A 
ATOM     29  N   UNL     1       0.196  -0.725   1.226  0.00  0.00    -0.336 N 
ATOM     30  H   UNL     1       0.270  -0.315  -1.840  0.00  0.00    +0.166 HD
ENDBRANCH  23  29
ENDBRANCH  22  23
ENDBRANCH  21  22
ENDBRANCH  18  21
ENDBRANCH  17  18
ENDBRANCH   1  17
TORSDOF 8
