REMARK  Name = ZINC36644220
REMARK  9 active torsions:
REMARK  status: ('A' for Active; 'I' for Inactive)
REMARK    1  A    between atoms: C_1  and  C_2
REMARK    2  A    between atoms: C_2  and  O_4
REMARK    3  A    between atoms: O_4  and  C_5
REMARK    4  A    between atoms: C_11  and  O_16
REMARK    5  A    between atoms: O_16  and  C_17
REMARK    6  A    between atoms: C_17  and  C_19
REMARK    7  A    between atoms: C_21  and  N_23
REMARK    8  A    between atoms: C_31  and  N_32
REMARK    9  A    between atoms: N_32  and  C_33
REMARK                            x       y       z     vdW  Elec       q    Type
REMARK                         _______ _______ _______ _____ _____    ______ ____
ROOT
ATOM      1  C   UNL     1       0.020  -2.096  -1.097  0.00  0.00    +0.269 C 
ATOM      2  C   UNL     1      -0.672  -2.702  -2.336  0.00  0.00    +0.254 C 
ATOM      3  C   UNL     1       0.290  -3.872  -2.724  0.00  0.00    +0.217 C 
ATOM      4  C   UNL     1       0.159  -3.860  -4.265  0.00  0.00    +0.316 C 
ATOM      5  C   UNL     1      -0.438  -2.503  -4.581  0.00  0.00    +0.352 C 
ATOM      6  O   UNL     1      -0.768  -2.120  -5.679  0.00  0.00    -0.247 OA
ATOM      7  O   UNL     1      -0.559  -1.784  -3.437  0.00  0.00    -0.452 OA
ATOM      8  O   UNL     1       1.593  -3.385  -2.353  0.00  0.00    -0.341 OA
ATOM      9  C   UNL     1       1.468  -2.616  -1.161  0.00  0.00    +0.267 C 
ENDROOT
BRANCH   9  10
ATOM     10  N   UNL     1       1.741  -3.472  -0.004  0.00  0.00    -0.285 N 
ATOM     11  C   UNL     1       1.647  -4.831   0.034  0.00  0.00    +0.203 A 
ATOM     12  N   UNL     1       1.961  -5.266   1.219  0.00  0.00    -0.231 NA
ATOM     13  C   UNL     1       2.275  -4.216   2.016  0.00  0.00    +0.147 A 
ATOM     14  C   UNL     1       2.142  -3.053   1.239  0.00  0.00    +0.167 A 
ATOM     15  N   UNL     1       2.402  -1.873   1.794  0.00  0.00    -0.216 NA
ATOM     16  C   UNL     1       2.781  -1.792   3.052  0.00  0.00    +0.225 A 
ATOM     17  N   UNL     1       2.922  -2.857   3.820  0.00  0.00    -0.219 NA
ATOM     18  C   UNL     1       2.677  -4.078   3.355  0.00  0.00    +0.149 A 
BRANCH  18  19
ATOM     19  N   UNL     1       2.829  -5.188   4.167  0.00  0.00    -0.330 N 
ATOM     20  C   UNL     1       3.249  -5.024   5.561  0.00  0.00    +0.127 C 
ATOM     21  H   UNL     1       2.658  -6.075   3.814  0.00  0.00    +0.147 HD
ENDBRANCH  18  19
ENDBRANCH   9  10
BRANCH   1  22
ATOM     22  O   UNL     1       0.000  -0.669  -1.164  0.00  0.00    -0.453 OA
BRANCH  22  24
ATOM     23  C   UNL     1      -0.018   1.503   0.010  0.00  0.00    +0.136 C 
ATOM     24  C   UNL     1       0.002  -0.004   0.002  0.00  0.00    +0.304 C 
ATOM     25  O   UNL     1       0.020  -0.614   1.045  0.00  0.00    -0.251 OA
ENDBRANCH  22  24
ENDBRANCH   1  22
BRANCH   4  26
ATOM     26  O   UNL     1       1.443  -3.998  -4.877  0.00  0.00    -0.447 OA
BRANCH  26  27
ATOM     27  C   UNL     1       1.486  -4.605  -6.073  0.00  0.00    +0.305 C 
ATOM     28  O   UNL     1       0.468  -5.006  -6.584  0.00  0.00    -0.251 OA
ATOM     29  C   UNL     1       2.805  -4.787  -6.779  0.00  0.00    +0.136 C 
ENDBRANCH  26  27
ENDBRANCH   4  26
TORSDOF 6
