REMARK  Name = ZINC40927828
REMARK  9 active torsions:
REMARK  status: ('A' for Active; 'I' for Inactive)
REMARK    1  A    between atoms: C_1  and  C_2
REMARK    2  A    between atoms: C_2  and  C_3
REMARK    3  A    between atoms: C_2  and  N_4
REMARK    4  A    between atoms: C_5  and  C_7
REMARK    5  A    between atoms: C_7  and  N_8
REMARK    6  A    between atoms: C_14  and  C_16
REMARK    7  A    between atoms: N_19  and  C_22
REMARK    8  A    between atoms: C_22  and  C_23
REMARK    9  A    between atoms: C_25  and  C_28
REMARK                            x       y       z     vdW  Elec       q    Type
REMARK                         _______ _______ _______ _____ _____    ______ ____
ROOT
ATOM      1  C   UNL     1      -7.230  -3.279  -5.634  0.00  0.00    +0.072 C 
ATOM      2  C   UNL     1      -7.665  -3.647  -4.212  0.00  0.00    -0.006 C 
ATOM      3  C   UNL     1      -9.171  -3.916  -4.198  0.00  0.00    -0.077 C 
ATOM      4  N   UNL     1      -9.482  -5.025  -5.109  0.00  0.00    +0.386 N 
ATOM      5  C   UNL     1      -9.134  -4.651  -6.485  0.00  0.00    -0.077 C 
ATOM      6  C   UNL     1      -7.626  -4.411  -6.587  0.00  0.00    -0.006 C 
ATOM      7  H   UNL     1      -8.952  -5.840  -4.838  0.00  0.00    -0.081 HD
ENDROOT
BRANCH   1  14
ATOM      8  N   UNL     1      -4.146   0.658  -5.508  0.00  0.00    -0.291 NA
ATOM      9  C   UNL     1      -5.583   0.453  -5.732  0.00  0.00    +0.104 C 
ATOM     10  C   UNL     1      -6.051  -0.771  -4.936  0.00  0.00    +0.123 C 
ATOM     11  N   UNL     1      -5.196  -1.914  -5.293  0.00  0.00    -0.299 N 
ATOM     12  C   UNL     1      -3.737  -1.739  -5.225  0.00  0.00    +0.123 C 
ATOM     13  C   UNL     1      -3.361  -0.477  -6.009  0.00  0.00    +0.104 C 
ATOM     14  C   UNL     1      -5.736  -3.090  -5.670  0.00  0.00    +0.219 C 
ATOM     15  O   UNL     1      -5.018  -3.995  -6.040  0.00  0.00    -0.275 OA
BRANCH   8  16
ATOM     16  C   UNL     1      -3.694   1.919  -6.113  0.00  0.00    +0.180 C 
BRANCH  16  18
ATOM     17  N   UNL     1      -4.076   4.341  -5.791  0.00  0.00    -0.312 N 
ATOM     18  C   UNL     1      -4.344   3.078  -5.404  0.00  0.00    +0.227 C 
ATOM     19  O   UNL     1      -5.109   2.875  -4.484  0.00  0.00    -0.274 OA
ATOM     20  H   UNL     1      -3.465   4.503  -6.526  0.00  0.00    +0.149 HD
BRANCH  17  22
ATOM     21  C   UNL     1      -3.890   5.831  -3.860  0.00  0.00    +0.027 C 
ATOM     22  C   UNL     1      -4.708   5.468  -5.101  0.00  0.00    +0.067 C 
ATOM     23  C   UNL     1      -4.768   6.673  -6.042  0.00  0.00    +0.027 C 
ENDBRANCH  17  22
ENDBRANCH  16  18
ENDBRANCH   8  16
ENDBRANCH   1  14
BRANCH   4  24
ATOM     24  C   UNL     1     -10.917  -5.330  -5.034  0.00  0.00    +0.022 C 
BRANCH  24  25
ATOM     25  C   UNL     1     -11.216  -6.545  -5.874  0.00  0.00    +0.211 A 
ATOM     26  N   UNL     1     -11.197  -7.780  -5.460  0.00  0.00    -0.193 NA
ATOM     27  C   UNL     1     -11.514  -8.609  -6.470  0.00  0.00    +0.202 A 
ATOM     28  N   UNL     1     -11.739  -7.894  -7.544  0.00  0.00    -0.056 NA
ATOM     29  O   UNL     1     -11.553  -6.537  -7.170  0.00  0.00    -0.340 OA
BRANCH  27  30
ATOM     30  C   UNL     1     -11.595 -10.089  -6.383  0.00  0.00    +0.023 A 
ATOM     31  C   UNL     1     -11.335 -10.733  -5.175  0.00  0.00    +0.013 A 
ATOM     32  C   UNL     1     -11.411 -12.108  -5.099  0.00  0.00    +0.021 A 
ATOM     33  C   UNL     1     -11.744 -12.849  -6.220  0.00  0.00    +0.041 A 
ATOM     34  C   UNL     1     -12.002 -12.213  -7.423  0.00  0.00    +0.021 A 
ATOM     35  C   UNL     1     -11.935 -10.838  -7.508  0.00  0.00    +0.013 A 
ATOM     36 CL   UNL     1     -11.838 -14.579  -6.118  0.00  0.00    -0.084 Cl
ENDBRANCH  27  30
ENDBRANCH  24  25
ENDBRANCH   4  24
TORSDOF 7
