REMARK  Name = ZINC39503251
REMARK  7 active torsions:
REMARK  status: ('A' for Active; 'I' for Inactive)
REMARK    1  A    between atoms: C_4  and  C_7
REMARK    2  A    between atoms: C_7  and  N_8
REMARK    3  A    between atoms: C_10  and  S_26
REMARK    4  A    between atoms: C_16  and  C_19
REMARK    5  A    between atoms: C_24  and  O_25
REMARK    6  A    between atoms: S_26  and  O_29
REMARK    7  A    between atoms: O_29  and  C_30
REMARK                            x       y       z     vdW  Elec       q    Type
REMARK                         _______ _______ _______ _____ _____    ______ ____
ROOT
ATOM      1  N   UNL     1       4.344  -0.716   1.539  0.00  0.00    +0.388 N 
ATOM      2  C   UNL     1       3.464  -1.733   2.158  0.00  0.00    -0.048 C 
ATOM      3  C   UNL     1       4.388  -2.526   3.116  0.00  0.00    +0.154 C 
ATOM      4  C   UNL     1       5.716  -2.566   2.313  0.00  0.00    +0.016 C 
ATOM      5  C   UNL     1       5.728  -1.203   1.602  0.00  0.00    -0.063 C 
ATOM      6  C   UNL     1       6.322  -1.340   0.196  0.00  0.00    -0.011 C 
ATOM      7  C   UNL     1       7.565  -0.424   0.156  0.00  0.00    +0.007 C 
ATOM      8  C   UNL     1       7.298   0.626   1.264  0.00  0.00    +0.021 C 
ATOM      9  C   UNL     1       6.614  -0.212   2.375  0.00  0.00    -0.004 C 
ATOM     10  H   UNL     1       4.265   0.153   2.046  0.00  0.00    -0.080 HD
ENDROOT
BRANCH   8  11
ATOM     11  C   UNL     1       8.592   1.220   1.759  0.00  0.00    -0.003 A 
ATOM     12  C   UNL     1       9.570   0.401   2.290  0.00  0.00    +0.007 A 
ATOM     13  C   UNL     1      10.757   0.945   2.745  0.00  0.00    +0.001 A 
ATOM     14  C   UNL     1      10.969   2.309   2.669  0.00  0.00    +0.004 A 
ATOM     15  C   UNL     1       9.994   3.132   2.139  0.00  0.00    +0.046 A 
ATOM     16  C   UNL     1       8.804   2.588   1.677  0.00  0.00    +0.120 A 
BRANCH  16  17
ATOM     17  O   UNL     1       7.846   3.395   1.150  0.00  0.00    -0.506 OA
ATOM     18  H   UNL     1       7.214   3.731   1.800  0.00  0.00    +0.292 HD
ENDBRANCH  16  17
ENDBRANCH   8  11
BRANCH   3  19
ATOM     19  S   UNL     1       3.748  -4.199   3.400  0.00  0.00    +0.122 S 
ATOM     20  O   UNL     1       3.580  -4.875   2.162  0.00  0.00    -0.137 OA
ATOM     21  O   UNL     1       4.446  -4.815   4.473  0.00  0.00    -0.137 OA
BRANCH  19  22
ATOM     22  O   UNL     1       2.334  -3.993   3.924  0.00  0.00    -0.346 OA
BRANCH  22  23
ATOM     23  C   UNL     1       2.278  -3.573   5.215  0.00  0.00    +0.156 A 
ATOM     24  C   UNL     1       2.304  -4.498   6.249  0.00  0.00    +0.048 A 
ATOM     25  C   UNL     1       2.248  -4.069   7.561  0.00  0.00    +0.004 A 
ATOM     26  C   UNL     1       2.166  -2.718   7.844  0.00  0.00    +0.000 A 
ATOM     27  C   UNL     1       2.140  -1.794   6.816  0.00  0.00    +0.004 A 
ATOM     28  C   UNL     1       2.202  -2.218   5.503  0.00  0.00    +0.048 A 
ENDBRANCH  22  23
ENDBRANCH  19  22
ENDBRANCH   3  19
BRANCH   1  29
ATOM     29  C   UNL     1       3.954  -0.511   0.138  0.00  0.00    -0.042 C 
BRANCH  29  33
ATOM     30  C   UNL     1       0.002   1.103  -0.023  0.00  0.00    +0.000 A 
ATOM     31  C   UNL     1       1.085   1.942   0.165  0.00  0.00    +0.000 A 
ATOM     32  C   UNL     1       2.363   1.420   0.217  0.00  0.00    +0.002 A 
ATOM     33  C   UNL     1       2.560   0.059   0.082  0.00  0.00    -0.064 A 
ATOM     34  C   UNL     1       1.478  -0.781  -0.105  0.00  0.00    +0.002 A 
ATOM     35  C   UNL     1       0.199  -0.259  -0.158  0.00  0.00    +0.000 A 
ENDBRANCH  29  33
ENDBRANCH   1  29
TORSDOF 7
