REMARK  Name = ZINC05725854
REMARK  8 active torsions:
REMARK  status: ('A' for Active; 'I' for Inactive)
REMARK    1  A    between atoms: C_2  and  C_3
REMARK    2  A    between atoms: C_3  and  O_4
REMARK    3  A    between atoms: O_4  and  C_5
REMARK    4  A    between atoms: C_9  and  C_12
REMARK    5  A    between atoms: C_10  and  O_11
REMARK    6  A    between atoms: N_13  and  N_14
REMARK    7  A    between atoms: C_15  and  C_17
REMARK    8  A    between atoms: C_26  and  O_27
REMARK                            x       y       z     vdW  Elec       q    Type
REMARK                         _______ _______ _______ _____ _____    ______ ____
ROOT
ATOM      1  N   UNL     1      -3.754   3.417   0.058  0.00  0.00    -0.203 N 
ATOM      2  C   UNL     1      -3.721   2.070   0.050  0.00  0.00    +0.267 C 
ATOM      3  O   UNL     1      -4.758   1.435   0.057  0.00  0.00    -0.268 OA
ATOM      4  H   UNL     1      -2.926   3.923   0.052  0.00  0.00    +0.178 HD
ENDROOT
BRANCH   2   5
ATOM      5  C   UNL     1      -2.425   1.364   0.034  0.00  0.00    +0.080 A 
ATOM      6  C   UNL     1      -1.245   2.091   0.031  0.00  0.00    +0.025 A 
ATOM      7  C   UNL     1      -0.017   1.415   0.010  0.00  0.00    -0.017 A 
ATOM      8  C   UNL     1       1.200   2.121   0.002  0.00  0.00    +0.008 A 
ATOM      9  C   UNL     1       2.376   1.436  -0.013  0.00  0.00    +0.001 A 
ATOM     10  C   UNL     1       2.394   0.043  -0.021  0.00  0.00    +0.001 A 
ATOM     11  C   UNL     1       1.238  -0.674  -0.013  0.00  0.00    +0.008 A 
ATOM     12  C   UNL     1       0.002  -0.004   0.002  0.00  0.00    -0.014 A 
ATOM     13  C   UNL     1      -1.208  -0.718   0.010  0.00  0.00    +0.054 A 
ATOM     14  C   UNL     1      -2.395  -0.047   0.026  0.00  0.00    +0.130 A 
BRANCH  14  15
ATOM     15  O   UNL     1      -3.560  -0.743   0.033  0.00  0.00    -0.506 OA
ATOM     16  H   UNL     1      -3.889  -0.950   0.918  0.00  0.00    +0.292 HD
ENDBRANCH  14  15
ENDBRANCH   2   5
BRANCH   1  18
ATOM     17  C   UNL     1      -5.017   5.385   0.081  0.00  0.00    +0.142 C 
ATOM     18  N   UNL     1      -4.984   4.087   0.073  0.00  0.00    -0.187 NA
BRANCH  17  23
ATOM     19  C   UNL     1      -8.722   6.037   0.120  0.00  0.00    +0.163 A 
ATOM     20  C   UNL     1      -8.745   7.423   0.127  0.00  0.00    +0.049 A 
ATOM     21  C   UNL     1      -7.563   8.142   0.120  0.00  0.00    +0.004 A 
ATOM     22  C   UNL     1      -6.350   7.486   0.105  0.00  0.00    +0.013 A 
ATOM     23  C   UNL     1      -6.311   6.090   0.097  0.00  0.00    +0.040 A 
ATOM     24  C   UNL     1      -7.508   5.363   0.100  0.00  0.00    +0.167 A 
BRANCH  24  25
ATOM     25  O   UNL     1      -7.482   4.004   0.087  0.00  0.00    -0.503 OA
ATOM     26  H   UNL     1      -7.468   3.603   0.966  0.00  0.00    +0.292 HD
ENDBRANCH  24  25
BRANCH  19  27
ATOM     27  O   UNL     1      -9.889   5.338   0.127  0.00  0.00    -0.484 OA
BRANCH  27  28
ATOM     28  C   UNL     1     -11.100   6.096   0.142  0.00  0.00    +0.256 C 
BRANCH  28  30
ATOM     29  C   UNL     1     -13.284   5.374   0.960  0.00  0.00    +0.007 C 
ATOM     30  C   UNL     1     -12.280   5.158   0.147  0.00  0.00    +0.006 C 
ENDBRANCH  28  30
ENDBRANCH  27  28
ENDBRANCH  19  27
ENDBRANCH  17  23
ENDBRANCH   1  18
TORSDOF 8
