REMARK  Name = ZINC63362055
REMARK  6 active torsions:
REMARK  status: ('A' for Active; 'I' for Inactive)
REMARK    1  A    between atoms: C_1  and  C_2
REMARK    2  A    between atoms: C_9  and  N_17
REMARK    3  A    between atoms: N_17  and  C_18
REMARK    4  A    between atoms: C_18  and  C_19
REMARK    5  A    between atoms: C_25  and  C_37
REMARK    6  A    between atoms: C_29  and  C_36
REMARK                            x       y       z     vdW  Elec       q    Type
REMARK                         _______ _______ _______ _____ _____    ______ ____
ROOT
ATOM      1  N   UNL     1      -1.167  -6.471   1.572  0.00  0.00    -0.310 NA
ATOM      2  H   UNL     1      -0.685  -6.455   0.686  0.00  0.00    +0.122 HD
ENDROOT
BRANCH   1  10
ATOM      3  C   UNL     1      -0.669   1.712   0.125  0.00  0.00    +0.044 C 
ATOM      4  C   UNL     1      -0.581   0.207   0.122  0.00  0.00    -0.050 A 
ATOM      5  C   UNL     1      -0.507  -0.470  -1.103  0.00  0.00    +0.005 A 
ATOM      6  C   UNL     1      -0.422  -1.814  -1.188  0.00  0.00    +0.026 A 
ATOM      7  C   UNL     1      -0.405  -2.611  -0.011  0.00  0.00    +0.043 A 
ATOM      8  N   UNL     1      -0.351  -3.912   0.162  0.00  0.00    -0.376 N 
ATOM      9  C   UNL     1      -0.277  -4.186   1.594  0.00  0.00    +0.123 C 
ATOM     10  C   UNL     1      -1.404  -5.108   2.067  0.00  0.00    +0.080 C 
ATOM     11  C   UNL     1      -1.421  -5.109   3.599  0.00  0.00    +0.021 C 
ATOM     12  C   UNL     1      -1.787  -3.731   4.147  0.00  0.00    +0.006 C 
ATOM     13  C   UNL     1      -0.706  -2.707   3.760  0.00  0.00    +0.033 C 
ATOM     14  C   UNL     1      -0.470  -2.841   2.273  0.00  0.00    -0.037 C 
ATOM     15  C   UNL     1      -0.489  -1.920   1.300  0.00  0.00    -0.001 A 
ATOM     16  C   UNL     1      -0.569  -0.453   1.301  0.00  0.00    +0.013 A 
ATOM     17  H   UNL     1      -0.360  -4.578  -0.543  0.00  0.00    +0.160 HD
ENDBRANCH   1  10
BRANCH   1  18
ATOM     18  C   UNL     1      -2.426  -7.221   1.472  0.00  0.00    +0.096 C 
BRANCH  18  19
ATOM     19  C   UNL     1      -2.140  -8.632   0.954  0.00  0.00    +0.118 C 
ATOM     20  C   UNL     1      -3.469  -9.428   0.768  0.00  0.00    +0.049 C 
ATOM     21  C   UNL     1      -3.235 -10.367  -0.418  0.00  0.00    +0.039 C 
ATOM     22  C   UNL     1      -4.156 -11.566  -0.325  0.00  0.00    -0.064 C 
ATOM     23  C   UNL     1      -4.914 -11.852  -1.341  0.00  0.00    -0.073 C 
ATOM     24  C   UNL     1      -5.857 -13.023  -1.352  0.00  0.00    +0.030 C 
ATOM     25  C   UNL     1      -5.306 -14.102  -0.413  0.00  0.00    +0.005 C 
ATOM     26  C   UNL     1      -5.138 -13.489   0.976  0.00  0.00    +0.011 C 
ATOM     27  C   UNL     1      -4.126 -12.355   0.954  0.00  0.00    -0.007 C 
ATOM     28  C   UNL     1      -4.408 -11.392   2.111  0.00  0.00    +0.056 C 
ATOM     29  C   UNL     1      -3.486 -10.195   2.104  0.00  0.00    +0.181 C 
ATOM     30  O   UNL     1      -2.113 -10.526   2.327  0.00  0.00    -0.461 OA
ATOM     31  C   UNL     1      -1.377  -9.437   1.991  0.00  0.00    +0.312 C 
ATOM     32  O   UNL     1      -0.293  -9.152   2.443  0.00  0.00    -0.250 OA
ATOM     33  C   UNL     1      -2.724 -12.938   1.145  0.00  0.00    +0.016 C 
ATOM     34  C   UNL     1      -4.846 -10.971  -2.561  0.00  0.00    +0.039 C 
ENDBRANCH  18  19
ENDBRANCH   1  18
TORSDOF 3
