REMARK  Name = ZINC35763652
REMARK  4 active torsions:
REMARK  status: ('A' for Active; 'I' for Inactive)
REMARK    1  A    between atoms: C_1  and  C_2
REMARK    2  A    between atoms: C_2  and  C_4
REMARK    3  A    between atoms: C_2  and  N_16
REMARK    4  A    between atoms: N_16  and  C_17
REMARK                            x       y       z     vdW  Elec       q    Type
REMARK                         _______ _______ _______ _____ _____    ______ ____
ROOT
ATOM      1  C   UNL     1       0.707  -0.490  -1.238  0.00  0.00    -0.026 A 
ATOM      2  C   UNL     1       2.091  -0.510  -1.281  0.00  0.00    +0.007 A 
ATOM      3  C   UNL     1       2.747  -0.953  -2.413  0.00  0.00    +0.028 A 
ATOM      4  C   UNL     1       2.015  -1.381  -3.510  0.00  0.00    +0.067 A 
ATOM      5  C   UNL     1       0.620  -1.361  -3.467  0.00  0.00    +0.067 A 
ATOM      6  C   UNL     1      -0.029  -0.919  -2.324  0.00  0.00    +0.033 A 
ATOM      7  N   UNL     1       0.172  -1.841  -4.696  0.00  0.00    -0.306 N 
ATOM      8  H   UNL     1      -0.755  -1.943  -4.962  0.00  0.00    +0.170 HD
ATOM      9  C   UNL     1       1.246  -2.139  -5.451  0.00  0.00    +0.325 A 
ATOM     10  O   UNL     1       1.205  -2.582  -6.584  0.00  0.00    -0.247 OA
ATOM     11  N   UNL     1       2.373  -1.872  -4.764  0.00  0.00    -0.306 N 
ATOM     12  H   UNL     1       3.278  -2.000  -5.087  0.00  0.00    +0.170 HD
ENDROOT
BRANCH   1  14
ATOM     13  C   UNL     1      -0.019   1.526   0.010  0.00  0.00    +0.033 C 
ATOM     14  C   UNL     1       0.002  -0.004   0.002  0.00  0.00    +0.098 C 
BRANCH  14  15
ATOM     15  N   UNL     1       0.711  -0.489   1.189  0.00  0.00    -0.335 N 
ATOM     16  H   UNL     1       1.654  -0.707   1.135  0.00  0.00    +0.147 HD
BRANCH  15  17
ATOM     17  C   UNL     1       0.022  -0.640   2.408  0.00  0.00    +0.065 A 
ATOM     18  C   UNL     1       0.555  -1.072   3.578  0.00  0.00    +0.127 A 
ATOM     19  N   UNL     1      -0.440  -1.073   4.506  0.00  0.00    -0.283 N 
ATOM     20  H   UNL     1      -0.353  -1.334   5.436  0.00  0.00    +0.188 HD
ATOM     21  N   UNL     1      -1.611  -0.628   3.880  0.00  0.00    -0.180 NA
ATOM     22  C   UNL     1      -1.335  -0.364   2.628  0.00  0.00    +0.157 A 
ENDBRANCH  15  17
ENDBRANCH  14  15
ENDBRANCH   1  14
TORSDOF 3
