REMARK  Name = ZINC26533828
REMARK  11 active torsions:
REMARK  status: ('A' for Active; 'I' for Inactive)
REMARK    1  A    between atoms: C_1  and  C_2
REMARK    2  A    between atoms: C_2  and  O_3
REMARK    3  A    between atoms: O_3  and  C_4
REMARK    4  A    between atoms: C_7  and  S_10
REMARK    5  A    between atoms: S_10  and  N_13
REMARK    6  A    between atoms: C_16  and  C_19
REMARK    7  A    between atoms: N_21  and  N_22
REMARK    8  A    between atoms: C_23  and  C_25
REMARK    9  A    between atoms: C_25  and  C_27
REMARK   10  A    between atoms: C_25  and  O_28
REMARK   11  A    between atoms: O_28  and  C_29
REMARK                            x       y       z     vdW  Elec       q    Type
REMARK                         _______ _______ _______ _____ _____    ______ ____
ROOT
ATOM      1  N   UNL     1      -4.964  -0.437  -0.637  0.00  0.00    -0.177 NA
ATOM      2  C   UNL     1      -4.936   0.323   0.620  0.00  0.00    +0.110 C 
ATOM      3  C   UNL     1      -3.679   1.199   0.639  0.00  0.00    +0.030 C 
ATOM      4  C   UNL     1      -2.447   0.321   0.407  0.00  0.00    +0.079 C 
ATOM      5  C   UNL     1      -2.547  -0.350  -0.965  0.00  0.00    +0.030 C 
ATOM      6  C   UNL     1      -3.791  -1.244  -1.002  0.00  0.00    +0.110 C 
ENDROOT
BRANCH   4   7
ATOM      7  C   UNL     1      -1.206   1.175   0.458  0.00  0.00    +0.232 C 
ATOM      8  O   UNL     1      -1.298   2.367   0.660  0.00  0.00    -0.274 OA
ATOM      9  N   UNL     1       0.006   0.613   0.280  0.00  0.00    -0.234 N 
ATOM     10  H   UNL     1       0.090  -0.469   0.101  0.00  0.00    +0.173 HD
BRANCH   9  11
ATOM     11  N   UNL     1       1.159   1.407   0.322  0.00  0.00    -0.231 N 
ATOM     12  C   UNL     1       2.371   0.846   0.138  0.00  0.00    +0.270 C 
ATOM     13  O   UNL     1       2.463  -0.346  -0.065  0.00  0.00    -0.270 OA
ATOM     14  H   UNL     1       1.076   2.488   0.505  0.00  0.00    +0.173 HD
BRANCH  12  15
ATOM     15  C   UNL     1       3.612   1.701   0.183  0.00  0.00    +0.257 C 
ATOM     16  C   UNL     1       3.532   2.774  -0.905  0.00  0.00    +0.062 C 
BRANCH  15  17
ATOM     17  O   UNL     1       4.762   0.882  -0.039  0.00  0.00    -0.477 OA
BRANCH  17  18
ATOM     18  C   UNL     1       5.944   1.329   0.464  0.00  0.00    +0.157 A 
ATOM     19  C   UNL     1       6.018   2.581   1.056  0.00  0.00    +0.048 A 
ATOM     20  C   UNL     1       7.219   3.033   1.567  0.00  0.00    +0.004 A 
ATOM     21  C   UNL     1       8.348   2.238   1.490  0.00  0.00    +0.003 A 
ATOM     22  C   UNL     1       8.279   0.989   0.901  0.00  0.00    +0.042 A 
ATOM     23  C   UNL     1       7.077   0.530   0.392  0.00  0.00    +0.165 A 
ATOM     24  F   UNL     1       7.008  -0.693  -0.179  0.00  0.00    -0.202 F 
ENDBRANCH  17  18
ENDBRANCH  15  17
ENDBRANCH  12  15
ENDBRANCH   9  11
ENDBRANCH   4   7
BRANCH   1  25
ATOM     25  S   UNL     1      -6.292  -0.386  -1.624  0.00  0.00    +0.061 S 
ATOM     26  O   UNL     1      -6.269  -1.577  -2.399  0.00  0.00    -0.153 OA
ATOM     27  O   UNL     1      -7.396  -0.034  -0.802  0.00  0.00    -0.153 OA
BRANCH  25  31
ATOM     28  C   UNL     1      -5.683   3.049  -4.511  0.00  0.00    +0.121 A 
ATOM     29  C   UNL     1      -5.233   1.778  -4.839  0.00  0.00    +0.047 A 
ATOM     30  C   UNL     1      -5.420   0.732  -3.956  0.00  0.00    +0.032 A 
ATOM     31  C   UNL     1      -6.055   0.951  -2.748  0.00  0.00    +0.106 A 
ATOM     32  C   UNL     1      -6.510   2.215  -2.422  0.00  0.00    +0.032 A 
ATOM     33  C   UNL     1      -6.320   3.266  -3.298  0.00  0.00    +0.047 A 
BRANCH  28  34
ATOM     34  O   UNL     1      -5.500   4.080  -5.378  0.00  0.00    -0.492 OA
BRANCH  34  36
ATOM     35  C   UNL     1      -5.694   6.388  -6.070  0.00  0.00    +0.048 C 
ATOM     36  C   UNL     1      -5.989   5.361  -4.974  0.00  0.00    +0.225 C 
ENDBRANCH  34  36
ENDBRANCH  28  34
ENDBRANCH  25  31
ENDBRANCH   1  25
TORSDOF 9
