REMARK  Name = ZINC26961082
REMARK  11 active torsions:
REMARK  status: ('A' for Active; 'I' for Inactive)
REMARK    1  A    between atoms: C_1  and  C_2
REMARK    2  A    between atoms: C_2  and  C_3
REMARK    3  A    between atoms: C_3  and  C_4
REMARK    4  A    between atoms: C_4  and  C_5
REMARK    5  A    between atoms: C_14  and  C_16
REMARK    6  A    between atoms: C_14  and  C_17
REMARK    7  A    between atoms: C_18  and  S_22
REMARK    8  A    between atoms: N_20  and  N_21
REMARK    9  A    between atoms: S_22  and  C_23
REMARK   10  A    between atoms: C_23  and  C_24
REMARK   11  A    between atoms: N_26  and  C_27
REMARK                            x       y       z     vdW  Elec       q    Type
REMARK                         _______ _______ _______ _____ _____    ______ ____
ROOT
ATOM      1  C   UNL     1       2.470   1.503   2.153  0.00  0.00    +0.114 C 
ATOM      2  N   UNL     1       2.568   2.580   2.896  0.00  0.00    -0.228 NA
ATOM      3  C   UNL     1       1.605   2.804   3.814  0.00  0.00    +0.109 A 
ATOM      4  C   UNL     1       0.408   2.116   3.901  0.00  0.00    +0.021 A 
ATOM      5  C   UNL     1      -0.469   2.469   4.925  0.00  0.00    -0.024 A 
ATOM      6  C   UNL     1      -0.089   3.479   5.760  0.00  0.00    +0.021 A 
ATOM      7  S   UNL     1       1.510   3.963   5.148  0.00  0.00    -0.071 S 
ATOM      8  C   UNL     1      -0.869   4.024   6.911  0.00  0.00    +0.203 C 
ATOM      9  O   UNL     1      -2.212   3.523   6.810  0.00  0.00    -0.368 OA
ATOM     10  C   UNL     1      -2.278   2.113   6.579  0.00  0.00    +0.068 C 
ATOM     11  C   UNL     1      -1.817   1.786   5.156  0.00  0.00    +0.071 C 
ATOM     12  C   UNL     1      -1.375   1.392   7.581  0.00  0.00    +0.041 C 
ATOM     13  C   UNL     1      -3.720   1.637   6.762  0.00  0.00    +0.041 C 
ATOM     14  C   UNL     1       0.147   1.026   2.862  0.00  0.00    +0.182 C 
ATOM     15  N   UNL     1       1.462   0.597   2.361  0.00  0.00    -0.239 N 
ENDROOT
BRANCH  15  16
ATOM     16  N   UNL     1       1.683  -0.725   2.100  0.00  0.00    -0.252 NA
ATOM     17  H   UNL     1       0.772  -1.300   2.323  0.00  0.00    +0.141 HD
ATOM     18  H   UNL     1       1.945  -0.851   1.039  0.00  0.00    +0.141 HD
ENDBRANCH  15  16
BRANCH   1  19
ATOM     19  C   UNL     1       3.476   1.259   1.059  0.00  0.00    +0.073 C 
BRANCH  19  20
ATOM     20  C   UNL     1       4.489   2.406   1.032  0.00  0.00    +0.007 C 
BRANCH  20  22
ATOM     21  C   UNL     1       6.523   3.304  -0.106  0.00  0.00    +0.004 C 
ATOM     22  C   UNL     1       5.511   2.158  -0.080  0.00  0.00    -0.003 C 
ENDBRANCH  20  22
ENDBRANCH  19  20
ENDBRANCH   1  19
BRANCH  14  23
ATOM     23  S   UNL     1      -0.849   1.692   1.500  0.00  0.00    -0.123 S 
BRANCH  23  24
ATOM     24  C   UNL     1      -0.003   1.101   0.008  0.00  0.00    +0.167 C 
BRANCH  24  25
ATOM     25  C   UNL     1      -0.738   1.591  -1.213  0.00  0.00    +0.227 C 
ATOM     26  O   UNL     1      -1.735   2.271  -1.089  0.00  0.00    -0.275 OA
ATOM     27  N   UNL     1      -0.288   1.272  -2.443  0.00  0.00    -0.284 N 
ATOM     28  H   UNL     1       0.655   0.719  -2.557  0.00  0.00    +0.155 HD
BRANCH  27  29
ATOM     29  C   UNL     1      -1.022   1.647  -3.575  0.00  0.00    +0.052 A 
ATOM     30  C   UNL     1      -1.723   2.845  -3.585  0.00  0.00    +0.025 A 
ATOM     31  C   UNL     1      -2.441   3.214  -4.706  0.00  0.00    +0.002 A 
ATOM     32  C   UNL     1      -2.472   2.387  -5.813  0.00  0.00    +0.002 A 
ATOM     33  C   UNL     1      -1.780   1.190  -5.805  0.00  0.00    +0.022 A 
ATOM     34  C   UNL     1      -1.055   0.817  -4.689  0.00  0.00    +0.062 A 
ATOM     35 CL   UNL     1      -0.187  -0.687  -4.679  0.00  0.00    -0.082 Cl
ENDBRANCH  27  29
ENDBRANCH  24  25
ENDBRANCH  23  24
ENDBRANCH  14  23
TORSDOF 8
