REMARK  Name = ZINC34729256
REMARK  8 active torsions:
REMARK  status: ('A' for Active; 'I' for Inactive)
REMARK    1  A    between atoms: C_1  and  C_2
REMARK    2  A    between atoms: C_2  and  N_3
REMARK    3  A    between atoms: N_3  and  C_4
REMARK    4  A    between atoms: C_4  and  C_5
REMARK    5  A    between atoms: C_6  and  C_8
REMARK    6  A    between atoms: C_8  and  N_9
REMARK    7  A    between atoms: N_17  and  C_20
REMARK    8  A    between atoms: C_20  and  C_21
REMARK                            x       y       z     vdW  Elec       q    Type
REMARK                         _______ _______ _______ _____ _____    ______ ____
ROOT
ATOM      1  N   UNL     1      -3.852  -1.449   2.580  0.00  0.00    -0.251 N 
ATOM      2  C   UNL     1      -3.640  -2.628   3.190  0.00  0.00    +0.266 A 
ATOM      3  O   UNL     1      -3.084  -3.536   2.600  0.00  0.00    -0.267 OA
ATOM      4  C   UNL     1      -4.088  -2.808   4.588  0.00  0.00    +0.074 A 
ATOM      5  C   UNL     1      -3.965  -3.991   5.440  0.00  0.00    -0.023 A 
ATOM      6  C   UNL     1      -4.474  -3.851   6.680  0.00  0.00    -0.004 A 
ATOM      7  S   UNL     1      -5.102  -2.197   6.724  0.00  0.00    -0.075 S 
ATOM      8  C   UNL     1      -4.712  -1.708   5.174  0.00  0.00    +0.097 A 
ATOM      9  N   UNL     1      -4.889  -0.541   4.477  0.00  0.00    -0.278 N 
ATOM     10  C   UNL     1      -4.457  -0.427   3.207  0.00  0.00    +0.334 A 
ATOM     11  O   UNL     1      -4.622   0.622   2.614  0.00  0.00    -0.246 OA
ATOM     12  C   UNL     1      -4.496  -4.881   7.767  0.00  0.00    +0.043 C 
ATOM     13  C   UNL     1      -4.189  -6.249   7.140  0.00  0.00    +0.005 C 
ATOM     14  C   UNL     1      -2.962  -6.115   6.234  0.00  0.00    +0.005 C 
ATOM     15  C   UNL     1      -3.317  -5.293   4.993  0.00  0.00    +0.037 C 
ENDROOT
BRANCH   1  16
ATOM     16  C   UNL     1      -3.407  -1.272   1.195  0.00  0.00    +0.225 C 
BRANCH  16  18
ATOM     17  N   UNL     1      -1.372  -0.511   0.012  0.00  0.00    -0.301 N 
ATOM     18  C   UNL     1      -1.993  -0.751   1.184  0.00  0.00    +0.236 C 
ATOM     19  O   UNL     1      -1.415  -0.546   2.230  0.00  0.00    -0.274 OA
BRANCH  17  21
ATOM     20  C   UNL     1      -0.019   1.526   0.010  0.00  0.00    +0.024 C 
ATOM     21  C   UNL     1       0.002  -0.004   0.002  0.00  0.00    +0.104 C 
ENDBRANCH  17  21
BRANCH  17  22
ATOM     22  C   UNL     1      -2.072  -0.758  -1.251  0.00  0.00    +0.104 C 
ATOM     23  C   UNL     1      -1.816  -2.197  -1.703  0.00  0.00    +0.024 C 
ENDBRANCH  17  22
ENDBRANCH  16  18
ENDBRANCH   1  16
BRANCH   9  24
ATOM     24  C   UNL     1      -5.550   0.596   5.123  0.00  0.00    +0.223 C 
BRANCH  24  25
ATOM     25  C   UNL     1      -4.517   1.454   5.809  0.00  0.00    +0.236 C 
ATOM     26  O   UNL     1      -3.345   1.146   5.762  0.00  0.00    -0.274 OA
ATOM     27  N   UNL     1      -4.896   2.563   6.473  0.00  0.00    -0.300 N 
ATOM     28  C   UNL     1      -6.277   3.048   6.614  0.00  0.00    +0.108 C 
ATOM     29  C   UNL     1      -6.223   4.357   7.429  0.00  0.00    +0.020 C 
ATOM     30  C   UNL     1      -4.762   4.837   7.218  0.00  0.00    +0.020 C 
ATOM     31  C   UNL     1      -3.996   3.489   7.185  0.00  0.00    +0.108 C 
ENDBRANCH  24  25
ENDBRANCH   9  24
TORSDOF 6
