REMARK  Name = ZINC02620516
REMARK  9 active torsions:
REMARK  status: ('A' for Active; 'I' for Inactive)
REMARK    1  A    between atoms: C_1  and  C_2
REMARK    2  A    between atoms: C_3  and  C_34
REMARK    3  A    between atoms: N_9  and  C_27
REMARK    4  A    between atoms: C_10  and  S_12
REMARK    5  A    between atoms: S_12  and  C_13
REMARK    6  A    between atoms: C_13  and  C_14
REMARK    7  A    between atoms: N_16  and  N_17
REMARK    8  A    between atoms: C_18  and  C_20
REMARK    9  A    between atoms: C_27  and  C_28
REMARK                            x       y       z     vdW  Elec       q    Type
REMARK                         _______ _______ _______ _____ _____    ______ ____
ROOT
ATOM      1  C   UNL     1      12.180  -1.196  -0.120  0.00  0.00    +0.045 C 
ATOM      2  C   UNL     1      10.709  -1.521  -0.108  0.00  0.00    -0.026 A 
ATOM      3  C   UNL     1      10.297  -2.797  -0.111  0.00  0.00    -0.008 A 
ATOM      4  S   UNL     1       8.520  -2.659  -0.093  0.00  0.00    -0.073 S 
ATOM      5  C   UNL     1       8.381  -0.890  -0.082  0.00  0.00    +0.117 A 
ATOM      6  C   UNL     1       9.721  -0.457  -0.093  0.00  0.00    +0.075 A 
ATOM      7  C   UNL     1       9.916   0.961  -0.087  0.00  0.00    +0.264 A 
ATOM      8  O   UNL     1      11.042   1.429  -0.096  0.00  0.00    -0.267 OA
ATOM      9  N   UNL     1       8.842   1.770  -0.073  0.00  0.00    -0.283 N 
ATOM     10  C   UNL     1       7.574   1.265  -0.064  0.00  0.00    +0.173 A 
ATOM     11  N   UNL     1       7.365  -0.036  -0.063  0.00  0.00    -0.216 NA
ATOM     12  C   UNL     1      11.135  -4.050  -0.126  0.00  0.00    +0.052 C 
ENDROOT
BRANCH  10  13
ATOM     13  S   UNL     1       6.199   2.366  -0.044  0.00  0.00    -0.078 S 
BRANCH  13  14
ATOM     14  C   UNL     1       4.839   1.171  -0.038  0.00  0.00    +0.174 C 
BRANCH  14  15
ATOM     15  C   UNL     1       3.524   1.907  -0.021  0.00  0.00    +0.239 C 
ATOM     16  O   UNL     1       3.508   3.120  -0.015  0.00  0.00    -0.273 OA
ATOM     17  N   UNL     1       2.366   1.217  -0.014  0.00  0.00    -0.233 N 
ATOM     18  H   UNL     1       2.379   0.247  -0.019  0.00  0.00    +0.173 HD
BRANCH  17  19
ATOM     19  N   UNL     1       1.143   1.901   0.001  0.00  0.00    -0.230 N 
ATOM     20  C   UNL     1      -0.014   1.212   0.009  0.00  0.00    +0.260 C 
ATOM     21  O   UNL     1       0.002  -0.004   0.002  0.00  0.00    -0.269 OA
ATOM     22  H   UNL     1       1.130   2.871   0.007  0.00  0.00    +0.173 HD
BRANCH  20  23
ATOM     23  C   UNL     1      -1.304   1.933   0.019  0.00  0.00    +0.038 A 
ATOM     24  C   UNL     1      -1.325   3.329   0.032  0.00  0.00    +0.016 A 
ATOM     25  C   UNL     1      -2.531   3.997   0.036  0.00  0.00    +0.039 A 
ATOM     26  C   UNL     1      -3.721   3.285   0.038  0.00  0.00    +0.123 A 
ATOM     27  C   UNL     1      -3.705   1.898   0.030  0.00  0.00    +0.039 A 
ATOM     28  C   UNL     1      -2.505   1.220   0.021  0.00  0.00    +0.016 A 
ATOM     29  F   UNL     1      -4.900   3.944   0.048  0.00  0.00    -0.205 F 
ENDBRANCH  20  23
ENDBRANCH  17  19
ENDBRANCH  14  15
ENDBRANCH  13  14
ENDBRANCH  10  13
BRANCH   9  30
ATOM     30  C   UNL     1       9.036   3.222  -0.067  0.00  0.00    +0.162 C 
BRANCH  30  31
ATOM     31  C   UNL     1       9.116   3.713   1.355  0.00  0.00    -0.028 A 
ATOM     32  C   UNL     1       7.967   4.103   2.018  0.00  0.00    +0.005 A 
ATOM     33  C   UNL     1       8.040   4.548   3.324  0.00  0.00    +0.000 A 
ATOM     34  C   UNL     1       9.263   4.614   3.965  0.00  0.00    +0.000 A 
ATOM     35  C   UNL     1      10.413   4.230   3.300  0.00  0.00    +0.000 A 
ATOM     36  C   UNL     1      10.339   3.779   1.996  0.00  0.00    +0.005 A 
ENDBRANCH  30  31
ENDBRANCH   9  30
TORSDOF 7
