REMARK  Name = ZINC06545793
REMARK  7 active torsions:
REMARK  status: ('A' for Active; 'I' for Inactive)
REMARK    1  A    between atoms: C_1  and  C_2
REMARK    2  A    between atoms: C_2  and  O_3
REMARK    3  A    between atoms: O_3  and  C_4
REMARK    4  A    between atoms: C_4  and  C_6
REMARK    5  A    between atoms: C_7  and  N_34
REMARK    6  A    between atoms: C_24  and  C_27
REMARK    7  A    between atoms: C_32  and  C_33
REMARK                            x       y       z     vdW  Elec       q    Type
REMARK                         _______ _______ _______ _____ _____    ______ ____
ROOT
ATOM      1  C   UNL     1       0.977   9.394  -2.318  0.00  0.00    +0.117 C 
ATOM      2  C   UNL     1       0.677   8.545  -3.338  0.00  0.00    +0.195 C 
ATOM      3  O   UNL     1       0.077   7.367  -3.109  0.00  0.00    -0.446 OA
ATOM      4  C   UNL     1       0.140   6.802  -1.889  0.00  0.00    +0.116 C 
ATOM      5  C   UNL     1       0.404   7.534  -0.791  0.00  0.00    +0.057 C 
ATOM      6  C   UNL     1       0.642   9.018  -0.904  0.00  0.00    +0.141 C 
ATOM      7  C   UNL     1      -0.544   9.784  -0.410  0.00  0.00    -0.002 A 
ATOM      8  C   UNL     1      -1.850   9.830  -0.850  0.00  0.00    +0.007 A 
ATOM      9  C   UNL     1      -2.721  10.662  -0.155  0.00  0.00    +0.000 A 
ATOM     10  C   UNL     1      -2.295  11.406   0.926  0.00  0.00    +0.002 A 
ATOM     11  C   UNL     1      -0.984  11.365   1.374  0.00  0.00    +0.023 A 
ATOM     12  C   UNL     1      -0.099  10.534   0.685  0.00  0.00    +0.038 A 
ATOM     13  N   UNL     1       1.247  10.304   0.910  0.00  0.00    -0.284 N 
ATOM     14  C   UNL     1       1.766   9.428   0.024  0.00  0.00    +0.237 C 
ATOM     15  O   UNL     1       2.915   9.043  -0.019  0.00  0.00    -0.274 OA
ATOM     16  C   UNL     1       0.471   6.942   0.485  0.00  0.00    +0.165 C 
ATOM     17  O   UNL     1       0.685   7.641   1.456  0.00  0.00    -0.292 OA
ATOM     18  C   UNL     1       0.280   5.461   0.668  0.00  0.00    +0.088 C 
ATOM     19  C   UNL     1       0.711   4.745  -0.616  0.00  0.00    +0.034 C 
ATOM     20  C   UNL     1      -0.099   5.314  -1.784  0.00  0.00    +0.083 C 
ATOM     21  H   UNL     1       1.757  10.723   1.621  0.00  0.00    +0.155 HD
ENDROOT
BRANCH  19  22
ATOM     22  C   UNL     1       0.442   3.267  -0.486  0.00  0.00    -0.041 A 
ATOM     23  C   UNL     1      -0.855   2.811  -0.335  0.00  0.00    +0.004 A 
ATOM     24  C   UNL     1      -1.101   1.456  -0.219  0.00  0.00    +0.000 A 
ATOM     25  C   UNL     1      -0.051   0.558  -0.247  0.00  0.00    +0.000 A 
ATOM     26  C   UNL     1       1.244   1.013  -0.400  0.00  0.00    +0.003 A 
ATOM     27  C   UNL     1       1.491   2.369  -0.519  0.00  0.00    -0.047 A 
ATOM     28  C   UNL     1       2.904   2.866  -0.685  0.00  0.00    +0.044 C 
ENDBRANCH  19  22
BRANCH   2  29
ATOM     29  N   UNL     1       0.994   8.899  -4.622  0.00  0.00    -0.329 N 
ATOM     30  H   UNL     1       1.352   9.781  -4.807  0.00  0.00    +0.145 HD
ATOM     31  H   UNL     1       0.861   8.267  -5.346  0.00  0.00    +0.145 HD
ENDBRANCH   2  29
BRANCH   1  32
ATOM     32  C   UNL     1       1.599  10.622  -2.589  0.00  0.00    +0.342 C 
ATOM     33  O   UNL     1       0.936  11.643  -2.640  0.00  0.00    -0.245 OA
BRANCH  32  34
ATOM     34  O   UNL     1       2.933  10.673  -2.792  0.00  0.00    -0.462 OA
BRANCH  34  36
ATOM     35  C   UNL     1       5.010  11.815  -3.264  0.00  0.00    +0.048 C 
ATOM     36  C   UNL     1       3.500  11.956  -3.063  0.00  0.00    +0.229 C 
ENDBRANCH  34  36
ENDBRANCH  32  34
ENDBRANCH   1  32
TORSDOF 5
