REMARK  Name = ZINC08112268
REMARK  6 active torsions:
REMARK  status: ('A' for Active; 'I' for Inactive)
REMARK    1  A    between atoms: C_1  and  C_2
REMARK    2  A    between atoms: C_2  and  N_3
REMARK    3  A    between atoms: C_4  and  C_24
REMARK    4  A    between atoms: C_7  and  S_8
REMARK    5  A    between atoms: S_8  and  C_9
REMARK    6  A    between atoms: C_9  and  C_10
REMARK                            x       y       z     vdW  Elec       q    Type
REMARK                         _______ _______ _______ _____ _____    ______ ____
ROOT
ATOM      1  C   UNL     1      -5.170  -3.570   0.092  0.00  0.00    +0.173 C 
ENDROOT
BRANCH   1   2
ATOM      2  C   UNL     1      -6.622  -3.938   0.257  0.00  0.00    +0.226 C 
ATOM      3  O   UNL     1      -7.429  -3.092   0.582  0.00  0.00    -0.275 OA
ATOM      4  N   UNL     1      -7.025  -5.206   0.045  0.00  0.00    -0.298 N 
ATOM      5  C   UNL     1      -6.064  -6.246  -0.354  0.00  0.00    +0.127 C 
ATOM      6  C   UNL     1      -6.233  -7.447   0.591  0.00  0.00    +0.127 C 
ATOM      7  N   UNL     1      -7.640  -7.869   0.591  0.00  0.00    -0.297 N 
ATOM      8  C   UNL     1      -8.513  -6.812   1.118  0.00  0.00    +0.127 C 
ATOM      9  C   UNL     1      -8.437  -5.587   0.201  0.00  0.00    +0.127 C 
ATOM     10  C   UNL     1      -7.804  -9.047   1.299  0.00  0.00    +0.218 A 
ATOM     11  N   UNL     1      -8.666  -9.082   2.305  0.00  0.00    -0.223 NA
ATOM     12  C   UNL     1      -8.850 -10.193   2.999  0.00  0.00    +0.116 A 
ATOM     13  C   UNL     1      -8.121 -11.325   2.669  0.00  0.00    +0.039 A 
ATOM     14  C   UNL     1      -7.224 -11.251   1.615  0.00  0.00    +0.116 A 
ATOM     15  N   UNL     1      -7.091 -10.111   0.959  0.00  0.00    -0.223 NA
ENDBRANCH   1   2
BRANCH   1  16
ATOM     16  S   UNL     1      -4.950  -1.808   0.445  0.00  0.00    -0.077 S 
BRANCH  16  21
ATOM     17  N   UNL     1      -2.471  -0.519   0.309  0.00  0.00    -0.300 N 
ATOM     18  C   UNL     1      -1.177  -0.884   0.008  0.00  0.00    +0.200 A 
ATOM     19  N   UNL     1      -1.196  -2.167  -0.278  0.00  0.00    -0.125 NA
ATOM     20  N   UNL     1      -2.393  -2.623  -0.170  0.00  0.00    -0.122 NA
ATOM     21  C   UNL     1      -3.214  -1.659   0.183  0.00  0.00    +0.192 A 
BRANCH  18  22
ATOM     22  C   UNL     1       0.002  -0.004   0.002  0.00  0.00    +0.172 A 
ATOM     23  C   UNL     1       1.303  -0.409  -0.013  0.00  0.00    +0.053 A 
ATOM     24  C   UNL     1       2.091   0.758  -0.014  0.00  0.00    +0.042 A 
ATOM     25  C   UNL     1       1.245   1.807  -0.000  0.00  0.00    +0.196 A 
ATOM     26  O   UNL     1      -0.016   1.343   0.009  0.00  0.00    -0.460 OA
ENDBRANCH  18  22
BRANCH  17  28
ATOM     27  C   UNL     1      -3.353   1.585  -0.572  0.00  0.00    +0.027 C 
ATOM     28  C   UNL     1      -2.950   0.813   0.686  0.00  0.00    +0.122 C 
ENDBRANCH  17  28
ENDBRANCH  16  21
ENDBRANCH   1  16
TORSDOF 5
