REMARK  Name = ZINC32760191
REMARK  8 active torsions:
REMARK  status: ('A' for Active; 'I' for Inactive)
REMARK    1  A    between atoms: C_1  and  C_2
REMARK    2  A    between atoms: C_2  and  C_3
REMARK    3  A    between atoms: C_5  and  C_8
REMARK    4  A    between atoms: C_8  and  C_10
REMARK    5  A    between atoms: C_8  and  N_11
REMARK    6  A    between atoms: C_14  and  N_17
REMARK    7  A    between atoms: N_17  and  S_18
REMARK    8  A    between atoms: S_18  and  C_21
REMARK                            x       y       z     vdW  Elec       q    Type
REMARK                         _______ _______ _______ _____ _____    ______ ____
ROOT
ATOM      1  N   UNL     1      -0.018   1.464   0.010  0.00  0.00    +0.387 N 
ATOM      2  C   UNL     1       1.344   2.014   0.000  0.00  0.00    -0.076 C 
ATOM      3  C   UNL     1       2.086   1.565   1.261  0.00  0.00    +0.002 C 
ATOM      4  C   UNL     1       2.133   0.035   1.302  0.00  0.00    +0.073 C 
ATOM      5  C   UNL     1       0.704  -0.513   1.263  0.00  0.00    +0.002 C 
ATOM      6  C   UNL     1       0.002  -0.004   0.002  0.00  0.00    -0.076 C 
ATOM      7  H   UNL     1      -0.503   1.788   0.943  0.00  0.00    -0.081 HD
ENDROOT
BRANCH   1   8
ATOM      8  C   UNL     1      -0.804   1.986  -1.115  0.00  0.00    +0.019 C 
ATOM      9  C   UNL     1      -2.243   1.476  -1.012  0.00  0.00    -0.003 C 
BRANCH   8  12
ATOM     10  C   UNL     1      -0.696   5.544  -1.581  0.00  0.00    +0.171 A 
ATOM     11  N   UNL     1      -0.612   4.301  -2.088  0.00  0.00    -0.197 NA
ATOM     12  C   UNL     1      -0.802   3.493  -1.074  0.00  0.00    +0.214 A 
ATOM     13  O   UNL     1      -0.999   4.260   0.003  0.00  0.00    -0.340 OA
ATOM     14  N   UNL     1      -0.929   5.430  -0.308  0.00  0.00    -0.061 NA
BRANCH  10  16
ATOM     15  C   UNL     1      -1.917   7.278  -2.867  0.00  0.00    +0.012 C 
ATOM     16  C   UNL     1      -0.548   6.833  -2.349  0.00  0.00    +0.076 C 
ENDBRANCH  10  16
ENDBRANCH   8  12
ENDBRANCH   1   8
BRANCH   4  17
ATOM     17  N   UNL     1       2.791  -0.401   2.537  0.00  0.00    -0.187 NA
ATOM     18  H   UNL     1       2.257  -0.338   3.496  0.00  0.00    +0.148 HD
BRANCH  17  19
ATOM     19  S   UNL     1       4.409  -0.753   2.532  0.00  0.00    +0.065 S 
ATOM     20  O   UNL     1       4.750  -1.115   3.864  0.00  0.00    -0.153 OA
ATOM     21  O   UNL     1       4.633  -1.618   1.427  0.00  0.00    -0.153 OA
BRANCH  19  22
ATOM     22  C   UNL     1       5.268   0.745   2.182  0.00  0.00    +0.142 A 
ATOM     23  C   UNL     1       5.733   1.683   3.043  0.00  0.00    +0.036 A 
ATOM     24  C   UNL     1       6.385   2.792   2.537  0.00  0.00    +0.010 A 
ATOM     25  C   UNL     1       6.541   2.908   1.195  0.00  0.00    +0.047 A 
ATOM     26  S   UNL     1       5.758   1.417   0.603  0.00  0.00    -0.077 S 
ENDBRANCH  19  22
ENDBRANCH  17  19
ENDBRANCH   4  17
TORSDOF 6
