REMARK  Name = ZINC10248416
REMARK  9 active torsions:
REMARK  status: ('A' for Active; 'I' for Inactive)
REMARK    1  A    between atoms: C_1  and  N_2
REMARK    2  A    between atoms: N_2  and  C_3
REMARK    3  A    between atoms: C_6  and  N_27
REMARK    4  A    between atoms: C_8  and  C_9
REMARK    5  A    between atoms: C_9  and  O_11
REMARK    6  A    between atoms: O_11  and  C_12
REMARK    7  A    between atoms: C_12  and  C_13
REMARK    8  A    between atoms: N_15  and  C_16
REMARK    9  A    between atoms: C_21  and  C_22
REMARK                            x       y       z     vdW  Elec       q    Type
REMARK                         _______ _______ _______ _____ _____    ______ ____
ROOT
ATOM      1  C   UNL     1       2.002   5.615  -0.102  0.00  0.00    +0.328 C 
ENDROOT
BRANCH   1   2
ATOM      2  C   UNL     1       3.364   6.250  -0.221  0.00  0.00    +0.255 C 
ATOM      3  O   UNL     1       4.353   5.553  -0.308  0.00  0.00    -0.272 OA
ATOM      4  N   UNL     1       3.483   7.592  -0.229  0.00  0.00    -0.282 N 
ATOM      5  H   UNL     1       2.704   8.149  -0.078  0.00  0.00    +0.155 HD
BRANCH   4   6
ATOM      6  C   UNL     1       4.732   8.183  -0.456  0.00  0.00    +0.045 A 
ATOM      7  C   UNL     1       5.711   7.492  -1.159  0.00  0.00    +0.025 A 
ATOM      8  C   UNL     1       6.942   8.077  -1.381  0.00  0.00    +0.022 A 
ATOM      9  C   UNL     1       7.200   9.350  -0.905  0.00  0.00    +0.042 A 
ATOM     10  C   UNL     1       6.227  10.040  -0.204  0.00  0.00    +0.034 A 
ATOM     11  C   UNL     1       4.992   9.462   0.016  0.00  0.00    +0.077 A 
ATOM     12 CL   UNL     1       8.749  10.082  -1.187  0.00  0.00    -0.084 Cl
BRANCH  11  13
ATOM     13  C   UNL     1       3.931  10.217   0.774  0.00  0.00    +0.419 C 
ATOM     14  F   UNL     1       4.425  11.472   1.144  0.00  0.00    -0.166 F 
ATOM     15  F   UNL     1       2.804  10.380  -0.039  0.00  0.00    -0.166 F 
ATOM     16  F   UNL     1       3.578   9.499   1.922  0.00  0.00    -0.166 F 
ENDBRANCH  11  13
ENDBRANCH   4   6
ENDBRANCH   1   2
BRANCH   1  17
ATOM     17  O   UNL     1       2.139   4.170  -0.116  0.00  0.00    -0.452 OA
BRANCH  17  18
ATOM     18  C   UNL     1       1.006   3.447  -0.018  0.00  0.00    +0.342 C 
ATOM     19  O   UNL     1      -0.067   4.009   0.077  0.00  0.00    -0.245 OA
BRANCH  18  25
ATOM     20  C   UNL     1      -0.114   1.218  -0.034  0.00  0.00    +0.041 A 
ATOM     21  C   UNL     1      -0.041  -0.170  -0.042  0.00  0.00    +0.026 A 
ATOM     22  C   UNL     1       1.188  -0.798  -0.041  0.00  0.00    +0.034 A 
ATOM     23  C   UNL     1       2.357  -0.053  -0.032  0.00  0.00    +0.127 A 
ATOM     24  C   UNL     1       2.305   1.323  -0.025  0.00  0.00    +0.049 A 
ATOM     25  C   UNL     1       1.069   1.975  -0.025  0.00  0.00    +0.082 A 
BRANCH  20  27
ATOM     26  C   UNL     1      -2.576   1.063  -0.170  0.00  0.00    +0.125 C 
ATOM     27  N   UNL     1      -1.349   1.852  -0.041  0.00  0.00    -0.346 N 
ATOM     28  H   UNL     1      -1.399   2.817   0.039  0.00  0.00    +0.146 HD
ENDBRANCH  20  27
BRANCH  23  29
ATOM     29  N   UNL     1       3.667  -0.741  -0.031  0.00  0.00    +0.056 N 
ATOM     30  O   UNL     1       3.717  -1.958  -0.038  0.00  0.00    -0.126 OA
ATOM     31  O   UNL     1       4.697  -0.090  -0.024  0.00  0.00    -0.126 OA
ENDBRANCH  23  29
ENDBRANCH  18  25
ENDBRANCH  17  18
ENDBRANCH   1  17
TORSDOF 8
