REMARK  Name = ZINC39210416
REMARK  10 active torsions:
REMARK  status: ('A' for Active; 'I' for Inactive)
REMARK    1  A    between atoms: C_1  and  C_2
REMARK    2  A    between atoms: C_2  and  C_3
REMARK    3  A    between atoms: C_3  and  C_4
REMARK    4  A    between atoms: C_4  and  O_5
REMARK    5  A    between atoms: O_5  and  C_6
REMARK    6  A    between atoms: C_9  and  C_12
REMARK    7  A    between atoms: C_19  and  C_27
REMARK    8  A    between atoms: C_21  and  C_25
REMARK    9  A    between atoms: C_22  and  N_24
REMARK   10  A    between atoms: C_32  and  C_33
REMARK                            x       y       z     vdW  Elec       q    Type
REMARK                         _______ _______ _______ _____ _____    ______ ____
ROOT
ATOM      1  C   UNL     1      -2.113  -7.748   0.450  0.00  0.00    +0.075 C 
ATOM      2  N   UNL     1      -0.997  -8.130   1.024  0.00  0.00    -0.188 NA
ATOM      3  N   UNL     1      -0.927  -9.540   1.169  0.00  0.00    -0.230 N 
ATOM      4  C   UNL     1      -2.330  -9.953   1.238  0.00  0.00    +0.286 C 
ATOM      5  C   UNL     1      -2.900  -8.989   0.148  0.00  0.00    +0.110 C 
ATOM      6  C   UNL     1      -4.397  -8.940   0.400  0.00  0.00    +0.063 C 
ATOM      7  C   UNL     1      -4.868 -10.382   0.441  0.00  0.00    +0.091 C 
ATOM      8  C   UNL     1      -4.012 -11.418   0.616  0.00  0.00    +0.194 C 
ATOM      9  O   UNL     1      -2.671 -11.262   0.826  0.00  0.00    -0.455 OA
ATOM     10  H   UNL     1      -0.136 -10.099   1.212  0.00  0.00    +0.172 HD
ENDROOT
BRANCH   1  14
ATOM     11  C   UNL     1      -3.284  -3.752  -0.381  0.00  0.00    +0.121 A 
ATOM     12  C   UNL     1      -3.861  -4.803  -1.083  0.00  0.00    +0.046 A 
ATOM     13  C   UNL     1      -3.483  -6.102  -0.817  0.00  0.00    +0.013 A 
ATOM     14  C   UNL     1      -2.519  -6.360   0.161  0.00  0.00    -0.002 A 
ATOM     15  C   UNL     1      -1.942  -5.300   0.865  0.00  0.00    +0.013 A 
ATOM     16  C   UNL     1      -2.321  -4.004   0.588  0.00  0.00    +0.046 A 
BRANCH  11  17
ATOM     17  O   UNL     1      -3.659  -2.474  -0.647  0.00  0.00    -0.492 OA
BRANCH  17  18
ATOM     18  C   UNL     1      -4.654  -2.286  -1.655  0.00  0.00    +0.229 C 
BRANCH  18  19
ATOM     19  C   UNL     1      -4.945  -0.792  -1.813  0.00  0.00    +0.041 C 
BRANCH  19  21
ATOM     20  C   UNL     1      -6.300   0.903  -3.050  0.00  0.00    +0.004 C 
ATOM     21  C   UNL     1      -6.010  -0.591  -2.892  0.00  0.00    -0.000 C 
ENDBRANCH  19  21
ENDBRANCH  18  19
ENDBRANCH  17  18
ENDBRANCH  11  17
ENDBRANCH   1  14
BRANCH   6  22
ATOM     22  C   UNL     1      -4.683  -8.252   1.736  0.00  0.00    +0.092 C 
ATOM     23  C   UNL     1      -3.896  -6.962   1.853  0.00  0.00    +0.118 C 
ATOM     24  N   UNL     1      -3.116  -7.108   2.874  0.00  0.00    -0.161 NA
ATOM     25  N   UNL     1      -3.266  -8.348   3.485  0.00  0.00    -0.153 NA
ATOM     26  C   UNL     1      -4.166  -9.089   2.889  0.00  0.00    +0.080 C 
BRANCH  26  27
ATOM     27  C   UNL     1      -4.587 -10.449   3.258  0.00  0.00    -0.001 A 
ATOM     28  C   UNL     1      -5.915 -10.848   3.071  0.00  0.00    +0.012 A 
ATOM     29  C   UNL     1      -6.303 -12.124   3.418  0.00  0.00    +0.039 A 
ATOM     30  C   UNL     1      -5.381 -13.011   3.952  0.00  0.00    +0.123 A 
ATOM     31  C   UNL     1      -4.064 -12.622   4.141  0.00  0.00    +0.039 A 
ATOM     32  C   UNL     1      -3.661 -11.351   3.792  0.00  0.00    +0.012 A 
ATOM     33  F   UNL     1      -5.769 -14.260   4.291  0.00  0.00    -0.205 F 
ENDBRANCH  26  27
ENDBRANCH   6  22
BRANCH   8  34
ATOM     34  N   UNL     1      -4.518 -12.694   0.588  0.00  0.00    -0.329 N 
ATOM     35  H   UNL     1      -5.466 -12.836   0.446  0.00  0.00    +0.145 HD
ATOM     36  H   UNL     1      -3.926 -13.453   0.711  0.00  0.00    +0.145 HD
ENDBRANCH   8  34
BRANCH   7  37
ATOM     37  C   UNL     1      -6.265 -10.657   0.291  0.00  0.00    +0.100 C 
ATOM     38  N   UNL     1      -7.373 -10.876   0.172  0.00  0.00    -0.191 NA
ENDBRANCH   7  37
TORSDOF 9
