REMARK  Name = ZINC06239121
REMARK  11 active torsions:
REMARK  status: ('A' for Active; 'I' for Inactive)
REMARK    1  A    between atoms: C_1  and  O_2
REMARK    2  A    between atoms: O_2  and  C_3
REMARK    3  A    between atoms: C_3  and  C_4
REMARK    4  A    between atoms: C_4  and  N_5
REMARK    5  A    between atoms: C_6  and  C_10
REMARK    6  A    between atoms: C_10  and  C_12
REMARK    7  A    between atoms: C_10  and  N_61
REMARK    8  A    between atoms: C_27  and  C_28
REMARK    9  A    between atoms: C_27  and  N_61
REMARK   10  A    between atoms: C_33  and  C_34
REMARK   11  A    between atoms: C_33  and  N_61
REMARK                            x       y       z     vdW  Elec       q    Type
REMARK                         _______ _______ _______ _____ _____    ______ ____
ROOT
ATOM      1  C   UNL     1       2.510   2.954   1.651  0.00  0.00    +0.040 C 
ENDROOT
BRANCH   1   2
ATOM      2  C   UNL     1       2.159   1.543   1.255  0.00  0.00    +0.011 A 
ATOM      3  C   UNL     1       3.097   0.749   0.680  0.00  0.00    +0.017 A 
ATOM      4  C   UNL     1       2.727  -0.617   0.312  0.00  0.00    +0.002 A 
ATOM      5  C   UNL     1       3.656  -1.483  -0.278  0.00  0.00    +0.059 A 
ATOM      6  C   UNL     1       3.276  -2.762  -0.620  0.00  0.00    +0.167 A 
ATOM      7  C   UNL     1       1.967  -3.198  -0.380  0.00  0.00    +0.168 A 
ATOM      8  C   UNL     1       1.043  -2.350   0.203  0.00  0.00    +0.075 A 
ATOM      9  C   UNL     1       1.411  -1.057   0.554  0.00  0.00    +0.053 A 
ATOM     10  N   UNL     1       0.502  -0.197   1.138  0.00  0.00    -0.322 N 
ATOM     11  H   UNL     1      -0.431  -0.510   1.310  0.00  0.00    +0.169 HD
ATOM     12  C   UNL     1       0.855   1.055   1.478  0.00  0.00    +0.251 A 
ATOM     13  O   UNL     1       0.026   1.787   1.991  0.00  0.00    -0.268 OA
ATOM     14  O   UNL     1       1.855  -4.488  -0.808  0.00  0.00    -0.453 OA
ATOM     15  C   UNL     1       2.978  -4.704  -1.682  0.00  0.00    +0.466 C 
ATOM     16  O   UNL     1       3.974  -3.785  -1.197  0.00  0.00    -0.453 OA
ENDBRANCH   1   2
BRANCH   1  18
ATOM     17  N   UNL     1       3.349   3.291   4.035  0.00  0.00    -0.228 N 
ATOM     18  C   UNL     1       2.359   3.110   3.142  0.00  0.00    +0.143 A 
ATOM     19  N   UNL     1       1.237   3.101   3.820  0.00  0.00    -0.115 NA
ATOM     20  N   UNL     1       1.524   3.260   5.066  0.00  0.00    -0.023 NA
ATOM     21  N   UNL     1       2.800   3.378   5.199  0.00  0.00    -0.044 NA
BRANCH  17  22
ATOM     22  C   UNL     1       4.782   3.373   3.741  0.00  0.00    +0.175 C 
BRANCH  22  23
ATOM     23  C   UNL     1       5.166   4.830   3.477  0.00  0.00    +0.183 C 
BRANCH  23  25
ATOM     24  C   UNL     1       7.028   6.236   2.927  0.00  0.00    +0.194 C 
ATOM     25  O   UNL     1       6.563   4.910   3.190  0.00  0.00    -0.381 OA
ENDBRANCH  23  25
ENDBRANCH  22  23
ENDBRANCH  17  22
ENDBRANCH   1  18
BRANCH   1  26
ATOM     26  N   UNL     1       1.583   3.887   0.975  0.00  0.00    +0.397 N 
ATOM     27  H   UNL     1       0.623   3.676   1.272  0.00  0.00    -0.079 HD
BRANCH  26  28
ATOM     28  C   UNL     1       1.680   3.722  -0.490  0.00  0.00    -0.001 C 
BRANCH  28  29
ATOM     29  C   UNL     1       0.745   2.618  -0.912  0.00  0.00    +0.089 A 
ATOM     30  C   UNL     1      -0.579   2.744  -1.120  0.00  0.00    +0.042 A 
ATOM     31  C   UNL     1      -1.057   1.470  -1.500  0.00  0.00    +0.041 A 
ATOM     32  C   UNL     1       0.002   0.640  -1.502  0.00  0.00    +0.195 A 
ATOM     33  O   UNL     1       1.091   1.341  -1.145  0.00  0.00    -0.470 OA
ENDBRANCH  28  29
ENDBRANCH  26  28
BRANCH  26  34
ATOM     34  C   UNL     1       1.907   5.280   1.349  0.00  0.00    -0.034 C 
BRANCH  34  35
ATOM     35  C   UNL     1       1.287   5.575   2.691  0.00  0.00    -0.027 A 
ATOM     36  C   UNL     1       1.891   5.734   3.894  0.00  0.00    +0.009 A 
ATOM     37  C   UNL     1       1.113   6.003   5.004  0.00  0.00    +0.008 A 
ATOM     38  C   UNL     1      -0.231   6.099   4.858  0.00  0.00    +0.045 A 
ATOM     39  S   UNL     1      -0.432   5.813   3.107  0.00  0.00    -0.103 S 
ENDBRANCH  34  35
ENDBRANCH  26  34
ENDBRANCH   1  26
TORSDOF 10
