REMARK  Name = ZINC40028388
REMARK  8 active torsions:
REMARK  status: ('A' for Active; 'I' for Inactive)
REMARK    1  A    between atoms: C_1  and  O_2
REMARK    2  A    between atoms: O_2  and  C_3
REMARK    3  A    between atoms: C_10  and  C_12
REMARK    4  A    between atoms: C_12  and  C_14
REMARK    5  A    between atoms: N_18  and  C_30
REMARK    6  A    between atoms: C_19  and  C_21
REMARK    7  A    between atoms: C_25  and  N_27
REMARK    8  A    between atoms: C_30  and  C_31
REMARK                            x       y       z     vdW  Elec       q    Type
REMARK                         _______ _______ _______ _____ _____    ______ ____
ROOT
ATOM      1  C   UNL     1      -0.914  -5.176   1.068  0.00  0.00    +0.079 C 
ATOM      2  C   UNL     1      -1.433  -6.156   1.843  0.00  0.00    +0.249 C 
ATOM      3  C   UNL     1      -1.947  -5.565   3.095  0.00  0.00    +0.288 C 
ATOM      4  O   UNL     1      -2.473  -6.189   3.995  0.00  0.00    -0.266 OA
ATOM      5  N   UNL     1      -1.747  -4.235   3.091  0.00  0.00    -0.280 N 
ATOM      6  C   UNL     1      -1.082  -3.882   1.831  0.00  0.00    +0.145 C 
ATOM      7  O   UNL     1      -1.474  -7.470   1.521  0.00  0.00    -0.282 OA
ENDROOT
BRANCH   6   8
ATOM      8  C   UNL     1      -1.940  -2.925   1.046  0.00  0.00    -0.020 A 
ATOM      9  C   UNL     1      -3.309  -3.113   0.985  0.00  0.00    +0.006 A 
ATOM     10  C   UNL     1      -4.096  -2.235   0.264  0.00  0.00    +0.003 A 
ATOM     11  C   UNL     1      -3.515  -1.168  -0.396  0.00  0.00    +0.033 A 
ATOM     12  C   UNL     1      -2.147  -0.979  -0.334  0.00  0.00    +0.127 A 
ATOM     13  C   UNL     1      -1.360  -1.855   0.391  0.00  0.00    +0.038 A 
BRANCH  12  14
ATOM     14  N   UNL     1      -1.526   0.163  -1.041  0.00  0.00    +0.056 N 
ATOM     15  O   UNL     1      -2.221   0.983  -1.594  0.00  0.00    -0.126 OA
ATOM     16  O   UNL     1      -0.322   0.277  -1.065  0.00  0.00    -0.126 OA
ENDBRANCH  12  14
ENDBRANCH   6   8
BRANCH   1  17
ATOM     17  C   UNL     1      -0.300  -5.338  -0.254  0.00  0.00    +0.230 C 
ATOM     18  O   UNL     1      -0.978  -5.700  -1.199  0.00  0.00    -0.283 OA
BRANCH  17  26
ATOM     19  C   UNL     1       4.429  -4.106   0.624  0.00  0.00    +0.163 A 
ATOM     20  C   UNL     1       5.570  -4.028  -0.154  0.00  0.00    +0.049 A 
ATOM     21  C   UNL     1       5.526  -4.330  -1.508  0.00  0.00    +0.004 A 
ATOM     22  C   UNL     1       4.353  -4.709  -2.096  0.00  0.00    +0.012 A 
ATOM     23  C   UNL     1       3.187  -4.795  -1.329  0.00  0.00    +0.025 A 
ATOM     24  C   UNL     1       3.223  -4.496   0.045  0.00  0.00    +0.177 A 
ATOM     25  O   UNL     1       1.977  -4.665   0.533  0.00  0.00    -0.448 OA
ATOM     26  C   UNL     1       1.131  -5.062  -0.439  0.00  0.00    +0.176 A 
ATOM     27  C   UNL     1       1.801  -5.156  -1.620  0.00  0.00    +0.062 A 
BRANCH  19  29
ATOM     28  C   UNL     1       5.728  -3.309   2.450  0.00  0.00    +0.277 C 
ATOM     29  O   UNL     1       4.486  -3.807   1.949  0.00  0.00    -0.491 OA
ENDBRANCH  19  29
ENDBRANCH  17  26
ENDBRANCH   1  17
BRANCH   5  30
ATOM     30  C   UNL     1      -2.122  -3.304   4.158  0.00  0.00    +0.136 C 
BRANCH  30  31
ATOM     31  C   UNL     1      -0.982  -3.173   5.135  0.00  0.00    -0.016 C 
ATOM     32  C   UNL     1      -0.494  -1.990   5.417  0.00  0.00    +0.005 C 
ENDBRANCH  30  31
ENDBRANCH   5  30
TORSDOF 7
