REMARK  Name = ZINC04730148
REMARK  4 active torsions:
REMARK  status: ('A' for Active; 'I' for Inactive)
REMARK    1  A    between atoms: C_4  and  O_31
REMARK    2  A    between atoms: C_5  and  C_7
REMARK    3  A    between atoms: C_10  and  C_22
REMARK    4  A    between atoms: C_12  and  C_15
REMARK                            x       y       z     vdW  Elec       q    Type
REMARK                         _______ _______ _______ _____ _____    ______ ____
ROOT
ATOM      1  C   UNL     1       1.227  -2.187  -0.022  0.00  0.00    -0.028 C 
ATOM      2  C   UNL     1       1.456  -2.692  -1.450  0.00  0.00    +0.044 C 
ATOM      3  C   UNL     1       1.175  -4.168  -1.507  0.00  0.00    +0.040 C 
ATOM      4  N   UNL     1       0.543  -4.791  -0.582  0.00  0.00    -0.299 NA
ATOM      5  C   UNL     1       0.033  -4.155   0.626  0.00  0.00    +0.081 C 
ATOM      6  N   UNL     1      -0.069  -2.703   0.450  0.00  0.00    +0.401 N 
ATOM      7  H   UNL     1      -0.304  -2.271   1.330  0.00  0.00    -0.081 HD
ATOM      8  H   UNL     1      -0.783  -2.495  -0.232  0.00  0.00    -0.081 HD
ENDROOT
BRANCH   3   9
ATOM      9  C   UNL     1       1.647  -4.932  -2.677  0.00  0.00    -0.001 A 
ATOM     10  C   UNL     1       2.344  -4.285  -3.701  0.00  0.00    +0.013 A 
ATOM     11  C   UNL     1       2.785  -5.001  -4.793  0.00  0.00    +0.050 A 
ATOM     12  C   UNL     1       2.538  -6.364  -4.881  0.00  0.00    +0.166 A 
ATOM     13  C   UNL     1       1.843  -7.016  -3.862  0.00  0.00    +0.167 A 
ATOM     14  C   UNL     1       1.403  -6.305  -2.761  0.00  0.00    +0.059 A 
ATOM     15  O   UNL     1       1.734  -8.338  -4.186  0.00  0.00    -0.453 OA
ATOM     16  C   UNL     1       2.008  -8.411  -5.597  0.00  0.00    +0.466 C 
ATOM     17  O   UNL     1       2.863  -7.279  -5.839  0.00  0.00    -0.453 OA
ENDBRANCH   3   9
BRANCH   5  18
ATOM     18  C   UNL     1       0.966  -4.449   1.772  0.00  0.00    -0.039 A 
ATOM     19  C   UNL     1       1.095  -3.543   2.809  0.00  0.00    +0.004 A 
ATOM     20  C   UNL     1       1.950  -3.812   3.861  0.00  0.00    +0.002 A 
ATOM     21  C   UNL     1       2.678  -4.987   3.877  0.00  0.00    +0.020 A 
ATOM     22  C   UNL     1       2.550  -5.894   2.840  0.00  0.00    +0.041 A 
ATOM     23  C   UNL     1       1.689  -5.627   1.790  0.00  0.00    +0.023 A 
ATOM     24 CL   UNL     1       3.464  -7.369   2.860  0.00  0.00    -0.084 Cl
ENDBRANCH   5  18
BRANCH   1  29
ATOM     25  C   UNL     1      -0.017   1.378   0.010  0.00  0.00    +0.000 A 
ATOM     26  C   UNL     1       1.170   2.088   0.002  0.00  0.00    +0.004 A 
ATOM     27  C   UNL     1       2.377   1.417  -0.013  0.00  0.00    +0.045 A 
ATOM     28  C   UNL     1       2.399   0.030  -0.021  0.00  0.00    +0.118 A 
ATOM     29  C   UNL     1       1.207  -0.680  -0.013  0.00  0.00    -0.019 A 
ATOM     30  C   UNL     1       0.002  -0.004   0.002  0.00  0.00    +0.005 A 
BRANCH  28  31
ATOM     31  O   UNL     1       3.586  -0.632  -0.037  0.00  0.00    -0.507 OA
ATOM     32  H   UNL     1       3.938  -0.829   0.842  0.00  0.00    +0.292 HD
ENDBRANCH  28  31
ENDBRANCH   1  29
TORSDOF 4
