REMARK  Name = ZINC32622366
REMARK  8 active torsions:
REMARK  status: ('A' for Active; 'I' for Inactive)
REMARK    1  A    between atoms: C_1  and  C_2
REMARK    2  A    between atoms: C_2  and  C_3
REMARK    3  A    between atoms: C_6  and  C_9
REMARK    4  A    between atoms: C_9  and  C_11
REMARK    5  A    between atoms: C_9  and  N_25
REMARK    6  A    between atoms: C_11  and  N_12
REMARK    7  A    between atoms: C_13  and  C_15
REMARK    8  A    between atoms: C_17  and  C_20
REMARK                            x       y       z     vdW  Elec       q    Type
REMARK                         _______ _______ _______ _____ _____    ______ ____
ROOT
ATOM      1  C   UNL     1      -0.130   1.577  -0.032  0.00  0.00    -0.020 C 
ENDROOT
BRANCH   1   2
ATOM      2  N   UNL     1      -0.477   2.306  -1.260  0.00  0.00    +0.385 N 
ATOM      3  C   UNL     1      -0.486   3.756  -1.026  0.00  0.00    -0.078 C 
ATOM      4  C   UNL     1      -0.707   4.486  -2.353  0.00  0.00    -0.019 C 
ATOM      5  C   UNL     1      -2.040   4.040  -2.959  0.00  0.00    -0.004 C 
ATOM      6  C   UNL     1      -2.023   2.521  -3.147  0.00  0.00    -0.019 C 
ATOM      7  C   UNL     1      -1.764   1.847  -1.798  0.00  0.00    -0.078 C 
ATOM      8  H   UNL     1       0.296   2.092  -2.012  0.00  0.00    -0.081 HD
ENDBRANCH   1   2
BRANCH   1  12
ATOM      9  C   UNL     1      -2.317   3.204   3.256  0.00  0.00    -0.048 A 
ATOM     10  C   UNL     1      -0.969   3.475   3.122  0.00  0.00    +0.004 A 
ATOM     11  C   UNL     1      -0.261   2.948   2.058  0.00  0.00    +0.002 A 
ATOM     12  C   UNL     1      -0.901   2.151   1.128  0.00  0.00    -0.059 A 
ATOM     13  C   UNL     1      -2.252   1.885   1.260  0.00  0.00    +0.002 A 
ATOM     14  C   UNL     1      -2.958   2.407   2.326  0.00  0.00    +0.004 A 
BRANCH   9  16
ATOM     15  C   UNL     1      -3.663   5.141   4.022  0.00  0.00    +0.009 C 
ATOM     16  C   UNL     1      -3.090   3.779   4.416  0.00  0.00    +0.032 C 
ENDBRANCH   9  16
ENDBRANCH   1  12
BRANCH   1  17
ATOM     17  C   UNL     1      -0.485   0.099  -0.200  0.00  0.00    +0.094 C 
BRANCH  17  18
ATOM     18  N   UNL     1       0.128  -0.415  -1.427  0.00  0.00    -0.311 N 
ATOM     19  C   UNL     1      -0.035  -1.708  -1.772  0.00  0.00    +0.266 C 
ATOM     20  O   UNL     1      -0.689  -2.447  -1.064  0.00  0.00    -0.268 OA
ATOM     21  H   UNL     1       0.720   0.255  -2.068  0.00  0.00    +0.149 HD
BRANCH  19  22
ATOM     22  C   UNL     1       0.585  -2.227  -3.015  0.00  0.00    +0.168 A 
ATOM     23  C   UNL     1       0.513  -3.553  -3.510  0.00  0.00    +0.086 A 
ATOM     24  C   UNL     1       1.240  -3.509  -4.672  0.00  0.00    +0.174 A 
ATOM     25  O   UNL     1       1.683  -2.244  -4.792  0.00  0.00    -0.353 OA
ATOM     26  N   UNL     1       1.313  -1.552  -3.872  0.00  0.00    -0.073 NA
BRANCH  24  27
ATOM     27  C   UNL     1       1.491  -4.622  -5.599  0.00  0.00    +0.057 A 
ATOM     28  C   UNL     1       2.213  -4.630  -6.778  0.00  0.00    +0.019 A 
ATOM     29  C   UNL     1       2.311  -5.809  -7.478  0.00  0.00    +0.008 A 
ATOM     30  C   UNL     1       1.690  -6.920  -7.000  0.00  0.00    +0.046 A 
ATOM     31  S   UNL     1       0.935  -6.316  -5.500  0.00  0.00    -0.093 S 
ENDBRANCH  24  27
ENDBRANCH  19  22
ENDBRANCH  17  18
ENDBRANCH   1  17
TORSDOF 7
