REMARK  Name = ZINC23483406
REMARK  11 active torsions:
REMARK  status: ('A' for Active; 'I' for Inactive)
REMARK    1  A    between atoms: C_1  and  C_2
REMARK    2  A    between atoms: C_2  and  C_4
REMARK    3  A    between atoms: C_2  and  N_34
REMARK    4  A    between atoms: C_7  and  S_16
REMARK    5  A    between atoms: N_8  and  C_9
REMARK    6  A    between atoms: S_16  and  C_17
REMARK    7  A    between atoms: C_17  and  C_19
REMARK    8  A    between atoms: C_17  and  C_20
REMARK    9  A    between atoms: N_22  and  C_23
REMARK   10  A    between atoms: N_34  and  C_35
REMARK   11  A    between atoms: N_34  and  C_36
REMARK                            x       y       z     vdW  Elec       q    Type
REMARK                         _______ _______ _______ _____ _____    ______ ____
ROOT
ATOM      1  C   UNL     1      -0.749   3.086   1.275  0.00  0.00    +0.125 A 
ATOM      2  N   UNL     1       0.255   3.871   1.547  0.00  0.00    -0.135 NA
ATOM      3  N   UNL     1      -0.108   5.100   1.460  0.00  0.00    -0.122 NA
ATOM      4  C   UNL     1      -1.378   5.170   1.133  0.00  0.00    +0.197 A 
ATOM      5  N   UNL     1      -1.828   3.885   1.004  0.00  0.00    -0.275 N 
ENDROOT
BRANCH   5   6
ATOM      6  C   UNL     1      -3.125   3.471   0.665  0.00  0.00    +0.050 A 
ATOM      7  C   UNL     1      -3.350   2.797  -0.527  0.00  0.00    +0.028 A 
ATOM      8  C   UNL     1      -4.627   2.386  -0.857  0.00  0.00    +0.022 A 
ATOM      9  C   UNL     1      -5.683   2.657  -0.005  0.00  0.00    +0.041 A 
ATOM     10  C   UNL     1      -5.463   3.333   1.181  0.00  0.00    +0.022 A 
ATOM     11  C   UNL     1      -4.186   3.741   1.518  0.00  0.00    +0.028 A 
ATOM     12 CL   UNL     1      -7.288   2.146  -0.425  0.00  0.00    -0.084 Cl
ENDBRANCH   5   6
BRANCH   1  14
ATOM     13  C   UNL     1      -0.013   1.086   0.008  0.00  0.00    -0.005 C 
ATOM     14  C   UNL     1      -0.729   1.579   1.267  0.00  0.00    -0.003 C 
BRANCH  14  15
ATOM     15  N   UNL     1      -0.018   1.093   2.457  0.00  0.00    +0.382 N 
ATOM     16  C   UNL     1      -0.081  -0.372   2.545  0.00  0.00    -0.096 C 
ATOM     17  C   UNL     1       1.374   1.562   2.468  0.00  0.00    -0.096 C 
ATOM     18  H   UNL     1      -0.521   1.506   3.343  0.00  0.00    -0.082 HD
ENDBRANCH  14  15
ENDBRANCH   1  14
BRANCH   4  19
ATOM     19  S   UNL     1      -2.322   6.640   0.903  0.00  0.00    -0.073 S 
BRANCH  19  20
ATOM     20  C   UNL     1      -1.053   7.885   1.242  0.00  0.00    +0.137 C 
ATOM     21  C   UNL     1       0.039   7.805   0.173  0.00  0.00    +0.029 C 
BRANCH  20  22
ATOM     22  C   UNL     1      -1.677   9.257   1.222  0.00  0.00    +0.227 C 
ATOM     23  O   UNL     1      -2.737   9.432   0.662  0.00  0.00    -0.275 OA
ATOM     24  N   UNL     1      -1.055  10.288   1.828  0.00  0.00    -0.308 N 
ATOM     25  H   UNL     1      -0.093  10.129   2.336  0.00  0.00    +0.149 HD
BRANCH  24  26
ATOM     26  C   UNL     1      -1.662  11.622   1.808  0.00  0.00    +0.103 C 
ATOM     27  C   UNL     1      -0.568  12.675   1.971  0.00  0.00    +0.027 C 
ATOM     28  C   UNL     1      -1.237  14.041   2.166  0.00  0.00    +0.007 C 
ATOM     29  C   UNL     1      -1.905  14.058   3.539  0.00  0.00    +0.035 C 
ATOM     30  C   UNL     1      -2.782  12.847   3.717  0.00  0.00    -0.042 A 
ATOM     31  C   UNL     1      -2.668  11.726   2.924  0.00  0.00    -0.024 A 
ATOM     32  C   UNL     1      -3.504  10.639   3.145  0.00  0.00    +0.006 A 
ATOM     33  C   UNL     1      -4.449  10.675   4.149  0.00  0.00    +0.000 A 
ATOM     34  C   UNL     1      -4.567  11.801   4.942  0.00  0.00    +0.000 A 
ATOM     35  C   UNL     1      -3.736  12.881   4.726  0.00  0.00    +0.004 A 
ENDBRANCH  24  26
ENDBRANCH  20  22
ENDBRANCH  19  20
ENDBRANCH   4  19
TORSDOF 7
