REMARK  Name = ZINC28686086
REMARK  5 active torsions:
REMARK  status: ('A' for Active; 'I' for Inactive)
REMARK    1  A    between atoms: C_4  and  C_7
REMARK    2  A    between atoms: C_7  and  N_8
REMARK    3  A    between atoms: C_10  and  C_13
REMARK    4  A    between atoms: C_14  and  C_15
REMARK    5  A    between atoms: C_20  and  C_23
REMARK                            x       y       z     vdW  Elec       q    Type
REMARK                         _______ _______ _______ _____ _____    ______ ____
ROOT
ATOM      1  C   UNL     1      -6.136   4.325  -6.364  0.00  0.00    +0.243 C 
ATOM      2  O   UNL     1      -7.166   3.762  -6.041  0.00  0.00    -0.270 OA
ATOM      3  N   UNL     1      -5.988   4.793  -7.619  0.00  0.00    -0.261 N 
ATOM      4  C   UNL     1      -7.011   4.634  -8.544  0.00  0.00    +0.165 A 
ATOM      5  N   UNL     1      -7.063   5.016  -9.807  0.00  0.00    -0.225 NA
ATOM      6  C   UNL     1      -8.131   4.779 -10.554  0.00  0.00    +0.080 A 
ATOM      7  C   UNL     1      -9.200   4.126 -10.007  0.00  0.00    +0.076 A 
ATOM      8  S   UNL     1      -8.605   3.850  -8.344  0.00  0.00    -0.060 S 
ATOM      9  H   UNL     1      -5.057   5.301  -7.911  0.00  0.00    +0.157 HD
ENDROOT
BRANCH   6  10
ATOM     10  C   UNL     1      -8.166   5.218 -11.970  0.00  0.00    +0.001 A 
ATOM     11  C   UNL     1      -9.327   5.062 -12.725  0.00  0.00    +0.013 A 
ATOM     12  C   UNL     1      -9.358   5.467 -14.041  0.00  0.00    +0.046 A 
ATOM     13  C   UNL     1      -8.231   6.036 -14.631  0.00  0.00    +0.124 A 
ATOM     14  C   UNL     1      -7.078   6.194 -13.871  0.00  0.00    -0.002 A 
ATOM     15  C   UNL     1      -7.039   5.795 -12.555  0.00  0.00    +0.017 A 
ATOM     16  C   UNL     1      -6.041   6.844 -14.766  0.00  0.00    +0.080 C 
ATOM     17  C   UNL     1      -6.909   7.362 -15.937  0.00  0.00    +0.234 C 
ATOM     18  O   UNL     1      -8.046   6.483 -15.904  0.00  0.00    -0.491 OA
ENDBRANCH   6  10
BRANCH   1  20
ATOM     19  C   UNL     1      -5.238   4.019  -4.161  0.00  0.00    +0.036 C 
ATOM     20  C   UNL     1      -5.091   4.488  -5.419  0.00  0.00    +0.070 C 
BRANCH  19  23
ATOM     21  N   UNL     1      -2.992   4.114  -1.331  0.00  0.00    -0.247 N 
ATOM     22  C   UNL     1      -4.174   3.753  -1.873  0.00  0.00    +0.138 A 
ATOM     23  C   UNL     1      -4.155   4.187  -3.182  0.00  0.00    +0.106 A 
ATOM     24  N   UNL     1      -2.973   4.788  -3.409  0.00  0.00    -0.130 NA
ATOM     25  N   UNL     1      -2.262   4.761  -2.337  0.00  0.00    -0.065 NA
BRANCH  21  26
ATOM     26  C   UNL     1      -2.553   3.869   0.045  0.00  0.00    +0.180 C 
BRANCH  26  30
ATOM     27  C   UNL     1       1.175   1.783   0.000  0.00  0.00    +0.000 A 
ATOM     28  C   UNL     1      -0.013   1.076   0.008  0.00  0.00    +0.000 A 
ATOM     29  C   UNL     1      -1.219   1.751   0.017  0.00  0.00    +0.005 A 
ATOM     30  C   UNL     1      -1.238   3.133   0.030  0.00  0.00    -0.026 A 
ATOM     31  C   UNL     1      -0.050   3.840   0.022  0.00  0.00    +0.005 A 
ATOM     32  C   UNL     1       1.156   3.165   0.008  0.00  0.00    +0.000 A 
ENDBRANCH  26  30
ENDBRANCH  21  26
ENDBRANCH  19  23
ENDBRANCH   1  20
TORSDOF 5
