REMARK  Name = ZINC64066530
REMARK  8 active torsions:
REMARK  status: ('A' for Active; 'I' for Inactive)
REMARK    1  A    between atoms: C_1  and  C_2
REMARK    2  A    between atoms: C_2  and  C_3
REMARK    3  A    between atoms: C_8  and  N_9
REMARK    4  A    between atoms: C_10  and  C_12
REMARK    5  A    between atoms: C_12  and  N_13
REMARK    6  A    between atoms: C_14  and  C_16
REMARK    7  A    between atoms: C_16  and  C_17
REMARK    8  A    between atoms: C_25  and  C_27
REMARK                            x       y       z     vdW  Elec       q    Type
REMARK                         _______ _______ _______ _____ _____    ______ ____
ROOT
ATOM      1  N   UNL     1      -3.969  -0.551   5.062  0.00  0.00    -0.306 N 
ATOM      2  C   UNL     1      -5.282  -0.440   5.345  0.00  0.00    +0.218 C 
ATOM      3  O   UNL     1      -6.043   0.021   4.520  0.00  0.00    -0.275 OA
ATOM      4  H   UNL     1      -3.361  -0.919   5.722  0.00  0.00    +0.149 HD
ENDROOT
BRANCH   1   5
ATOM      5  C   UNL     1      -3.460  -0.116   3.759  0.00  0.00    +0.200 C 
BRANCH   5   7
ATOM      6  N   UNL     1      -1.284  -0.019   2.587  0.00  0.00    -0.284 N 
ATOM      7  C   UNL     1      -1.972  -0.346   3.699  0.00  0.00    +0.234 C 
ATOM      8  O   UNL     1      -1.393  -0.827   4.650  0.00  0.00    -0.274 OA
ATOM      9  H   UNL     1      -1.734   0.428   1.852  0.00  0.00    +0.155 HD
BRANCH   6  15
ATOM     10  C   UNL     1       0.629  -0.671   1.266  0.00  0.00    -0.026 A 
ATOM     11  C   UNL     1       1.976  -0.965   1.174  0.00  0.00    +0.005 A 
ATOM     12  C   UNL     1       2.773  -0.919   2.303  0.00  0.00    +0.000 A 
ATOM     13  C   UNL     1       2.226  -0.578   3.526  0.00  0.00    +0.002 A 
ATOM     14  C   UNL     1       0.881  -0.282   3.624  0.00  0.00    +0.023 A 
ATOM     15  C   UNL     1       0.078  -0.323   2.492  0.00  0.00    +0.037 A 
BRANCH  10  17
ATOM     16  C   UNL     1      -0.342   0.678  -0.574  0.00  0.00    +0.009 C 
ATOM     17  C   UNL     1      -0.239  -0.722   0.035  0.00  0.00    +0.033 C 
ENDBRANCH  10  17
ENDBRANCH   6  15
ENDBRANCH   5   7
ENDBRANCH   1   5
BRANCH   2  18
ATOM     18  C   UNL     1      -5.805  -0.887   6.685  0.00  0.00    +0.129 C 
BRANCH  18  19
ATOM     19  C   UNL     1      -7.308  -0.774   6.702  0.00  0.00    -0.030 C 
ATOM     20  C   UNL     1      -8.200  -1.751   6.423  0.00  0.00    +0.002 A 
ATOM     21  C   UNL     1      -8.044  -3.158   6.035  0.00  0.00    +0.048 A 
ATOM     22  C   UNL     1      -9.151  -3.906   5.817  0.00  0.00    +0.124 A 
ATOM     23  C   UNL     1     -10.442  -3.369   5.952  0.00  0.00    +0.040 A 
ATOM     24  C   UNL     1     -10.663  -2.085   6.304  0.00  0.00    +0.029 A 
ATOM     25  C   UNL     1      -9.571  -1.210   6.558  0.00  0.00    +0.043 A 
ATOM     26  N   UNL     1      -9.528   0.053   6.907  0.00  0.00    -0.378 N 
ATOM     27  C   UNL     1      -8.123   0.454   7.039  0.00  0.00    +0.104 C 
ATOM     28  C   UNL     1      -7.832   0.903   8.473  0.00  0.00    +0.035 C 
ATOM     29  F   UNL     1      -9.011  -5.201   5.460  0.00  0.00    -0.205 F 
ATOM     30  H   UNL     1     -10.297   0.625   7.057  0.00  0.00    +0.160 HD
ENDBRANCH  18  19
ENDBRANCH   2  18
TORSDOF 6
