REMARK  Name = ZINC38661423
REMARK  7 active torsions:
REMARK  status: ('A' for Active; 'I' for Inactive)
REMARK    1  A    between atoms: C_1  and  C_2
REMARK    2  A    between atoms: C_2  and  C_3
REMARK    3  A    between atoms: C_3  and  O_4
REMARK    4  A    between atoms: O_4  and  C_5
REMARK    5  A    between atoms: C_10  and  N_11
REMARK    6  A    between atoms: N_11  and  S_12
REMARK    7  A    between atoms: S_12  and  C_15
REMARK                            x       y       z     vdW  Elec       q    Type
REMARK                         _______ _______ _______ _____ _____    ______ ____
ROOT
ATOM      1  S   UNL     1       1.466  -6.188  -1.028  0.00  0.00    +0.073 S 
ATOM      2  O   UNL     1       0.631  -6.760  -0.030  0.00  0.00    -0.150 OA
ATOM      3  O   UNL     1       1.715  -6.828  -2.272  0.00  0.00    -0.150 OA
ENDROOT
BRANCH   1   4
ATOM      4  C   UNL     1       3.038  -5.920  -0.277  0.00  0.00    +0.110 A 
ATOM      5  C   UNL     1       4.222  -5.842  -1.124  0.00  0.00    +0.031 A 
ATOM      6  C   UNL     1       5.455  -5.639  -0.613  0.00  0.00    +0.027 A 
ATOM      7  C   UNL     1       5.622  -5.491   0.831  0.00  0.00    +0.056 A 
ATOM      8  N   UNL     1       6.642  -5.290   1.628  0.00  0.00    -0.268 N 
ATOM      9  C   UNL     1       6.178  -5.237   2.921  0.00  0.00    +0.308 C 
ATOM     10  O   UNL     1       6.869  -5.062   3.903  0.00  0.00    -0.252 OA
ATOM     11  N   UNL     1       4.814  -5.411   2.935  0.00  0.00    -0.267 N 
ATOM     12  C   UNL     1       4.406  -5.571   1.702  0.00  0.00    +0.058 A 
ATOM     13  C   UNL     1       3.108  -5.789   1.065  0.00  0.00    +0.054 A 
ATOM     14  H   UNL     1       4.251  -5.415   3.724  0.00  0.00    +0.156 HD
ATOM     15  H   UNL     1       7.567  -5.196   1.352  0.00  0.00    +0.156 HD
ENDBRANCH   1   4
BRANCH   1  16
ATOM     16  N   UNL     1       0.832  -4.699  -1.380  0.00  0.00    -0.213 N 
ATOM     17  H   UNL     1      -0.008  -4.424  -0.982  0.00  0.00    +0.174 HD
BRANCH  16  23
ATOM     18  C   UNL     1       1.482  -2.462  -2.035  0.00  0.00    +0.143 A 
ATOM     19  C   UNL     1       2.159  -1.615  -2.897  0.00  0.00    +0.047 A 
ATOM     20  C   UNL     1       2.855  -2.135  -3.973  0.00  0.00    +0.004 A 
ATOM     21  C   UNL     1       2.878  -3.500  -4.191  0.00  0.00    +0.002 A 
ATOM     22  C   UNL     1       2.205  -4.352  -3.336  0.00  0.00    +0.028 A 
ATOM     23  C   UNL     1       1.509  -3.838  -2.251  0.00  0.00    +0.090 A 
BRANCH  18  24
ATOM     24  O   UNL     1       0.796  -1.952  -0.977  0.00  0.00    -0.490 OA
BRANCH  24  25
ATOM     25  C   UNL     1       0.812  -0.532  -0.817  0.00  0.00    +0.229 C 
BRANCH  25  27
ATOM     26  C   UNL     1       0.011   1.372   0.588  0.00  0.00    +0.007 C 
ATOM     27  C   UNL     1      -0.006  -0.148   0.417  0.00  0.00    +0.038 C 
ENDBRANCH  25  27
ENDBRANCH  24  25
ENDBRANCH  18  24
ENDBRANCH  16  23
ENDBRANCH   1  16
TORSDOF 6
