REMARK  Name = ZINC22107902
REMARK  12 active torsions:
REMARK  status: ('A' for Active; 'I' for Inactive)
REMARK    1  A    between atoms: C_1  and  O_2
REMARK    2  A    between atoms: O_2  and  C_3
REMARK    3  A    between atoms: C_5  and  C_15
REMARK    4  A    between atoms: C_8  and  O_9
REMARK    5  A    between atoms: O_9  and  C_10
REMARK    6  A    between atoms: C_10  and  C_11
REMARK    7  A    between atoms: C_15  and  N_16
REMARK    8  A    between atoms: N_16  and  C_17
REMARK    9  A    between atoms: C_17  and  C_18
REMARK   10  A    between atoms: C_18  and  S_19
REMARK   11  A    between atoms: S_19  and  C_20
REMARK   12  A    between atoms: N_24  and  C_25
REMARK                            x       y       z     vdW  Elec       q    Type
REMARK                         _______ _______ _______ _____ _____    ______ ____
ROOT
ATOM      1  C   UNL     1       1.524   0.033   6.146  0.00  0.00    -0.047 C 
ENDROOT
BRANCH   1   4
ATOM      2  C   UNL     1       0.807   1.987   2.993  0.00  0.00    +0.163 A 
ATOM      3  C   UNL     1       1.347   1.611   4.213  0.00  0.00    +0.051 A 
ATOM      4  C   UNL     1       0.936   0.439   4.819  0.00  0.00    -0.060 A 
ATOM      5  C   UNL     1      -0.013  -0.362   4.211  0.00  0.00    +0.021 A 
ATOM      6  C   UNL     1      -0.559   0.009   2.996  0.00  0.00    +0.063 A 
ATOM      7  C   UNL     1      -0.148   1.182   2.381  0.00  0.00    +0.176 A 
ATOM      8 BR   UNL     1      -1.862  -1.085   2.171  0.00  0.00    -0.046 Br
BRANCH   2  10
ATOM      9  C   UNL     1       2.193   3.917   3.082  0.00  0.00    +0.277 C 
ATOM     10  O   UNL     1       1.210   3.140   2.396  0.00  0.00    -0.491 OA
ENDBRANCH   2  10
BRANCH   7  11
ATOM     11  O   UNL     1      -0.682   1.547   1.184  0.00  0.00    -0.478 OA
BRANCH  11  12
ATOM     12  C   UNL     1      -0.013   1.086   0.008  0.00  0.00    +0.324 C 
BRANCH  12  13
ATOM     13  C   UNL     1      -0.742   1.585  -1.213  0.00  0.00    +0.248 C 
ATOM     14  O   UNL     1      -1.736   2.268  -1.088  0.00  0.00    -0.272 OA
ATOM     15  N   UNL     1      -0.288   1.272  -2.443  0.00  0.00    -0.327 N 
ATOM     16  H   UNL     1      -0.820   1.637  -3.334  0.00  0.00    +0.145 HD
ATOM     17  H   UNL     1       0.614   0.653  -2.556  0.00  0.00    +0.145 HD
ENDBRANCH  12  13
ENDBRANCH  11  12
ENDBRANCH   7  11
ENDBRANCH   1   4
BRANCH   1  18
ATOM     18  N   UNL     1       0.711   0.592   7.234  0.00  0.00    +0.382 N 
ATOM     19  H   UNL     1       0.701   1.689   7.157  0.00  0.00    -0.085 HD
ATOM     20  H   UNL     1      -0.318   0.210   7.156  0.00  0.00    -0.085 HD
BRANCH  18  21
ATOM     21  C   UNL     1       1.255   0.216   8.545  0.00  0.00    -0.071 C 
BRANCH  21  22
ATOM     22  C   UNL     1       0.383   0.815   9.650  0.00  0.00    +0.058 C 
BRANCH  22  23
ATOM     23  S   UNL     1       1.054   0.352  11.266  0.00  0.00    -0.086 S 
BRANCH  23  24
ATOM     24  C   UNL     1      -0.109   1.152  12.321  0.00  0.00    +0.214 A 
ATOM     25  N   UNL     1      -1.147   1.866  11.942  0.00  0.00    -0.101 NA
ATOM     26  N   UNL     1      -1.788   2.306  12.964  0.00  0.00    -0.022 NA
ATOM     27  N   UNL     1      -1.220   1.915  14.053  0.00  0.00    -0.038 NA
ATOM     28  N   UNL     1      -0.107   1.142  13.678  0.00  0.00    -0.187 N 
BRANCH  28  29
ATOM     29  C   UNL     1       0.810   0.502  14.524  0.00  0.00    +0.070 A 
ATOM     30  C   UNL     1       1.358  -0.720  14.158  0.00  0.00    +0.028 A 
ATOM     31  C   UNL     1       2.264  -1.346  14.991  0.00  0.00    +0.002 A 
ATOM     32  C   UNL     1       2.618  -0.762  16.194  0.00  0.00    +0.000 A 
ATOM     33  C   UNL     1       2.070   0.453  16.563  0.00  0.00    +0.002 A 
ATOM     34  C   UNL     1       1.167   1.086  15.732  0.00  0.00    +0.028 A 
ENDBRANCH  28  29
ENDBRANCH  23  24
ENDBRANCH  22  23
ENDBRANCH  21  22
ENDBRANCH  18  21
ENDBRANCH   1  18
TORSDOF 11
