REMARK  Name = ZINC27755435
REMARK  8 active torsions:
REMARK  status: ('A' for Active; 'I' for Inactive)
REMARK    1  A    between atoms: C_1  and  C_2
REMARK    2  A    between atoms: C_2  and  C_4
REMARK    3  A    between atoms: C_7  and  C_10
REMARK    4  A    between atoms: C_13  and  C_15
REMARK    5  A    between atoms: C_17  and  C_29
REMARK    6  A    between atoms: C_19  and  C_24
REMARK    7  A    between atoms: C_19  and  O_28
REMARK    8  A    between atoms: C_29  and  C_31
REMARK                            x       y       z     vdW  Elec       q    Type
REMARK                         _______ _______ _______ _____ _____    ______ ____
ROOT
ATOM      1  C   UNL     1      -1.044   0.873   0.564  0.00  0.00    +0.156 C 
ATOM      2  C   UNL     1      -0.915   2.003   1.592  0.00  0.00    +0.147 C 
ATOM      3  C   UNL     1      -0.079   3.130   0.976  0.00  0.00    +0.243 C 
ATOM      4  N   UNL     1       1.206   2.587   0.531  0.00  0.00    -0.264 N 
ATOM      5  C   UNL     1       1.326   1.309   0.141  0.00  0.00    +0.302 C 
ATOM      6  O   UNL     1       2.414   0.912  -0.229  0.00  0.00    -0.253 OA
ATOM      7  N   UNL     1       0.293   0.453   0.142  0.00  0.00    -0.289 N 
ATOM      8  H   UNL     1       2.098   3.231   0.513  0.00  0.00    +0.153 HD
ATOM      9  H   UNL     1       0.467  -0.584  -0.182  0.00  0.00    +0.151 HD
ENDROOT
BRANCH   1  13
ATOM     10  C   UNL     1      -3.362   2.346  -1.845  0.00  0.00    +0.135 A 
ATOM     11  C   UNL     1      -2.472   1.782  -2.708  0.00  0.00    +0.050 A 
ATOM     12  C   UNL     1      -1.484   1.160  -1.923  0.00  0.00    +0.047 A 
ATOM     13  C   UNL     1      -1.818   1.365  -0.632  0.00  0.00    +0.127 A 
ATOM     14  O   UNL     1      -2.950   2.084  -0.589  0.00  0.00    -0.458 OA
BRANCH  10  18
ATOM     15  C   UNL     1      -6.822   4.545  -2.922  0.00  0.00    +0.017 A 
ATOM     16  C   UNL     1      -6.511   4.346  -1.571  0.00  0.00    +0.012 A 
ATOM     17  C   UNL     1      -5.397   3.637  -1.225  0.00  0.00    +0.012 A 
ATOM     18  C   UNL     1      -4.566   3.111  -2.220  0.00  0.00    +0.017 A 
ATOM     19  C   UNL     1      -4.873   3.314  -3.570  0.00  0.00    +0.012 A 
ATOM     20  C   UNL     1      -5.989   4.017  -3.918  0.00  0.00    +0.012 A 
BRANCH  15  22
ATOM     21  C   UNL     1      -8.355   5.521  -4.749  0.00  0.00    +0.091 C 
ATOM     22  C   UNL     1      -8.021   5.307  -3.295  0.00  0.00    +0.160 C 
ATOM     23  O   UNL     1      -8.742   5.763  -2.433  0.00  0.00    -0.292 OA
ENDBRANCH  15  22
ENDBRANCH  10  18
ENDBRANCH   1  13
BRANCH   3  24
ATOM     24  C   UNL     1      -0.825   3.723  -0.221  0.00  0.00    +0.436 C 
ATOM     25  F   UNL     1      -0.595   2.934  -1.353  0.00  0.00    -0.166 F 
ATOM     26  F   UNL     1      -2.196   3.756   0.053  0.00  0.00    -0.166 F 
ATOM     27  F   UNL     1      -0.366   5.024  -0.458  0.00  0.00    -0.166 F 
ENDBRANCH   3  24
BRANCH   3  28
ATOM     28  O   UNL     1       0.145   4.148   1.953  0.00  0.00    -0.364 OA
ATOM     29  H   UNL     1       0.729   5.042   1.692  0.00  0.00    +0.212 HD
ENDBRANCH   3  28
BRANCH   2  30
ATOM     30  C   UNL     1      -0.232   1.484   2.831  0.00  0.00    +0.173 C 
ATOM     31  O   UNL     1       0.966   1.619   2.964  0.00  0.00    -0.292 OA
BRANCH  30  32
ATOM     32  C   UNL     1      -1.017   0.813   3.879  0.00  0.00    +0.018 A 
ATOM     33  C   UNL     1      -2.400   0.660   3.731  0.00  0.00    +0.011 A 
ATOM     34  C   UNL     1      -3.128   0.027   4.716  0.00  0.00    +0.001 A 
ATOM     35  C   UNL     1      -2.497  -0.449   5.852  0.00  0.00    +0.000 A 
ATOM     36  C   UNL     1      -1.130  -0.297   6.007  0.00  0.00    +0.001 A 
ATOM     37  C   UNL     1      -0.387   0.330   5.030  0.00  0.00    +0.011 A 
ENDBRANCH  30  32
ENDBRANCH   2  30
TORSDOF 7
