REMARK  Name = ZINC59384837
REMARK  5 active torsions:
REMARK  status: ('A' for Active; 'I' for Inactive)
REMARK    1  A    between atoms: C_1  and  C_2
REMARK    2  A    between atoms: C_3  and  C_17
REMARK    3  A    between atoms: C_4  and  C_10
REMARK    4  A    between atoms: N_19  and  N_20
REMARK    5  A    between atoms: C_21  and  C_22
REMARK                            x       y       z     vdW  Elec       q    Type
REMARK                         _______ _______ _______ _____ _____    ______ ____
ROOT
ATOM      1  C   UNL     1       0.654   1.352   0.048  0.00  0.00    +0.061 C 
ATOM      2  C   UNL     1       0.363  -0.126   0.026  0.00  0.00    +0.017 C 
ATOM      3  C   UNL     1      -0.917  -0.550  -0.037  0.00  0.00    +0.057 C 
ATOM      4  C   UNL     1      -1.165  -2.045  -0.058  0.00  0.00    +0.139 C 
ATOM      5  N   UNL     1       0.019  -2.918  -0.007  0.00  0.00    -0.315 N 
ATOM      6  C   UNL     1       1.237  -2.345   0.054  0.00  0.00    +0.135 C 
ATOM      7  S   UNL     1       2.623  -3.348   0.114  0.00  0.00    -0.019 S 
ATOM      8  N   UNL     1       1.399  -1.016   0.065  0.00  0.00    -0.300 N 
ATOM      9  H   UNL     1      -0.075  -3.884  -0.017  0.00  0.00    +0.149 HD
ATOM     10  H   UNL     1       2.303  -0.665   0.106  0.00  0.00    +0.154 HD
ENDROOT
BRANCH   4  11
ATOM     11  C   UNL     1      -1.929  -2.371  -1.316  0.00  0.00    -0.023 A 
ATOM     12  C   UNL     1      -1.283  -2.362  -2.538  0.00  0.00    +0.007 A 
ATOM     13  C   UNL     1      -1.983  -2.662  -3.692  0.00  0.00    +0.015 A 
ATOM     14  C   UNL     1      -3.329  -2.972  -3.623  0.00  0.00    +0.018 A 
ATOM     15  C   UNL     1      -3.975  -2.981  -2.399  0.00  0.00    +0.015 A 
ATOM     16  C   UNL     1      -3.273  -2.686  -1.246  0.00  0.00    +0.007 A 
ATOM     17 BR   UNL     1      -4.288  -3.382  -5.200  0.00  0.00    -0.050 Br
ENDBRANCH   4  11
BRANCH   3  18
ATOM     18  C   UNL     1      -1.992   0.371  -0.082  0.00  0.00    +0.263 C 
ATOM     19  O   UNL     1      -2.656   0.582   0.917  0.00  0.00    -0.269 OA
ATOM     20  N   UNL     1      -2.280   1.015  -1.231  0.00  0.00    -0.203 N 
ATOM     21  H   UNL     1      -1.800   0.794  -2.044  0.00  0.00    +0.178 HD
BRANCH  20  22
ATOM     22  N   UNL     1      -3.272   2.004  -1.250  0.00  0.00    -0.187 NA
ATOM     23  C   UNL     1      -3.549   2.624  -2.356  0.00  0.00    +0.139 C 
BRANCH  23  24
ATOM     24  C   UNL     1      -4.593   3.665  -2.375  0.00  0.00    +0.013 A 
ATOM     25  C   UNL     1      -4.898   4.331  -3.565  0.00  0.00    +0.011 A 
ATOM     26  C   UNL     1      -5.877   5.303  -3.576  0.00  0.00    +0.001 A 
ATOM     27  C   UNL     1      -6.556   5.620  -2.413  0.00  0.00    +0.001 A 
ATOM     28  C   UNL     1      -6.259   4.967  -1.231  0.00  0.00    +0.020 A 
ATOM     29  C   UNL     1      -5.287   3.987  -1.205  0.00  0.00    +0.050 A 
ATOM     30 CL   UNL     1      -4.920   3.162   0.278  0.00  0.00    -0.083 Cl
ENDBRANCH  23  24
ENDBRANCH  20  22
ENDBRANCH   3  18
TORSDOF 4
