REMARK  Name = ZINC11013408
REMARK  10 active torsions:
REMARK  status: ('A' for Active; 'I' for Inactive)
REMARK    1  A    between atoms: C_1  and  N_46
REMARK    2  A    between atoms: C_2  and  C_3
REMARK    3  A    between atoms: C_2  and  N_46
REMARK    4  A    between atoms: C_5  and  N_10
REMARK    5  A    between atoms: C_13  and  C_14
REMARK    6  A    between atoms: C_13  and  N_46
REMARK    7  A    between atoms: N_16  and  C_17
REMARK    8  A    between atoms: C_17  and  C_18
REMARK    9  A    between atoms: C_23  and  O_24
REMARK   10  A    between atoms: O_24  and  C_25
REMARK                            x       y       z     vdW  Elec       q    Type
REMARK                         _______ _______ _______ _____ _____    ______ ____
ROOT
ATOM      1  C   UNL     1      -4.389   2.456   3.192  0.00  0.00    +0.197 C 
ATOM      2  O   UNL     1      -4.528   3.652   3.330  0.00  0.00    -0.278 OA
ATOM      3  N   UNL     1      -3.160   1.907   3.271  0.00  0.00    -0.313 N 
ATOM      4  H   UNL     1      -3.049   0.949   3.161  0.00  0.00    +0.149 HD
ENDROOT
BRANCH   1   5
ATOM      5  C   UNL     1      -5.589   1.582   2.934  0.00  0.00    +0.019 C 
BRANCH   5   7
ATOM      6  C   UNL     1      -6.776   3.324   1.741  0.00  0.00    -0.095 C 
ATOM      7  N   UNL     1      -6.800   2.429   2.918  0.00  0.00    +0.386 N 
ATOM      8  H   UNL     1      -6.819   3.000   3.771  0.00  0.00    -0.081 HD
BRANCH   7   9
ATOM      9  C   UNL     1      -8.010   1.580   2.881  0.00  0.00    -0.041 C 
BRANCH   9  10
ATOM     10  C   UNL     1      -9.222   2.452   3.087  0.00  0.00    -0.043 A 
ATOM     11  C   UNL     1     -10.046   2.753   2.019  0.00  0.00    +0.036 A 
ATOM     12  C   UNL     1     -11.161   3.548   2.210  0.00  0.00    +0.126 A 
ATOM     13  C   UNL     1     -11.446   4.051   3.466  0.00  0.00    +0.034 A 
ATOM     14  C   UNL     1     -10.619   3.755   4.533  0.00  0.00    +0.022 A 
ATOM     15  C   UNL     1      -9.506   2.955   4.344  0.00  0.00    +0.042 A 
ATOM     16 CL   UNL     1      -8.468   2.582   5.684  0.00  0.00    -0.083 Cl
BRANCH  12  17
ATOM     17  N   UNL     1     -12.046   3.866   1.067  0.00  0.00    +0.056 N 
ATOM     18  O   UNL     1     -13.025   4.571   1.233  0.00  0.00    -0.126 OA
ATOM     19  O   UNL     1     -11.795   3.424  -0.040  0.00  0.00    -0.126 OA
ENDBRANCH  12  17
ENDBRANCH   9  10
ENDBRANCH   7   9
ENDBRANCH   5   7
ENDBRANCH   1   5
BRANCH   3  20
ATOM     20  C   UNL     1      -1.993   2.756   3.522  0.00  0.00    +0.143 C 
BRANCH  20  21
ATOM     21  C   UNL     1      -0.751   1.903   3.563  0.00  0.00    +0.012 A 
ATOM     22  C   UNL     1      -0.207   1.531   4.777  0.00  0.00    +0.009 A 
ATOM     23  C   UNL     1       0.932   0.749   4.816  0.00  0.00    +0.001 A 
ATOM     24  C   UNL     1       1.530   0.336   3.639  0.00  0.00    +0.004 A 
ATOM     25  C   UNL     1       0.987   0.701   2.422  0.00  0.00    +0.046 A 
ATOM     26  C   UNL     1      -0.153   1.491   2.381  0.00  0.00    +0.135 A 
BRANCH  26  27
ATOM     27  O   UNL     1      -0.686   1.856   1.185  0.00  0.00    -0.405 OA
BRANCH  27  28
ATOM     28  C   UNL     1      -0.017   1.395   0.010  0.00  0.00    +0.575 C 
ATOM     29  F   UNL     1       0.002  -0.004   0.002  0.00  0.00    -0.133 F 
ATOM     30  F   UNL     1       1.296   1.879  -0.000  0.00  0.00    -0.133 F 
ATOM     31  F   UNL     1      -0.694   1.858  -1.124  0.00  0.00    -0.133 F 
ENDBRANCH  27  28
ENDBRANCH  26  27
ENDBRANCH  20  21
ENDBRANCH   3  20
TORSDOF 9
