REMARK  Name = ZINC32577028
REMARK  8 active torsions:
REMARK  status: ('A' for Active; 'I' for Inactive)
REMARK    1  A    between atoms: C_1  and  C_2
REMARK    2  A    between atoms: C_5  and  N_8
REMARK    3  A    between atoms: C_17  and  S_18
REMARK    4  A    between atoms: S_18  and  C_19
REMARK    5  A    between atoms: C_19  and  C_20
REMARK    6  A    between atoms: N_22  and  N_23
REMARK    7  A    between atoms: C_24  and  C_25
REMARK    8  A    between atoms: C_29  and  O_31
REMARK                            x       y       z     vdW  Elec       q    Type
REMARK                         _______ _______ _______ _____ _____    ______ ____
ROOT
ATOM      1  N   UNL     1      -8.878   5.572  -0.613  0.00  0.00    -0.255 N 
ATOM      2  C   UNL     1      -9.927   4.728  -0.625  0.00  0.00    +0.268 A 
ATOM      3  O   UNL     1     -11.055   5.146  -0.823  0.00  0.00    -0.267 OA
ATOM      4  C   UNL     1      -9.699   3.333  -0.403  0.00  0.00    +0.076 A 
ATOM      5  C   UNL     1     -10.681   2.248  -0.373  0.00  0.00    -0.023 A 
ATOM      6  C   UNL     1     -10.213   1.004  -0.142  0.00  0.00    -0.004 A 
ATOM      7  S   UNL     1      -8.461   1.200   0.048  0.00  0.00    -0.073 S 
ATOM      8  C   UNL     1      -8.363   2.958  -0.185  0.00  0.00    +0.117 A 
ATOM      9  N   UNL     1      -7.370   3.840  -0.191  0.00  0.00    -0.215 NA
ATOM     10  C   UNL     1      -7.607   5.120  -0.393  0.00  0.00    +0.178 A 
ATOM     11  C   UNL     1     -11.006  -0.264  -0.063  0.00  0.00    +0.043 C 
ATOM     12  C   UNL     1     -12.490   0.100   0.084  0.00  0.00    +0.005 C 
ATOM     13  C   UNL     1     -12.839   1.165  -0.960  0.00  0.00    +0.005 C 
ATOM     14  C   UNL     1     -12.172   2.491  -0.593  0.00  0.00    +0.037 C 
ENDROOT
BRANCH   1  19
ATOM     15  C   UNL     1      -9.753  11.109  -1.496  0.00  0.00    +0.044 C 
ATOM     16  C   UNL     1      -9.521   9.639  -1.261  0.00  0.00    -0.050 A 
ATOM     17  C   UNL     1      -8.660   8.937  -2.084  0.00  0.00    +0.005 A 
ATOM     18  C   UNL     1      -8.445   7.589  -1.872  0.00  0.00    +0.026 A 
ATOM     19  C   UNL     1      -9.094   6.939  -0.831  0.00  0.00    +0.052 A 
ATOM     20  C   UNL     1      -9.962   7.646  -0.009  0.00  0.00    +0.026 A 
ATOM     21  C   UNL     1     -10.170   8.994  -0.224  0.00  0.00    +0.005 A 
ENDBRANCH   1  19
BRANCH  10  22
ATOM     22  S   UNL     1      -6.267   6.264  -0.387  0.00  0.00    -0.078 S 
BRANCH  22  23
ATOM     23  C   UNL     1      -4.891   5.134  -0.060  0.00  0.00    +0.174 C 
BRANCH  23  24
ATOM     24  C   UNL     1      -3.602   5.913  -0.009  0.00  0.00    +0.242 C 
ATOM     25  O   UNL     1      -3.613   7.115  -0.178  0.00  0.00    -0.273 OA
ATOM     26  N   UNL     1      -2.438   5.276   0.224  0.00  0.00    -0.206 N 
ATOM     27  H   UNL     1      -2.429   4.187   0.377  0.00  0.00    +0.177 HD
BRANCH  26  28
ATOM     28  N   UNL     1      -1.240   6.000   0.270  0.00  0.00    -0.188 NA
ATOM     29  C   UNL     1      -0.107   5.375   0.371  0.00  0.00    +0.138 C 
BRANCH  29  30
ATOM     30  C   UNL     1       0.015   3.989  -0.117  0.00  0.00    -0.002 A 
ATOM     31  C   UNL     1      -0.966   3.449  -0.953  0.00  0.00    +0.010 A 
ATOM     32  C   UNL     1      -0.844   2.154  -1.411  0.00  0.00    +0.004 A 
ATOM     33  C   UNL     1       0.241   1.382  -1.037  0.00  0.00    +0.045 A 
ATOM     34  C   UNL     1       1.221   1.909  -0.207  0.00  0.00    +0.117 A 
ATOM     35  C   UNL     1       1.113   3.210   0.255  0.00  0.00    +0.054 A 
BRANCH  34  36
ATOM     36  O   UNL     1       2.287   1.147   0.153  0.00  0.00    -0.507 OA
ATOM     37  H   UNL     1       3.064   1.564   0.811  0.00  0.00    +0.292 HD
ENDBRANCH  34  36
ENDBRANCH  29  30
ENDBRANCH  26  28
ENDBRANCH  23  24
ENDBRANCH  22  23
ENDBRANCH  10  22
TORSDOF 7
