REMARK  Name = ZINC14958038
REMARK  7 active torsions:
REMARK  status: ('A' for Active; 'I' for Inactive)
REMARK    1  A    between atoms: C_1  and  O_2
REMARK    2  A    between atoms: O_2  and  C_3
REMARK    3  A    between atoms: C_3  and  C_5
REMARK    4  A    between atoms: C_9  and  S_10
REMARK    5  A    between atoms: S_10  and  N_13
REMARK    6  A    between atoms: C_22  and  C_23
REMARK    7  A    between atoms: C_22  and  N_52
REMARK                            x       y       z     vdW  Elec       q    Type
REMARK                         _______ _______ _______ _____ _____    ______ ____
ROOT
ATOM      1  C   UNL     1       6.912  -2.248  -1.081  0.00  0.00    +0.096 A 
ATOM      2  C   UNL     1       5.740  -1.411  -1.239  0.00  0.00    -0.025 A 
ATOM      3  C   UNL     1       4.583  -1.944  -0.779  0.00  0.00    -0.021 A 
ATOM      4  S   UNL     1       5.044  -3.532  -0.150  0.00  0.00    -0.074 S 
ATOM      5  C   UNL     1       6.742  -3.484  -0.491  0.00  0.00    +0.157 A 
ATOM      6  C   UNL     1       3.233  -1.302  -0.814  0.00  0.00    -0.035 C 
ATOM      7  C   UNL     1       4.303   0.332  -2.248  0.00  0.00    -0.074 C 
ATOM      8  C   UNL     1       5.744  -0.023  -1.869  0.00  0.00    +0.018 C 
ATOM      9  N   UNL     1       3.426   0.146  -1.073  0.00  0.00    +0.383 N 
ATOM     10  H   UNL     1       3.871   0.576  -0.254  0.00  0.00    -0.081 HD
ENDROOT
BRANCH   5  11
ATOM     11  S   UNL     1       7.959  -4.716  -0.165  0.00  0.00    +0.068 S 
ATOM     12  O   UNL     1       7.271  -5.956  -0.088  0.00  0.00    -0.152 OA
ATOM     13  O   UNL     1       9.022  -4.490  -1.080  0.00  0.00    -0.152 OA
BRANCH  11  14
ATOM     14  N   UNL     1       8.565  -4.416   1.347  0.00  0.00    -0.176 NA
ATOM     15  C   UNL     1       9.732  -3.542   1.526  0.00  0.00    +0.109 C 
ATOM     16  C   UNL     1       9.370  -2.447   2.541  0.00  0.00    +0.017 C 
ATOM     17  C   UNL     1       8.871  -3.100   3.832  0.00  0.00    +0.003 C 
ATOM     18  C   UNL     1       7.612  -3.918   3.537  0.00  0.00    +0.017 C 
ATOM     19  C   UNL     1       7.950  -5.026   2.534  0.00  0.00    +0.109 C 
ENDBRANCH  11  14
ENDBRANCH   5  11
BRANCH   1  20
ATOM     20  C   UNL     1       8.236  -1.796  -1.533  0.00  0.00    +0.342 C 
ATOM     21  O   UNL     1       8.960  -1.183  -0.774  0.00  0.00    -0.245 OA
BRANCH  20  23
ATOM     22  C   UNL     1       9.965  -1.586  -3.167  0.00  0.00    +0.280 C 
ATOM     23  O   UNL     1       8.646  -2.063  -2.789  0.00  0.00    -0.464 OA
ENDBRANCH  20  23
ENDBRANCH   1  20
BRANCH   9  24
ATOM     24  C   UNL     1       2.120   0.797  -1.308  0.00  0.00    -0.075 C 
BRANCH  24  25
ATOM     25  C   UNL     1       1.317   0.779  -0.006  0.00  0.00    -0.028 C 
ATOM     26  C   UNL     1      -0.019   1.526   0.010  0.00  0.00    +0.002 C 
ATOM     27  C   UNL     1       0.002  -0.004   0.002  0.00  0.00    +0.002 C 
ENDBRANCH  24  25
ENDBRANCH   9  24
TORSDOF 6
