REMARK  Name = ZINC09056416
REMARK  5 active torsions:
REMARK  status: ('A' for Active; 'I' for Inactive)
REMARK    1  A    between atoms: C_1  and  C_2
REMARK    2  A    between atoms: N_10  and  N_14
REMARK    3  A    between atoms: C_15  and  C_17
REMARK    4  A    between atoms: C_17  and  S_18
REMARK    5  A    between atoms: S_18  and  C_19
REMARK                            x       y       z     vdW  Elec       q    Type
REMARK                         _______ _______ _______ _____ _____    ______ ____
ROOT
ATOM      1  N   UNL     1      -1.146  -0.807   0.009  0.00  0.00    -0.223 N 
ATOM      2  C   UNL     1      -1.536  -1.435  -1.118  0.00  0.00    +0.240 C 
ATOM      3  O   UNL     1      -0.893  -1.305  -2.138  0.00  0.00    -0.273 OA
ATOM      4  H   UNL     1      -1.660  -0.911   0.825  0.00  0.00    +0.174 HD
ENDROOT
BRANCH   1  14
ATOM      5  C   UNL     1       5.008   4.205  -0.023  0.00  0.00    +0.007 C 
ATOM      6  C   UNL     1       3.533   3.799  -0.011  0.00  0.00    -0.014 C 
ATOM      7  C   UNL     1       3.220   2.976  -1.262  0.00  0.00    +0.006 C 
ATOM      8  C   UNL     1       1.741   2.581  -1.255  0.00  0.00    +0.035 C 
ATOM      9  C   UNL     1       1.435   1.768  -0.002  0.00  0.00    +0.114 C 
ATOM     10  C   UNL     1       1.765   2.567   1.254  0.00  0.00    +0.035 C 
ATOM     11  C   UNL     1       3.244   2.962   1.237  0.00  0.00    +0.006 C 
ATOM     12  C   UNL     1      -0.016   1.345   0.009  0.00  0.00    +0.263 C 
ATOM     13  O   UNL     1      -0.991   2.066   0.018  0.00  0.00    -0.271 OA
ATOM     14  N   UNL     1       0.002  -0.004   0.002  0.00  0.00    -0.137 N 
ATOM     15  C   UNL     1       1.253  -0.480  -0.013  0.00  0.00    +0.326 C 
ATOM     16  O   UNL     1       1.526  -1.665  -0.021  0.00  0.00    -0.251 OA
ATOM     17  N   UNL     1       2.176   0.501  -0.016  0.00  0.00    -0.284 N 
ATOM     18  H   UNL     1       3.140   0.392  -0.026  0.00  0.00    +0.151 HD
ENDBRANCH   1  14
BRANCH   2  19
ATOM     19  C   UNL     1      -2.771  -2.299  -1.110  0.00  0.00    +0.171 C 
BRANCH  19  20
ATOM     20  S   UNL     1      -3.029  -2.999  -2.763  0.00  0.00    -0.115 S 
BRANCH  20  21
ATOM     21  C   UNL     1      -4.490  -3.970  -2.592  0.00  0.00    +0.017 A 
ATOM     22  C   UNL     1      -5.138  -4.043  -1.376  0.00  0.00    +0.015 A 
ATOM     23  C   UNL     1      -6.292  -4.806  -1.231  0.00  0.00    +0.002 A 
ATOM     24  C   UNL     1      -6.813  -5.501  -2.280  0.00  0.00    +0.008 A 
ATOM     25  C   UNL     1      -6.182  -5.454  -3.535  0.00  0.00    -0.015 A 
ATOM     26  C   UNL     1      -5.010  -4.675  -3.698  0.00  0.00    +0.014 A 
ATOM     27  C   UNL     1      -4.378  -4.634  -4.952  0.00  0.00    +0.050 A 
ATOM     28  C   UNL     1      -4.906  -5.333  -5.996  0.00  0.00    +0.020 A 
ATOM     29  C   UNL     1      -6.062  -6.094  -5.838  0.00  0.00    +0.002 A 
ATOM     30  C   UNL     1      -6.697  -6.161  -4.636  0.00  0.00    +0.008 A 
ATOM     31 CL   UNL     1      -2.937  -3.691  -5.171  0.00  0.00    -0.083 Cl
ENDBRANCH  20  21
ENDBRANCH  19  20
ENDBRANCH   2  19
TORSDOF 4
