REMARK  Name = ZINC39682451
REMARK  6 active torsions:
REMARK  status: ('A' for Active; 'I' for Inactive)
REMARK    1  A    between atoms: C_4  and  C_7
REMARK    2  A    between atoms: C_7  and  C_9
REMARK    3  A    between atoms: C_7  and  N_13
REMARK    4  A    between atoms: C_9  and  C_10
REMARK    5  A    between atoms: C_14  and  C_16
REMARK    6  A    between atoms: C_27  and  C_29
REMARK                            x       y       z     vdW  Elec       q    Type
REMARK                         _______ _______ _______ _____ _____    ______ ____
ROOT
ATOM      1  C   UNL     1       5.065  -3.517  -1.659  0.00  0.00    +0.100 C 
ATOM      2  C   UNL     1       4.109  -3.705  -2.858  0.00  0.00    +0.121 C 
ATOM      3  N   UNL     1       4.972  -3.556  -4.053  0.00  0.00    -0.296 N 
ATOM      4  C   UNL     1       6.233  -4.243  -3.686  0.00  0.00    +0.115 C 
ATOM      5  C   UNL     1       6.458  -3.875  -2.206  0.00  0.00    -0.004 C 
ATOM      6  C   UNL     1       7.033  -5.066  -1.446  0.00  0.00    -0.010 C 
ATOM      7  C   UNL     1       8.441  -5.366  -1.967  0.00  0.00    -0.082 C 
ATOM      8  N   UNL     1       9.294  -4.186  -1.785  0.00  0.00    +0.379 N 
ATOM      9  C   UNL     1       8.786  -3.071  -2.592  0.00  0.00    -0.082 C 
ATOM     10  C   UNL     1       7.392  -2.674  -2.098  0.00  0.00    -0.010 C 
ATOM     11  C   UNL     1       4.677  -2.935  -5.213  0.00  0.00    +0.249 C 
ATOM     12  O   UNL     1       5.460  -2.979  -6.142  0.00  0.00    -0.270 OA
ATOM     13  H   UNL     1       9.296  -3.921  -0.811  0.00  0.00    -0.086 HD
ATOM     14  H   UNL     1      10.236  -4.406  -2.072  0.00  0.00    -0.086 HD
ENDROOT
BRANCH  11  15
ATOM     15  C   UNL     1       3.403  -2.202  -5.355  0.00  0.00    +0.073 A 
ATOM     16  C   UNL     1       2.244  -2.685  -4.744  0.00  0.00    +0.016 A 
ATOM     17  C   UNL     1       1.057  -1.996  -4.880  0.00  0.00    +0.002 A 
ATOM     18  C   UNL     1       1.011  -0.826  -5.620  0.00  0.00    +0.023 A 
ATOM     19  C   UNL     1       2.154  -0.340  -6.229  0.00  0.00    +0.077 A 
ATOM     20  C   UNL     1       3.353  -1.018  -6.097  0.00  0.00    +0.154 A 
ATOM     21  F   UNL     1       4.470  -0.540  -6.687  0.00  0.00    -0.203 F 
ATOM     22 CL   UNL     1       2.084   1.127  -7.154  0.00  0.00    -0.081 Cl
ENDBRANCH  11  15
BRANCH   1  24
ATOM     23  N   UNL     1       5.338  -1.795   0.095  0.00  0.00    -0.308 N 
ATOM     24  C   UNL     1       5.039  -2.087  -1.187  0.00  0.00    +0.219 C 
ATOM     25  O   UNL     1       4.749  -1.198  -1.959  0.00  0.00    -0.275 OA
ATOM     26  H   UNL     1       5.500  -2.510   0.730  0.00  0.00    +0.149 HD
BRANCH  23  27
ATOM     27  C   UNL     1       5.417  -0.398   0.529  0.00  0.00    +0.114 C 
BRANCH  27  31
ATOM     28  C   UNL     1       4.653  -0.166   4.725  0.00  0.00    +0.000 A 
ATOM     29  C   UNL     1       4.136   0.793   3.875  0.00  0.00    +0.000 A 
ATOM     30  C   UNL     1       4.384   0.718   2.517  0.00  0.00    +0.005 A 
ATOM     31  C   UNL     1       5.148  -0.316   2.009  0.00  0.00    -0.027 A 
ATOM     32  C   UNL     1       5.665  -1.274   2.860  0.00  0.00    +0.005 A 
ATOM     33  C   UNL     1       5.417  -1.200   4.218  0.00  0.00    +0.000 A 
ENDBRANCH  27  31
BRANCH  27  34
ATOM     34  C   UNL     1       6.814   0.150   0.233  0.00  0.00    +0.152 C 
BRANCH  34  35
ATOM     35  C   UNL     1       6.847   1.628   0.525  0.00  0.00    +0.358 C 
ATOM     36  O   UNL     1       5.817   2.217   0.805  0.00  0.00    -0.246 OA
ATOM     37  O   UNL     1       7.904   2.234   0.482  0.00  0.00    -0.246 OA
ENDBRANCH  34  35
ENDBRANCH  27  34
ENDBRANCH  23  27
ENDBRANCH   1  24
TORSDOF 6
