REMARK  Name = ZINC44930186
REMARK  7 active torsions:
REMARK  status: ('A' for Active; 'I' for Inactive)
REMARK    1  A    between atoms: C_1  and  C_2
REMARK    2  A    between atoms: C_2  and  N_9
REMARK    3  A    between atoms: N_9  and  C_10
REMARK    4  A    between atoms: C_10  and  C_11
REMARK    5  A    between atoms: C_11  and  C_13
REMARK    6  A    between atoms: C_11  and  O_19
REMARK    7  A    between atoms: C_13  and  N_14
REMARK                            x       y       z     vdW  Elec       q    Type
REMARK                         _______ _______ _______ _____ _____    ______ ____
ROOT
ATOM      1  N   UNL     1       0.747  -0.457  -1.180  0.00  0.00    +0.385 N 
ATOM      2  H   UNL     1       1.716  -0.185  -1.252  0.00  0.00    -0.085 HD
ATOM      3  H   UNL     1       0.685  -1.458  -1.075  0.00  0.00    -0.085 HD
ENDROOT
BRANCH   1   5
ATOM      4  C   UNL     1      -1.352  -0.135   0.013  0.00  0.00    -0.009 C 
ATOM      5  C   UNL     1       0.141   0.196  -0.012  0.00  0.00    -0.050 C 
ATOM      6  C   UNL     1       0.789  -0.369   1.251  0.00  0.00    +0.011 C 
ATOM      7  C   UNL     1       2.032   0.477   1.644  0.00  0.00    +0.164 C 
ATOM      8  S   UNL     1       1.388   2.166   1.264  0.00  0.00    -0.032 S 
ATOM      9  O   UNL     1       2.457   2.981   0.803  0.00  0.00    -0.174 OA
ATOM     10  O   UNL     1       0.581   2.611   2.345  0.00  0.00    -0.174 OA
ATOM     11  C   UNL     1       0.307   1.722  -0.158  0.00  0.00    +0.153 C 
ENDBRANCH   1   5
BRANCH   1  12
ATOM     12  C   UNL     1       0.032  -0.047  -2.396  0.00  0.00    -0.052 C 
BRANCH  12  13
ATOM     13  C   UNL     1       0.740  -0.624  -3.623  0.00  0.00    +0.081 C 
BRANCH  13  14
ATOM     14  O   UNL     1       2.082  -0.136  -3.673  0.00  0.00    -0.395 OA
ATOM     15  H   UNL     1       2.148   0.827  -3.732  0.00  0.00    +0.210 HD
ENDBRANCH  13  14
BRANCH  13  16
ATOM     16  C   UNL     1      -0.005  -0.198  -4.890  0.00  0.00    -0.049 C 
BRANCH  16  17
ATOM     17  N   UNL     1       0.603  -0.848  -6.058  0.00  0.00    +0.381 N 
ATOM     18  C   UNL     1       0.341  -2.310  -6.024  0.00  0.00    -0.079 C 
ATOM     19  C   UNL     1       0.516  -2.736  -7.504  0.00  0.00    -0.020 C 
ATOM     20  C   UNL     1      -0.087  -1.543  -8.280  0.00  0.00    -0.020 C 
ATOM     21  C   UNL     1      -0.027  -0.355  -7.302  0.00  0.00    -0.079 C 
ATOM     22  H   UNL     1       1.596  -0.672  -6.078  0.00  0.00    -0.082 HD
ENDBRANCH  16  17
ENDBRANCH  13  16
ENDBRANCH  12  13
ENDBRANCH   1  12
TORSDOF 6
