REMARK  Name = ZINC64349068
REMARK  6 active torsions:
REMARK  status: ('A' for Active; 'I' for Inactive)
REMARK    1  A    between atoms: C_8  and  C_12
REMARK    2  A    between atoms: N_14  and  C_15
REMARK    3  A    between atoms: C_15  and  C_17
REMARK    4  A    between atoms: C_15  and  C_27
REMARK    5  A    between atoms: C_17  and  C_18
REMARK    6  A    between atoms: N_29  and  C_30
REMARK                            x       y       z     vdW  Elec       q    Type
REMARK                         _______ _______ _______ _____ _____    ______ ____
ROOT
ATOM      1  C   UNL     1       2.112  -6.675   0.925  0.00  0.00    +0.163 C 
ENDROOT
BRANCH   1   4
ATOM      2  C   UNL     1       3.325  -4.620   1.418  0.00  0.00    +0.231 C 
ATOM      3  O   UNL     1       4.362  -5.242   1.322  0.00  0.00    -0.274 OA
ATOM      4  N   UNL     1       2.148  -5.234   1.188  0.00  0.00    -0.302 N 
ATOM      5  H   UNL     1       1.324  -4.722   1.196  0.00  0.00    +0.150 HD
BRANCH   2  13
ATOM      6  C   UNL     1       3.531   1.446   0.227  0.00  0.00    +0.000 A 
ATOM      7  C   UNL     1       4.083   1.807   1.442  0.00  0.00    +0.000 A 
ATOM      8  C   UNL     1       4.393   0.835   2.371  0.00  0.00    +0.005 A 
ATOM      9  C   UNL     1       4.154  -0.503   2.094  0.00  0.00    -0.030 A 
ATOM     10  C   UNL     1       3.607  -0.863   0.881  0.00  0.00    -0.041 A 
ATOM     11  C   UNL     1       3.293   0.115  -0.052  0.00  0.00    +0.004 A 
ATOM     12  C   UNL     1       3.340  -2.304   0.529  0.00  0.00    +0.063 C 
ATOM     13  C   UNL     1       3.354  -3.161   1.794  0.00  0.00    +0.145 C 
ATOM     14  N   UNL     1       4.583  -2.865   2.547  0.00  0.00    -0.301 NA
ATOM     15  C   UNL     1       4.504  -1.527   3.142  0.00  0.00    +0.117 C 
ATOM     16  H   UNL     1       4.752  -3.565   3.253  0.00  0.00    +0.123 HD
ENDBRANCH   2  13
ENDBRANCH   1   4
BRANCH   1  17
ATOM     17  C   UNL     1       2.010  -7.421   2.231  0.00  0.00    +0.234 C 
ATOM     18  O   UNL     1       1.971  -6.809   3.277  0.00  0.00    -0.274 OA
ATOM     19  N   UNL     1       1.962  -8.768   2.235  0.00  0.00    -0.311 N 
ATOM     20  H   UNL     1       1.993  -9.257   1.398  0.00  0.00    +0.149 HD
BRANCH  19  21
ATOM     21  C   UNL     1       1.863  -9.493   3.504  0.00  0.00    +0.073 C 
ATOM     22  C   UNL     1       3.262  -9.687   4.091  0.00  0.00    +0.022 C 
ATOM     23  C   UNL     1       3.159 -10.444   5.417  0.00  0.00    +0.002 C 
ATOM     24  C   UNL     1       2.513 -11.810   5.175  0.00  0.00    +0.000 C 
ATOM     25  C   UNL     1       1.114 -11.616   4.588  0.00  0.00    +0.002 C 
ATOM     26  C   UNL     1       1.217 -10.858   3.262  0.00  0.00    +0.022 C 
ENDBRANCH  19  21
ENDBRANCH   1  17
BRANCH   1  27
ATOM     27  C   UNL     1       0.898  -7.004   0.053  0.00  0.00    +0.065 C 
BRANCH  27  28
ATOM     28  C   UNL     1       1.069  -6.373  -1.304  0.00  0.00    -0.039 C 
ATOM     29  C   UNL     1       1.582  -6.955  -2.413  0.00  0.00    -0.001 A 
ATOM     30  C   UNL     1       2.115  -8.297  -2.675  0.00  0.00    +0.010 A 
ATOM     31  C   UNL     1       2.568  -8.592  -3.915  0.00  0.00    +0.001 A 
ATOM     32  C   UNL     1       2.542  -7.650  -4.952  0.00  0.00    +0.002 A 
ATOM     33  C   UNL     1       2.067  -6.397  -4.788  0.00  0.00    +0.026 A 
ATOM     34  C   UNL     1       1.565  -5.979  -3.525  0.00  0.00    +0.043 A 
ATOM     35  N   UNL     1       1.061  -4.838  -3.121  0.00  0.00    -0.380 N 
ATOM     36  C   UNL     1       0.696  -4.964  -1.706  0.00  0.00    +0.144 C 
ATOM     37  H   UNL     1       0.946  -4.045  -3.667  0.00  0.00    +0.160 HD
ENDBRANCH  27  28
ENDBRANCH   1  27
TORSDOF 6
