REMARK  Name = ZINC13515971
REMARK  12 active torsions:
REMARK  status: ('A' for Active; 'I' for Inactive)
REMARK    1  A    between atoms: C_1  and  C_2
REMARK    2  A    between atoms: N_9  and  C_10
REMARK    3  A    between atoms: C_14  and  O_16
REMARK    4  A    between atoms: O_16  and  C_17
REMARK    5  A    between atoms: N_18  and  C_39
REMARK    6  A    between atoms: N_21  and  C_24
REMARK    7  A    between atoms: C_24  and  C_25
REMARK    8  A    between atoms: C_25  and  C_27
REMARK    9  A    between atoms: C_25  and  C_28
REMARK   10  A    between atoms: C_28  and  N_29
REMARK   11  A    between atoms: C_31  and  C_38
REMARK   12  A    between atoms: C_34  and  C_37
REMARK                            x       y       z     vdW  Elec       q    Type
REMARK                         _______ _______ _______ _____ _____    ______ ____
ROOT
ATOM      1  C   UNL     1      -0.538   1.444   0.077  0.00  0.00    +0.065 C 
ATOM      2  C   UNL     1      -0.225  -0.030   0.031  0.00  0.00    +0.040 A 
ATOM      3  C   UNL     1      -0.230  -0.795  -1.056  0.00  0.00    +0.116 A 
ATOM      4  N   UNL     1       0.108  -2.084  -0.685  0.00  0.00    -0.277 N 
ATOM      5  C   UNL     1       0.317  -3.377  -1.141  0.00  0.00    +0.157 A 
ATOM      6  C   UNL     1       0.657  -4.137  -0.022  0.00  0.00    +0.170 A 
ATOM      7  N   UNL     1       0.645  -3.324   1.031  0.00  0.00    -0.193 NA
ATOM      8  C   UNL     1       0.320  -2.097   0.652  0.00  0.00    +0.223 A 
ATOM      9  N   UNL     1       0.121  -0.820   1.113  0.00  0.00    -0.283 N 
ATOM     10  N   UNL     1       0.924  -5.487  -0.189  0.00  0.00    -0.279 N 
ATOM     11  C   UNL     1       0.854  -6.042  -1.414  0.00  0.00    +0.333 A 
ATOM     12  O   UNL     1       1.091  -7.227  -1.543  0.00  0.00    -0.246 OA
ATOM     13  N   UNL     1       0.527  -5.317  -2.498  0.00  0.00    -0.259 N 
ATOM     14  C   UNL     1       0.256  -4.000  -2.398  0.00  0.00    +0.283 A 
ATOM     15  O   UNL     1      -0.040  -3.356  -3.390  0.00  0.00    -0.265 OA
ATOM     16  C   UNL     1       1.284  -6.311   0.968  0.00  0.00    +0.155 C 
ENDROOT
BRANCH   9  17
ATOM     17  C   UNL     1       0.244  -0.394   2.441  0.00  0.00    +0.053 A 
ATOM     18  C   UNL     1      -0.642  -0.857   3.405  0.00  0.00    +0.026 A 
ATOM     19  C   UNL     1      -0.521  -0.436   4.715  0.00  0.00    +0.006 A 
ATOM     20  C   UNL     1       0.482   0.446   5.070  0.00  0.00    +0.046 A 
ATOM     21  C   UNL     1       1.370   0.912   4.111  0.00  0.00    +0.122 A 
ATOM     22  C   UNL     1       1.255   0.488   2.796  0.00  0.00    +0.071 A 
BRANCH  21  23
ATOM     23  O   UNL     1       2.356   1.779   4.462  0.00  0.00    -0.495 OA
ATOM     24  C   UNL     1       2.419   2.169   5.835  0.00  0.00    +0.277 C 
ENDBRANCH  21  23
ENDBRANCH   9  17
BRANCH  13  25
ATOM     25  C   UNL     1       0.465  -5.969  -3.808  0.00  0.00    +0.131 C 
BRANCH  25  26
ATOM     26  C   UNL     1      -0.951  -6.500  -4.047  0.00  0.00    -0.011 C 
ATOM     27  C   UNL     1      -1.928  -5.326  -4.132  0.00  0.00    +0.007 C 
BRANCH  26  28
ATOM     28  C   UNL     1      -0.985  -7.288  -5.358  0.00  0.00    -0.074 C 
BRANCH  28  29
ATOM     29  N   UNL     1      -2.311  -7.897  -5.528  0.00  0.00    +0.380 N 
ATOM     30  C   UNL     1      -2.534  -8.885  -4.465  0.00  0.00    -0.076 C 
ATOM     31  C   UNL     1      -3.944  -9.464  -4.590  0.00  0.00    -0.031 C 
ATOM     32  C   UNL     1      -4.094 -10.140  -5.956  0.00  0.00    +0.003 C 
ATOM     33  C   UNL     1      -3.787  -9.119  -7.056  0.00  0.00    -0.031 C 
ATOM     34  C   UNL     1      -2.382  -8.553  -6.840  0.00  0.00    -0.076 C 
ATOM     35  C   UNL     1      -3.858  -9.803  -8.422  0.00  0.00    +0.005 C 
ATOM     36  C   UNL     1      -4.173 -10.494  -3.482  0.00  0.00    +0.005 C 
ATOM     37  H   UNL     1      -3.019  -7.181  -5.472  0.00  0.00    -0.082 HD
ENDBRANCH  28  29
ENDBRANCH  26  28
ENDBRANCH  25  26
ENDBRANCH  13  25
TORSDOF 6
