REMARK  Name = ZINC61602654
REMARK  8 active torsions:
REMARK  status: ('A' for Active; 'I' for Inactive)
REMARK    1  A    between atoms: C_1  and  C_2
REMARK    2  A    between atoms: C_3  and  C_26
REMARK    3  A    between atoms: C_5  and  N_20
REMARK    4  A    between atoms: C_6  and  C_7
REMARK    5  A    between atoms: N_9  and  C_10
REMARK    6  A    between atoms: N_13  and  C_16
REMARK    7  A    between atoms: C_16  and  C_17
REMARK    8  A    between atoms: C_21  and  C_23
REMARK                            x       y       z     vdW  Elec       q    Type
REMARK                         _______ _______ _______ _____ _____    ______ ____
ROOT
ATOM      1  C   UNL     1       0.151  -0.077   2.440  0.00  0.00    +0.247 C 
ATOM      2  O   UNL     1      -0.918   0.215   2.944  0.00  0.00    -0.270 OA
ATOM      3  N   UNL     1       1.300   0.195   3.090  0.00  0.00    -0.309 N 
ATOM      4  H   UNL     1       2.151  -0.038   2.688  0.00  0.00    +0.149 HD
ENDROOT
BRANCH   1  10
ATOM      5  C   UNL     1       0.286   1.548  -0.098  0.00  0.00    +0.045 C 
ATOM      6  C   UNL     1       0.253   0.041  -0.098  0.00  0.00    -0.027 A 
ATOM      7  C   UNL     1       0.288  -0.674  -1.238  0.00  0.00    -0.008 A 
ATOM      8  S   UNL     1       0.226  -2.358  -0.666  0.00  0.00    -0.078 S 
ATOM      9  C   UNL     1       0.158  -2.106   0.991  0.00  0.00    +0.084 A 
ATOM     10  C   UNL     1       0.188  -0.725   1.125  0.00  0.00    +0.068 A 
ATOM     11  C   UNL     1       0.362  -0.170  -2.656  0.00  0.00    +0.052 C 
BRANCH   9  12
ATOM     12  N   UNL     1       0.092  -3.058   1.997  0.00  0.00    -0.279 N 
ATOM     13  C   UNL     1       0.077  -4.369   1.683  0.00  0.00    +0.221 C 
ATOM     14  O   UNL     1       0.122  -4.715   0.521  0.00  0.00    -0.275 OA
ATOM     15  H   UNL     1       0.056  -2.781   2.926  0.00  0.00    +0.155 HD
BRANCH  13  16
ATOM     16  C   UNL     1       0.006  -5.404   2.776  0.00  0.00    +0.075 C 
ATOM     17  C   UNL     1       1.242  -6.277   3.004  0.00  0.00    +0.013 C 
ATOM     18  C   UNL     1      -0.007  -6.875   2.355  0.00  0.00    +0.013 C 
ENDBRANCH  13  16
ENDBRANCH   9  12
ENDBRANCH   1  10
BRANCH   3  19
ATOM     19  C   UNL     1       1.262   0.842   4.404  0.00  0.00    +0.070 C 
ATOM     20  C   UNL     1       1.187   2.361   4.224  0.00  0.00    +0.003 C 
ATOM     21  C   UNL     1       1.228   3.034   5.598  0.00  0.00    -0.077 C 
ATOM     22  N   UNL     1       2.478   2.683   6.282  0.00  0.00    +0.383 N 
ATOM     23  C   UNL     1       2.525   1.235   6.521  0.00  0.00    -0.077 C 
ATOM     24  C   UNL     1       2.533   0.493   5.183  0.00  0.00    +0.003 C 
ATOM     25  H   UNL     1       3.263   2.953   5.707  0.00  0.00    -0.082 HD
BRANCH  22  26
ATOM     26  C   UNL     1       2.549   3.393   7.566  0.00  0.00    -0.006 C 
BRANCH  26  27
ATOM     27  C   UNL     1       2.695   4.894   7.311  0.00  0.00    +0.325 C 
ATOM     28  F   UNL     1       3.781   5.119   6.457  0.00  0.00    -0.211 F 
ATOM     29  F   UNL     1       1.526   5.382   6.717  0.00  0.00    -0.211 F 
ENDBRANCH  26  27
ENDBRANCH  22  26
ENDBRANCH   3  19
TORSDOF 6
