REMARK  Name = ZINC40376401
REMARK  7 active torsions:
REMARK  status: ('A' for Active; 'I' for Inactive)
REMARK    1  A    between atoms: C_1  and  C_2
REMARK    2  A    between atoms: C_2  and  C_3
REMARK    3  A    between atoms: C_8  and  N_9
REMARK    4  A    between atoms: C_10  and  C_12
REMARK    5  A    between atoms: C_12  and  C_13
REMARK    6  A    between atoms: N_23  and  C_24
REMARK    7  A    between atoms: C_29  and  C_30
REMARK                            x       y       z     vdW  Elec       q    Type
REMARK                         _______ _______ _______ _____ _____    ______ ____
ROOT
ATOM      1  C   UNL     1      -3.531  -0.483  -7.010  0.00  0.00    +0.208 C 
ATOM      2  C   UNL     1      -2.708  -0.245  -8.261  0.00  0.00    +0.274 C 
ATOM      3  O   UNL     1      -2.395   0.940  -8.816  0.00  0.00    -0.268 OA
ATOM      4  N   UNL     1      -2.369  -1.430  -8.686  0.00  0.00    -0.176 NA
ATOM      5  C   UNL     1      -2.852  -2.410  -7.892  0.00  0.00    +0.230 C 
ATOM      6  N   UNL     1      -3.547  -1.951  -6.885  0.00  0.00    -0.236 NA
ATOM      7  N   UNL     1      -2.635  -3.757  -8.121  0.00  0.00    -0.295 N 
ATOM      8  C   UNL     1      -1.794  -4.156  -9.135  0.00  0.00    +0.202 C 
ATOM      9  N   UNL     1      -1.252  -3.224  -9.984  0.00  0.00    -0.369 N 
ATOM     10  N   UNL     1      -1.511  -5.428  -9.290  0.00  0.00    -0.215 NA
ATOM     11  H   UNL     1      -3.076  -4.420  -7.568  0.00  0.00    +0.172 HD
ATOM     12  H   UNL     1      -1.377  -2.278  -9.809  0.00  0.00    +0.159 HD
ATOM     13  H   UNL     1      -0.743  -3.510 -10.758  0.00  0.00    +0.159 HD
ENDROOT
BRANCH  10  14
ATOM     14  C   UNL     1      -2.154  -6.370  -8.532  0.00  0.00    +0.070 A 
ATOM     15  C   UNL     1      -3.548  -6.370  -8.447  0.00  0.00    +0.028 A 
ATOM     16  C   UNL     1      -4.189  -7.322  -7.683  0.00  0.00    +0.002 A 
ATOM     17  C   UNL     1      -3.455  -8.275  -7.000  0.00  0.00    +0.000 A 
ATOM     18  C   UNL     1      -2.074  -8.281  -7.080  0.00  0.00    +0.005 A 
ATOM     19  C   UNL     1      -1.419  -7.338  -7.846  0.00  0.00    -0.025 A 
ATOM     20  C   UNL     1       0.085  -7.350  -7.936  0.00  0.00    +0.046 C 
ENDBRANCH  10  14
BRANCH   1  21
ATOM     21  C   UNL     1      -2.859   0.155  -5.792  0.00  0.00    +0.132 C 
BRANCH  21  23
ATOM     22  N   UNL     1      -3.338   0.443  -3.382  0.00  0.00    -0.285 N 
ATOM     23  C   UNL     1      -3.731  -0.040  -4.578  0.00  0.00    +0.220 C 
ATOM     24  O   UNL     1      -4.785  -0.630  -4.677  0.00  0.00    -0.275 OA
ATOM     25  H   UNL     1      -2.528   0.973  -3.315  0.00  0.00    +0.155 HD
BRANCH  22  31
ATOM     26  C   UNL     1      -3.472   0.022  -1.008  0.00  0.00    -0.026 A 
ATOM     27  C   UNL     1      -4.226  -0.233   0.121  0.00  0.00    +0.005 A 
ATOM     28  C   UNL     1      -5.602  -0.337   0.027  0.00  0.00    +0.000 A 
ATOM     29  C   UNL     1      -6.227  -0.187  -1.197  0.00  0.00    +0.002 A 
ATOM     30  C   UNL     1      -5.479   0.069  -2.330  0.00  0.00    +0.023 A 
ATOM     31  C   UNL     1      -4.098   0.179  -2.238  0.00  0.00    +0.037 A 
BRANCH  26  33
ATOM     32  C   UNL     1      -1.583   1.607  -0.750  0.00  0.00    +0.009 C 
ATOM     33  C   UNL     1      -1.973   0.135  -0.904  0.00  0.00    +0.033 C 
ENDBRANCH  26  33
ENDBRANCH  22  31
ENDBRANCH  21  23
ENDBRANCH   1  21
TORSDOF 5
