REMARK  Name = ZINC52853529
REMARK  7 active torsions:
REMARK  status: ('A' for Active; 'I' for Inactive)
REMARK    1  A    between atoms: C_1  and  C_2
REMARK    2  A    between atoms: C_5  and  N_7
REMARK    3  A    between atoms: C_11  and  N_20
REMARK    4  A    between atoms: C_15  and  C_16
REMARK    5  A    between atoms: C_16  and  C_17
REMARK    6  A    between atoms: C_16  and  C_18
REMARK    7  A    between atoms: C_16  and  C_19
REMARK                            x       y       z     vdW  Elec       q    Type
REMARK                         _______ _______ _______ _____ _____    ______ ____
ROOT
ATOM      1  N   UNL     1       1.296   0.141   2.200  0.00  0.00    -0.324 N 
ATOM      2  C   UNL     1       2.356   1.014   2.034  0.00  0.00    +0.069 A 
ATOM      3  C   UNL     1       3.143   1.379   0.951  0.00  0.00    +0.030 A 
ATOM      4  C   UNL     1       4.151   2.304   1.114  0.00  0.00    +0.025 A 
ATOM      5  C   UNL     1       4.386   2.878   2.363  0.00  0.00    +0.027 A 
ATOM      6  C   UNL     1       3.611   2.524   3.451  0.00  0.00    +0.052 A 
ATOM      7  C   UNL     1       2.585   1.587   3.296  0.00  0.00    +0.091 A 
ATOM      8  N   UNL     1       1.676   1.048   4.147  0.00  0.00    -0.232 NA
ATOM      9  C   UNL     1       0.919   0.206   3.505  0.00  0.00    +0.116 A 
ENDROOT
BRANCH   1  13
ATOM     10  C   UNL     1       0.412   1.515  -0.213  0.00  0.00    +0.009 C 
ATOM     11  C   UNL     1       0.215   0.001  -0.117  0.00  0.00    +0.011 C 
ATOM     12  C   UNL     1       1.467  -0.878  -0.144  0.00  0.00    +0.030 C 
ATOM     13  C   UNL     1       0.689  -0.694   1.161  0.00  0.00    +0.092 C 
ENDBRANCH   1  13
BRANCH   9  14
ATOM     14  C   UNL     1      -0.208  -0.584   4.118  0.00  0.00    +0.020 C 
ATOM     15  C   UNL     1       0.137  -2.074   4.084  0.00  0.00    +0.019 C 
ATOM     16  C   UNL     1      -0.411  -0.141   5.568  0.00  0.00    +0.019 C 
ATOM     17  C   UNL     1      -1.493  -0.339   3.325  0.00  0.00    +0.019 C 
ENDBRANCH   9  14
BRANCH   5  18
ATOM     18  N   UNL     1       5.413   3.816   2.515  0.00  0.00    -0.358 N 
ATOM     19  H   UNL     1       5.959   4.066   1.754  0.00  0.00    +0.142 HD
ATOM     20  H   UNL     1       5.579   4.216   3.383  0.00  0.00    +0.142 HD
ENDBRANCH   5  18
TORSDOF 3
