REMARK  Name = ZINC38705935
REMARK  16 active torsions:
REMARK  status: ('A' for Active; 'I' for Inactive)
REMARK    1  A    between atoms: C_1  and  C_2
REMARK    2  A    between atoms: C_2  and  C_3
REMARK    3  A    between atoms: C_3  and  C_4
REMARK    4  A    between atoms: C_4  and  C_5
REMARK    5  A    between atoms: C_5  and  O_6
REMARK    6  A    between atoms: O_6  and  C_7
REMARK    7  A    between atoms: C_10  and  C_16
REMARK    8  A    between atoms: C_12  and  O_13
REMARK    9  A    between atoms: O_13  and  C_14
REMARK   10  A    between atoms: C_14  and  C_15
REMARK   11  A    between atoms: C_19  and  C_34
REMARK   12  A    between atoms: N_26  and  C_27
REMARK   13  A    between atoms: C_27  and  C_28
REMARK   14  A    between atoms: C_35  and  C_42
REMARK   15  A    between atoms: C_37  and  C_41
REMARK   16  A    between atoms: C_39  and  O_40
REMARK                            x       y       z     vdW  Elec       q    Type
REMARK                         _______ _______ _______ _____ _____    ______ ____
ROOT
ATOM      1  C   UNL     1      -7.831  -6.671   0.045  0.00  0.00    +0.141 C 
ATOM      2  C   UNL     1      -8.487  -6.521  -1.300  0.00  0.00    +0.035 A 
ATOM      3  C   UNL     1      -8.425  -6.767  -2.676  0.00  0.00    +0.102 A 
ATOM      4  N   UNL     1      -9.514  -6.258  -3.217  0.00  0.00    -0.173 NA
ATOM      5  N   UNL     1     -10.257  -5.715  -2.320  0.00  0.00    -0.272 N 
ATOM      6  H   UNL     1     -11.107  -5.279  -2.489  0.00  0.00    +0.189 HD
ATOM      7  C   UNL     1      -9.672  -5.843  -1.092  0.00  0.00    +0.126 A 
ATOM      8  C   UNL     1      -9.798  -5.554   0.341  0.00  0.00    +0.266 C 
ATOM      9  O   UNL     1     -10.733  -4.966   0.851  0.00  0.00    -0.268 OA
ATOM     10  N   UNL     1      -8.733  -6.032   1.012  0.00  0.00    -0.283 N 
ENDROOT
BRANCH   3  11
ATOM     11  C   UNL     1      -7.334  -7.472  -3.395  0.00  0.00    +0.047 A 
ATOM     12  C   UNL     1      -6.764  -6.903  -4.531  0.00  0.00    -0.037 A 
ATOM     13  C   UNL     1      -5.750  -7.562  -5.197  0.00  0.00    +0.007 A 
ATOM     14  C   UNL     1      -5.297  -8.786  -4.738  0.00  0.00    -0.047 A 
ATOM     15  C   UNL     1      -5.856  -9.359  -3.612  0.00  0.00    +0.049 A 
ATOM     16  C   UNL     1      -6.871  -8.706  -2.931  0.00  0.00    +0.127 A 
ATOM     17  C   UNL     1      -4.189  -9.498  -5.471  0.00  0.00    +0.044 C 
ATOM     18  C   UNL     1      -7.255  -5.570  -5.035  0.00  0.00    +0.044 C 
BRANCH  16  19
ATOM     19  O   UNL     1      -7.417  -9.265  -1.820  0.00  0.00    -0.506 OA
ATOM     20  H   UNL     1      -8.123  -9.899  -2.005  0.00  0.00    +0.292 HD
ENDBRANCH  16  19
ENDBRANCH   3  11
BRANCH   1  24
ATOM     21  C   UNL     1      -4.034  -4.704   0.056  0.00  0.00    +0.162 A 
ATOM     22  C   UNL     1      -5.201  -3.962  -0.036  0.00  0.00    +0.050 A 
ATOM     23  C   UNL     1      -6.427  -4.601  -0.040  0.00  0.00    +0.009 A 
ATOM     24  C   UNL     1      -6.492  -5.979   0.049  0.00  0.00    -0.019 A 
ATOM     25  C   UNL     1      -5.331  -6.725   0.142  0.00  0.00    +0.055 A 
ATOM     26  C   UNL     1      -4.099  -6.091   0.140  0.00  0.00    +0.162 A 
BRANCH  21  27
ATOM     27  O   UNL     1      -2.827  -4.077   0.060  0.00  0.00    -0.488 OA
BRANCH  27  28
ATOM     28  C   UNL     1      -2.837  -2.650  -0.029  0.00  0.00    +0.229 C 
BRANCH  28  29
ATOM     29  C   UNL     1      -1.399  -2.128  -0.011  0.00  0.00    +0.041 C 
BRANCH  29  30
ATOM     30  C   UNL     1      -1.409  -0.601  -0.106  0.00  0.00    +0.003 C 
BRANCH  30  32
ATOM     31  C   UNL     1       0.019   1.447  -0.182  0.00  0.00    +0.004 C 
ATOM     32  C   UNL     1       0.029  -0.080  -0.088  0.00  0.00    -0.003 C 
ENDBRANCH  30  32
ENDBRANCH  29  30
ENDBRANCH  28  29
ENDBRANCH  27  28
ENDBRANCH  21  27
BRANCH  26  33
ATOM     33  O   UNL     1      -2.956  -6.823   0.225  0.00  0.00    -0.489 OA
BRANCH  33  34
ATOM     34  C   UNL     1      -3.099  -8.242   0.308  0.00  0.00    +0.226 C 
ATOM     35  C   UNL     1      -1.716  -8.890   0.396  0.00  0.00    +0.048 C 
ENDBRANCH  33  34
ENDBRANCH  26  33
ENDBRANCH   1  24
BRANCH  10  36
ATOM     36  C   UNL     1      -8.511  -5.931   2.456  0.00  0.00    +0.140 C 
BRANCH  36  37
ATOM     37  C   UNL     1      -7.750  -4.640   2.767  0.00  0.00    +0.136 C 
ATOM     38  C   UNL     1      -7.405  -4.584   4.270  0.00  0.00    +0.035 C 
ATOM     39  C   UNL     1      -7.633  -3.085   4.605  0.00  0.00    +0.031 C 
ATOM     40  C   UNL     1      -8.818  -2.751   3.665  0.00  0.00    +0.160 C 
ATOM     41  O   UNL     1      -8.573  -3.507   2.466  0.00  0.00    -0.375 OA
ENDBRANCH  36  37
ENDBRANCH  10  36
TORSDOF 12
