REMARK  Name = ZINC13309321
REMARK  5 active torsions:
REMARK  status: ('A' for Active; 'I' for Inactive)
REMARK    1  A    between atoms: C_1  and  C_2
REMARK    2  A    between atoms: C_7  and  O_27
REMARK    3  A    between atoms: C_9  and  O_26
REMARK    4  A    between atoms: C_17  and  O_25
REMARK    5  A    between atoms: C_19  and  O_24
REMARK                            x       y       z     vdW  Elec       q    Type
REMARK                         _______ _______ _______ _____ _____    ______ ____
ROOT
ATOM      1  C   UNL     1      -0.013   1.086   0.008  0.00  0.00    +0.052 C 
ATOM      2  C   UNL     1      -0.729   1.579   1.267  0.00  0.00    +0.177 C 
ATOM      3  C   UNL     1      -0.749   3.109   1.276  0.00  0.00    +0.071 C 
ATOM      4  C   UNL     1      -2.022   3.595   1.921  0.00  0.00    -0.025 C 
ATOM      5  C   UNL     1      -2.080   4.798   2.441  0.00  0.00    +0.002 C 
ATOM      6  C   UNL     1      -3.356   5.284   3.079  0.00  0.00    +0.166 C 
ATOM      7  C   UNL     1      -3.049   5.811   4.484  0.00  0.00    +0.147 C 
ATOM      8  C   UNL     1      -3.363   4.720   5.512  0.00  0.00    +0.038 C 
ATOM      9  C   UNL     1      -2.335   4.786   6.643  0.00  0.00    +0.030 C 
ATOM     10  C   UNL     1      -1.522   3.518   6.662  0.00  0.00    -0.026 C 
ATOM     11  C   UNL     1      -0.402   3.448   5.944  0.00  0.00    +0.005 C 
ATOM     12  C   UNL     1       0.383   2.203   5.965  0.00  0.00    -0.004 A 
ATOM     13  C   UNL     1       0.996   1.793   7.148  0.00  0.00    +0.054 A 
ATOM     14  C   UNL     1       1.765   0.640   7.171  0.00  0.00    +0.121 A 
ATOM     15  C   UNL     1       1.936  -0.115   6.017  0.00  0.00    +0.091 A 
ATOM     16  C   UNL     1       1.332   0.271   4.834  0.00  0.00    +0.135 A 
ATOM     17  C   UNL     1       0.545   1.430   4.796  0.00  0.00    +0.108 A 
ATOM     18  C   UNL     1      -0.112   1.849   3.554  0.00  0.00    +0.344 C 
ATOM     19  O   UNL     1      -0.741   2.889   3.530  0.00  0.00    -0.245 OA
ATOM     20  O   UNL     1      -0.026   1.098   2.444  0.00  0.00    -0.458 OA
ENDROOT
BRANCH  16  21
ATOM     21  O   UNL     1       1.501  -0.472   3.712  0.00  0.00    -0.506 OA
ATOM     22  H   UNL     1       2.264  -0.210   3.178  0.00  0.00    +0.292 HD
ENDBRANCH  16  21
BRANCH  14  23
ATOM     23  O   UNL     1       2.355   0.245   8.328  0.00  0.00    -0.507 OA
ATOM     24  H   UNL     1       3.243   0.605   8.459  0.00  0.00    +0.292 HD
ENDBRANCH  14  23
BRANCH   7  25
ATOM     25  O   UNL     1      -1.667   6.164   4.570  0.00  0.00    -0.389 OA
ATOM     26  H   UNL     1      -1.397   6.852   3.946  0.00  0.00    +0.210 HD
ENDBRANCH   7  25
BRANCH   6  27
ATOM     27  O   UNL     1      -3.916   6.334   2.288  0.00  0.00    -0.385 OA
ATOM     28  H   UNL     1      -4.136   6.071   1.384  0.00  0.00    +0.210 HD
ENDBRANCH   6  27
TORSDOF 4
