REMARK  Name = ZINC60397827
REMARK  5 active torsions:
REMARK  status: ('A' for Active; 'I' for Inactive)
REMARK    1  A    between atoms: C_1  and  S_2
REMARK    2  A    between atoms: S_2  and  N_5
REMARK    3  A    between atoms: C_10  and  C_11
REMARK    4  A    between atoms: N_17  and  C_20
REMARK    5  A    between atoms: C_20  and  C_21
REMARK                            x       y       z     vdW  Elec       q    Type
REMARK                         _______ _______ _______ _____ _____    ______ ____
ROOT
ATOM      1  C   UNL     1       2.584   0.035  -0.616  0.00  0.00    +0.234 C 
ATOM      2  O   UNL     1       1.861   0.302   0.321  0.00  0.00    -0.274 OA
ATOM      3  N   UNL     1       3.921   0.130  -0.483  0.00  0.00    -0.302 N 
ATOM      4  C   UNL     1       4.771  -0.076  -1.673  0.00  0.00    +0.106 C 
ATOM      5  C   UNL     1       5.922   0.945  -1.715  0.00  0.00    +0.000 C 
ATOM      6  C   UNL     1       5.412   2.298  -1.270  0.00  0.00    -0.077 C 
ATOM      7  N   UNL     1       5.646   2.453   0.164  0.00  0.00    +0.381 N 
ATOM      8  C   UNL     1       4.613   1.960   0.993  0.00  0.00    -0.060 C 
ATOM      9  C   UNL     1       4.474   0.435   0.820  0.00  0.00    +0.089 C 
ATOM     10  H   UNL     1       6.501   1.973   0.401  0.00  0.00    -0.082 HD
ENDROOT
BRANCH   1  16
ATOM     11  N   UNL     1       1.081  -1.536  -1.704  0.00  0.00    -0.170 NA
ATOM     12  C   UNL     1       0.269  -2.026  -2.827  0.00  0.00    +0.110 C 
ATOM     13  C   UNL     1      -0.508  -0.849  -3.424  0.00  0.00    +0.017 C 
ATOM     14  C   UNL     1       0.471   0.268  -3.795  0.00  0.00    +0.003 C 
ATOM     15  C   UNL     1       1.193   0.754  -2.537  0.00  0.00    +0.030 C 
ATOM     16  C   UNL     1       1.985  -0.401  -1.929  0.00  0.00    +0.165 C 
BRANCH  11  18
ATOM     17  C   UNL     1      -0.289  -1.286   0.671  0.00  0.00    +0.215 C 
ATOM     18  S   UNL     1       0.972  -2.247  -0.212  0.00  0.00    +0.030 S 
ATOM     19  O   UNL     1       2.247  -2.042   0.381  0.00  0.00    -0.158 OA
ATOM     20  O   UNL     1       0.495  -3.560  -0.470  0.00  0.00    -0.158 OA
ENDBRANCH  11  18
ENDBRANCH   1  16
BRANCH   7  21
ATOM     21  C   UNL     1       5.828   3.882   0.452  0.00  0.00    -0.075 C 
BRANCH  21  22
ATOM     22  C   UNL     1       7.118   4.374  -0.208  0.00  0.00    -0.028 C 
ATOM     23  C   UNL     1       8.311   3.613   0.374  0.00  0.00    +0.002 C 
ATOM     24  C   UNL     1       9.601   4.105  -0.286  0.00  0.00    +0.000 C 
ATOM     25  C   UNL     1       9.771   5.602  -0.019  0.00  0.00    +0.000 C 
ATOM     26  C   UNL     1       8.579   6.363  -0.601  0.00  0.00    +0.000 C 
ATOM     27  C   UNL     1       7.289   5.871   0.059  0.00  0.00    +0.002 C 
ENDBRANCH  21  22
ENDBRANCH   7  21
TORSDOF 4
