REMARK  Name = ZINC38669072
REMARK  8 active torsions:
REMARK  status: ('A' for Active; 'I' for Inactive)
REMARK    1  A    between atoms: C_5  and  O_7
REMARK    2  A    between atoms: O_7  and  C_8
REMARK    3  A    between atoms: C_12  and  C_14
REMARK    4  A    between atoms: C_17  and  O_21
REMARK    5  A    between atoms: C_19  and  O_20
REMARK    6  A    between atoms: O_21  and  C_22
REMARK    7  A    between atoms: C_22  and  C_23
REMARK    8  A    between atoms: C_26  and  N_29
REMARK                            x       y       z     vdW  Elec       q    Type
REMARK                         _______ _______ _______ _____ _____    ______ ____
ROOT
ATOM      1  C   UNL     1       0.628  -4.896  -1.246  0.00  0.00    +0.025 A 
ATOM      2  C   UNL     1      -0.111  -5.178  -2.379  0.00  0.00    +0.013 A 
ATOM      3  C   UNL     1       0.500  -5.740  -3.483  0.00  0.00    +0.046 A 
ATOM      4  C   UNL     1       1.859  -6.023  -3.457  0.00  0.00    +0.124 A 
ATOM      5  C   UNL     1       2.603  -5.741  -2.321  0.00  0.00    +0.091 A 
ATOM      6  C   UNL     1       1.988  -5.172  -1.217  0.00  0.00    +0.126 A 
ENDROOT
BRANCH   1  11
ATOM      7  C   UNL     1       0.101  -2.771  -0.060  0.00  0.00    +0.153 C 
ATOM      8  C   UNL     1      -1.173  -2.332  -0.129  0.00  0.00    +0.176 C 
ATOM      9  N   UNL     1      -2.027  -3.361  -0.148  0.00  0.00    -0.182 NA
ATOM     10  N   UNL     1      -1.501  -4.475  -0.101  0.00  0.00    -0.294 N 
ATOM     11  C   UNL     1      -0.041  -4.283  -0.043  0.00  0.00    +0.199 C 
ATOM     12  H   UNL     1      -1.965  -5.327  -0.105  0.00  0.00    +0.184 HD
BRANCH   7  13
ATOM     13  O   UNL     1       1.235  -2.039  -0.022  0.00  0.00    -0.455 OA
BRANCH  13  18
ATOM     14  C   UNL     1       2.266  -2.783   3.387  0.00  0.00    +0.004 A 
ATOM     15  C   UNL     1       3.490  -2.141   3.432  0.00  0.00    +0.001 A 
ATOM     16  C   UNL     1       3.960  -1.466   2.321  0.00  0.00    +0.019 A 
ATOM     17  C   UNL     1       3.207  -1.430   1.162  0.00  0.00    +0.060 A 
ATOM     18  C   UNL     1       1.978  -2.073   1.115  0.00  0.00    +0.142 A 
ATOM     19  C   UNL     1       1.509  -2.751   2.232  0.00  0.00    +0.047 A 
ATOM     20 BR   UNL     1       3.850  -0.504  -0.356  0.00  0.00    -0.046 Br
ENDBRANCH  13  18
ENDBRANCH   7  13
ENDBRANCH   1  11
BRANCH   6  21
ATOM     21  O   UNL     1       2.716  -4.889  -0.104  0.00  0.00    -0.506 OA
ATOM     22  H   UNL     1       2.756  -5.614   0.534  0.00  0.00    +0.292 HD
ENDBRANCH   6  21
BRANCH   4  23
ATOM     23  O   UNL     1       2.460  -6.576  -4.543  0.00  0.00    -0.487 OA
BRANCH  23  24
ATOM     24  C   UNL     1       1.632  -6.840  -5.678  0.00  0.00    +0.264 C 
BRANCH  24  25
ATOM     25  C   UNL     1       2.465  -7.448  -6.777  0.00  0.00    -0.010 A 
ATOM     26  C   UNL     1       3.088  -6.633  -7.704  0.00  0.00    +0.009 A 
ATOM     27  C   UNL     1       3.852  -7.191  -8.711  0.00  0.00    +0.033 A 
ATOM     28  C   UNL     1       3.994  -8.564  -8.792  0.00  0.00    +0.126 A 
ATOM     29  C   UNL     1       3.372  -9.379  -7.864  0.00  0.00    +0.033 A 
ATOM     30  C   UNL     1       2.611  -8.821  -6.854  0.00  0.00    +0.009 A 
BRANCH  28  31
ATOM     31  N   UNL     1       4.811  -9.161  -9.872  0.00  0.00    +0.056 N 
ATOM     32  O   UNL     1       5.355  -8.449 -10.683  0.00  0.00    -0.126 OA
ATOM     33  O   UNL     1       4.935 -10.362  -9.942  0.00  0.00    -0.126 OA
ENDBRANCH  28  31
ENDBRANCH  24  25
ENDBRANCH  23  24
ENDBRANCH   4  23
TORSDOF 8
