REMARK  Name = ZINC09671661
REMARK  7 active torsions:
REMARK  status: ('A' for Active; 'I' for Inactive)
REMARK    1  A    between atoms: C_1  and  C_2
REMARK    2  A    between atoms: C_5  and  C_17
REMARK    3  A    between atoms: N_8  and  C_10
REMARK    4  A    between atoms: N_19  and  C_20
REMARK    5  A    between atoms: C_20  and  C_21
REMARK    6  A    between atoms: C_21  and  C_23
REMARK    7  A    between atoms: C_21  and  N_54
REMARK                            x       y       z     vdW  Elec       q    Type
REMARK                         _______ _______ _______ _____ _____    ______ ____
ROOT
ATOM      1  C   UNL     1       1.465  -2.078  -0.026  0.00  0.00    +0.251 C 
ATOM      2  O   UNL     1       0.522  -2.838  -0.147  0.00  0.00    -0.270 OA
ATOM      3  N   UNL     1       2.723  -2.562  -0.004  0.00  0.00    -0.312 N 
ATOM      4  H   UNL     1       3.474  -1.956   0.092  0.00  0.00    +0.149 HD
ENDROOT
BRANCH   1   9
ATOM      5  C   UNL     1      -2.391   2.382   0.194  0.00  0.00    +0.068 C 
ATOM      6  C   UNL     1      -0.892   2.519   0.278  0.00  0.00    +0.069 A 
ATOM      7  C   UNL     1       0.046   1.437   0.223  0.00  0.00    +0.031 A 
ATOM      8  C   UNL     1       0.049   0.040   0.094  0.00  0.00    +0.032 A 
ATOM      9  C   UNL     1       1.233  -0.635   0.095  0.00  0.00    +0.076 A 
ATOM     10  S   UNL     1       2.430   0.675   0.279  0.00  0.00    -0.064 S 
ATOM     11  C   UNL     1       1.305   2.044   0.346  0.00  0.00    +0.113 A 
ATOM     12  N   UNL     1       1.131   3.377   0.460  0.00  0.00    -0.225 N 
ATOM     13  N   UNL     1      -0.245   3.638   0.412  0.00  0.00    -0.170 NA
BRANCH  12  14
ATOM     14  C   UNL     1       2.147   4.332   0.603  0.00  0.00    +0.067 A 
ATOM     15  C   UNL     1       3.288   4.029   1.334  0.00  0.00    +0.030 A 
ATOM     16  C   UNL     1       4.289   4.970   1.471  0.00  0.00    +0.040 A 
ATOM     17  C   UNL     1       4.152   6.218   0.887  0.00  0.00    +0.124 A 
ATOM     18  C   UNL     1       3.013   6.524   0.162  0.00  0.00    +0.040 A 
ATOM     19  C   UNL     1       2.011   5.584   0.019  0.00  0.00    +0.030 A 
ATOM     20  F   UNL     1       5.131   7.139   1.026  0.00  0.00    -0.205 F 
ENDBRANCH  12  14
ENDBRANCH   1   9
BRANCH   3  21
ATOM     21  C   UNL     1       2.955  -4.004  -0.125  0.00  0.00    +0.097 C 
BRANCH  21  22
ATOM     22  C   UNL     1       4.459  -4.274  -0.190  0.00  0.00    +0.016 C 
BRANCH  22  27
ATOM     23  C   UNL     1       4.064  -6.127  -1.719  0.00  0.00    -0.078 C 
ATOM     24  C   UNL     1       4.823  -7.432  -2.070  0.00  0.00    -0.020 C 
ATOM     25  C   UNL     1       6.269  -7.123  -1.617  0.00  0.00    -0.020 C 
ATOM     26  C   UNL     1       6.133  -5.991  -0.583  0.00  0.00    -0.078 C 
ATOM     27  N   UNL     1       4.700  -5.725  -0.455  0.00  0.00    +0.387 N 
ATOM     28  H   UNL     1       4.312  -6.277   0.319  0.00  0.00    -0.081 HD
ENDBRANCH  22  27
BRANCH  22  29
ATOM     29  C   UNL     1       5.096  -3.885   1.119  0.00  0.00    +0.093 A 
ATOM     30  C   UNL     1       5.761  -2.741   1.361  0.00  0.00    +0.043 A 
ATOM     31  C   UNL     1       6.187  -2.791   2.708  0.00  0.00    +0.041 A 
ATOM     32  C   UNL     1       5.757  -3.963   3.209  0.00  0.00    +0.195 A 
ATOM     33  O   UNL     1       5.092  -4.619   2.244  0.00  0.00    -0.469 OA
ENDBRANCH  22  29
ENDBRANCH  21  22
ENDBRANCH   3  21
TORSDOF 6
