REMARK  Name = ZINC05030674
REMARK  6 active torsions:
REMARK  status: ('A' for Active; 'I' for Inactive)
REMARK    1  A    between atoms: C_1  and  C_2
REMARK    2  A    between atoms: C_2  and  C_3
REMARK    3  A    between atoms: C_3  and  C_4
REMARK    4  A    between atoms: C_4  and  N_5
REMARK    5  A    between atoms: N_20  and  C_23
REMARK    6  A    between atoms: C_23  and  C_24
REMARK                            x       y       z     vdW  Elec       q    Type
REMARK                         _______ _______ _______ _____ _____    ______ ____
ROOT
ATOM      1  N   UNL     1       0.738  -1.962  -1.265  0.00  0.00    -0.308 N 
ATOM      2  C   UNL     1       1.733  -2.732  -0.720  0.00  0.00    +0.151 A 
ATOM      3  C   UNL     1       1.414  -4.081  -0.912  0.00  0.00    +0.111 A 
ATOM      4  C   UNL     1       0.136  -4.115  -1.634  0.00  0.00    +0.123 A 
ATOM      5  C   UNL     1      -0.239  -2.758  -1.828  0.00  0.00    +0.162 A 
ATOM      6  N   UNL     1      -1.362  -2.469  -2.457  0.00  0.00    -0.226 NA
ATOM      7  C   UNL     1      -2.144  -3.454  -2.913  0.00  0.00    +0.092 A 
ATOM      8  C   UNL     1      -3.345  -3.166  -3.587  0.00  0.00    +0.030 A 
ATOM      9  C   UNL     1      -4.125  -4.184  -4.041  0.00  0.00    +0.002 A 
ATOM     10  C   UNL     1      -3.755  -5.514  -3.850  0.00  0.00    +0.002 A 
ATOM     11  C   UNL     1      -2.601  -5.832  -3.203  0.00  0.00    +0.030 A 
ATOM     12  C   UNL     1      -1.767  -4.807  -2.719  0.00  0.00    +0.090 A 
ATOM     13  N   UNL     1      -0.629  -5.095  -2.080  0.00  0.00    -0.241 NA
ATOM     14  C   UNL     1       2.296  -5.070  -0.426  0.00  0.00    +0.266 A 
ATOM     15  O   UNL     1       2.053  -6.255  -0.579  0.00  0.00    -0.267 OA
ATOM     16  N   UNL     1       3.417  -4.667   0.213  0.00  0.00    -0.294 N 
ATOM     17  C   UNL     1       3.670  -3.346   0.375  0.00  0.00    +0.204 A 
ATOM     18  N   UNL     1       2.865  -2.421  -0.068  0.00  0.00    -0.219 NA
ENDROOT
BRANCH   1  19
ATOM     19  C   UNL     1       0.718  -0.497  -1.257  0.00  0.00    +0.125 C 
BRANCH  19  20
ATOM     20  C   UNL     1       0.002  -0.004   0.002  0.00  0.00    +0.021 C 
BRANCH  20  22
ATOM     21  C   UNL     1      -0.735   2.019   1.269  0.00  0.00    +0.004 C 
ATOM     22  C   UNL     1      -0.019   1.526   0.010  0.00  0.00    -0.002 C 
ENDBRANCH  20  22
ENDBRANCH  19  20
ENDBRANCH   1  19
BRANCH  16  23
ATOM     23  C   UNL     1       4.360  -5.661   0.733  0.00  0.00    +0.168 C 
BRANCH  23  24
ATOM     24  C   UNL     1       5.382  -5.985  -0.326  0.00  0.00    +0.010 A 
ATOM     25  C   UNL     1       6.576  -5.392  -0.569  0.00  0.00    +0.013 A 
ATOM     26  C   UNL     1       7.361  -5.865  -1.605  0.00  0.00    +0.008 A 
ATOM     27  C   UNL     1       6.908  -6.901  -2.352  0.00  0.00    +0.045 A 
ATOM     28  S   UNL     1       5.331  -7.245  -1.590  0.00  0.00    -0.100 S 
ENDBRANCH  23  24
ENDBRANCH  16  23
TORSDOF 5
