REMARK  Name = ZINC16099765
REMARK  5 active torsions:
REMARK  status: ('A' for Active; 'I' for Inactive)
REMARK    1  A    between atoms: C_3  and  C_10
REMARK    2  A    between atoms: C_5  and  N_7
REMARK    3  A    between atoms: N_12  and  N_13
REMARK    4  A    between atoms: N_13  and  S_14
REMARK    5  A    between atoms: S_14  and  C_17
REMARK                            x       y       z     vdW  Elec       q    Type
REMARK                         _______ _______ _______ _____ _____    ______ ____
ROOT
ATOM      1  C   UNL     1      -4.981   1.160   0.032  0.00  0.00    +0.259 C 
ATOM      2  O   UNL     1      -4.969  -0.055   0.024  0.00  0.00    -0.269 OA
ATOM      3  N   UNL     1      -6.154   1.823   0.041  0.00  0.00    -0.228 N 
ATOM      4  H   UNL     1      -6.164   2.793   0.046  0.00  0.00    +0.171 HD
ENDROOT
BRANCH   1   7
ATOM      5  C   UNL     1      -2.526   4.003   0.036  0.00  0.00    +0.003 A 
ATOM      6  C   UNL     1      -3.718   3.308   0.038  0.00  0.00    +0.013 A 
ATOM      7  C   UNL     1      -3.708   1.912   0.030  0.00  0.00    +0.040 A 
ATOM      8  C   UNL     1      -2.490   1.229   0.021  0.00  0.00    +0.045 A 
ATOM      9  C   UNL     1      -1.306   1.936   0.019  0.00  0.00    +0.127 A 
ATOM     10  C   UNL     1      -1.323   3.320   0.032  0.00  0.00    +0.033 A 
BRANCH   9  11
ATOM     11  N   UNL     1      -0.014   1.214   0.009  0.00  0.00    +0.056 N 
ATOM     12  O   UNL     1       0.002  -0.004   0.002  0.00  0.00    -0.126 OA
ATOM     13  O   UNL     1       1.032   1.837   0.002  0.00  0.00    -0.126 OA
ENDBRANCH   9  11
ENDBRANCH   1   7
BRANCH   3  14
ATOM     14  N   UNL     1      -7.361   1.111   0.042  0.00  0.00    -0.108 NA
ATOM     15  H   UNL     1      -7.537   0.453  -0.649  0.00  0.00    +0.172 HD
BRANCH  14  16
ATOM     16  S   UNL     1      -8.487   1.391   1.224  0.00  0.00    +0.074 S 
ATOM     17  O   UNL     1      -9.639   0.636   0.875  0.00  0.00    -0.152 OA
ATOM     18  O   UNL     1      -7.819   1.230   2.467  0.00  0.00    -0.152 OA
BRANCH  16  19
ATOM     19  C   UNL     1      -8.945   3.089   1.114  0.00  0.00    +0.112 A 
ATOM     20  C   UNL     1      -8.254   4.039   1.841  0.00  0.00    +0.067 A 
ATOM     21  C   UNL     1      -8.610   5.375   1.751  0.00  0.00    +0.128 A 
ATOM     22  C   UNL     1      -9.666   5.756   0.941  0.00  0.00    +0.076 A 
ATOM     23  C   UNL     1     -10.361   4.802   0.218  0.00  0.00    +0.128 A 
ATOM     24  C   UNL     1     -10.000   3.468   0.305  0.00  0.00    +0.067 A 
ATOM     25  F   UNL     1     -11.392   5.173  -0.573  0.00  0.00    -0.205 F 
ATOM     26  F   UNL     1      -7.930   6.304   2.457  0.00  0.00    -0.205 F 
ENDBRANCH  16  19
ENDBRANCH  14  16
ENDBRANCH   3  14
TORSDOF 5
