REMARK  Name = ZINC25386081
REMARK  9 active torsions:
REMARK  status: ('A' for Active; 'I' for Inactive)
REMARK    1  A    between atoms: C_1  and  C_2
REMARK    2  A    between atoms: C_2  and  C_3
REMARK    3  A    between atoms: C_3  and  C_4
REMARK    4  A    between atoms: C_4  and  C_6
REMARK    5  A    between atoms: C_4  and  N_19
REMARK    6  A    between atoms: N_8  and  N_9
REMARK    7  A    between atoms: C_10  and  C_12
REMARK    8  A    between atoms: N_22  and  C_23
REMARK    9  A    between atoms: C_23  and  C_24
REMARK                            x       y       z     vdW  Elec       q    Type
REMARK                         _______ _______ _______ _____ _____    ______ ____
ROOT
ATOM      1  C   UNL     1      -0.729   1.579   1.267  0.00  0.00    +0.162 C 
ENDROOT
BRANCH   1   2
ATOM      2  N   UNL     1      -0.645   3.040   1.336  0.00  0.00    -0.288 N 
ATOM      3  C   UNL     1      -1.547   3.799   0.682  0.00  0.00    +0.300 C 
ATOM      4  O   UNL     1      -2.430   3.270   0.035  0.00  0.00    -0.253 OA
ATOM      5  N   UNL     1      -1.469   5.143   0.745  0.00  0.00    -0.295 N 
ATOM      6  H   UNL     1       0.155   3.518   1.921  0.00  0.00    +0.151 HD
ATOM      7  H   UNL     1      -0.670   5.621   1.330  0.00  0.00    +0.151 HD
BRANCH   5   8
ATOM      8  C   UNL     1      -2.450   5.967   0.034  0.00  0.00    +0.141 C 
BRANCH   8   9
ATOM      9  C   UNL     1      -2.143   7.424   0.265  0.00  0.00    -0.030 A 
ATOM     10  C   UNL     1      -2.712   8.089   1.335  0.00  0.00    +0.008 A 
ATOM     11  C   UNL     1      -2.427   9.424   1.551  0.00  0.00    +0.038 A 
ATOM     12  C   UNL     1      -1.580  10.099   0.689  0.00  0.00    +0.123 A 
ATOM     13  C   UNL     1      -1.014   9.433  -0.385  0.00  0.00    +0.038 A 
ATOM     14  C   UNL     1      -1.296   8.097  -0.596  0.00  0.00    +0.008 A 
ATOM     15  F   UNL     1      -1.305  11.405   0.896  0.00  0.00    -0.205 F 
ENDBRANCH   8   9
ENDBRANCH   5   8
ENDBRANCH   1   2
BRANCH   1  16
ATOM     16  C   UNL     1      -0.074   0.981   2.485  0.00  0.00    +0.249 C 
ATOM     17  O   UNL     1       0.415   1.703   3.327  0.00  0.00    -0.272 OA
ATOM     18  N   UNL     1      -0.031  -0.358   2.638  0.00  0.00    -0.233 N 
ATOM     19  H   UNL     1      -0.475  -1.013   1.874  0.00  0.00    +0.173 HD
BRANCH  18  20
ATOM     20  N   UNL     1       0.578  -0.915   3.770  0.00  0.00    -0.230 N 
ATOM     21  C   UNL     1       0.620  -2.253   3.923  0.00  0.00    +0.260 C 
ATOM     22  O   UNL     1       0.130  -2.977   3.079  0.00  0.00    -0.269 OA
ATOM     23  H   UNL     1       1.021  -0.259   4.534  0.00  0.00    +0.173 HD
BRANCH  21  24
ATOM     24  C   UNL     1       1.263  -2.840   5.118  0.00  0.00    +0.038 A 
ATOM     25  C   UNL     1       1.831  -2.011   6.086  0.00  0.00    +0.014 A 
ATOM     26  C   UNL     1       2.425  -2.565   7.201  0.00  0.00    +0.016 A 
ATOM     27  C   UNL     1       2.467  -3.941   7.356  0.00  0.00    +0.018 A 
ATOM     28  C   UNL     1       1.909  -4.768   6.395  0.00  0.00    +0.016 A 
ATOM     29  C   UNL     1       1.308  -4.226   5.279  0.00  0.00    +0.014 A 
ATOM     30 BR   UNL     1       3.288  -4.692   8.884  0.00  0.00    -0.050 Br
ENDBRANCH  21  24
ENDBRANCH  18  20
ENDBRANCH   1  16
BRANCH   1  31
ATOM     31  C   UNL     1      -0.013   1.086   0.008  0.00  0.00    +0.031 C 
BRANCH  31  33
ATOM     32  C   UNL     1      -0.037   1.099  -2.490  0.00  0.00    +0.004 C 
ATOM     33  C   UNL     1      -0.753   1.593  -1.232  0.00  0.00    -0.001 C 
ENDBRANCH  31  33
ENDBRANCH   1  31
TORSDOF 8
