REMARK  Name = ZINC20243736
REMARK  10 active torsions:
REMARK  status: ('A' for Active; 'I' for Inactive)
REMARK    1  A    between atoms: C_1  and  C_2
REMARK    2  A    between atoms: C_6  and  N_8
REMARK    3  A    between atoms: C_9  and  C_30
REMARK    4  A    between atoms: C_10  and  C_15
REMARK    5  A    between atoms: C_12  and  C_13
REMARK    6  A    between atoms: N_16  and  N_17
REMARK    7  A    between atoms: C_18  and  C_20
REMARK    8  A    between atoms: C_20  and  C_22
REMARK    9  A    between atoms: C_20  and  S_23
REMARK   10  A    between atoms: S_23  and  C_24
REMARK                            x       y       z     vdW  Elec       q    Type
REMARK                         _______ _______ _______ _____ _____    ______ ____
ROOT
ATOM      1  N   UNL     1       0.053  -2.619   2.502  0.00  0.00    -0.316 N 
ATOM      2  C   UNL     1      -0.933  -3.462   2.912  0.00  0.00    +0.031 A 
ATOM      3  C   UNL     1      -0.568  -3.994   4.115  0.00  0.00    +0.030 A 
ATOM      4  C   UNL     1       0.741  -3.417   4.441  0.00  0.00    +0.048 A 
ATOM      5  C   UNL     1       1.063  -2.598   3.422  0.00  0.00    +0.036 A 
ATOM      6  C   UNL     1       2.330  -1.788   3.316  0.00  0.00    +0.065 C 
ATOM      7 BR   UNL     1       1.776  -3.761   5.985  0.00  0.00    -0.048 Br
ATOM      8  C   UNL     1      -2.208  -3.757   2.166  0.00  0.00    +0.064 C 
ENDROOT
BRANCH   1  14
ATOM      9  C   UNL     1      -0.061   1.730   0.208  0.00  0.00    +0.044 C 
ATOM     10  C   UNL     1      -0.017   0.224   0.168  0.00  0.00    -0.048 A 
ATOM     11  C   UNL     1       0.008  -0.434  -1.048  0.00  0.00    +0.003 A 
ATOM     12  C   UNL     1       0.048  -1.815  -1.088  0.00  0.00    +0.002 A 
ATOM     13  C   UNL     1       0.063  -2.542   0.086  0.00  0.00    +0.026 A 
ATOM     14  C   UNL     1       0.038  -1.884   1.308  0.00  0.00    +0.047 A 
ATOM     15  C   UNL     1       0.004  -0.496   1.346  0.00  0.00    +0.029 A 
ENDBRANCH   1  14
BRANCH   3  16
ATOM     16  C   UNL     1      -1.336  -4.956   4.926  0.00  0.00    +0.141 C 
ATOM     17  N   UNL     1      -0.859  -5.377   6.058  0.00  0.00    -0.188 NA
BRANCH  17  18
ATOM     18  N   UNL     1      -1.589  -6.291   6.828  0.00  0.00    -0.206 N 
ATOM     19  C   UNL     1      -1.095  -6.729   8.003  0.00  0.00    +0.245 C 
ATOM     20  O   UNL     1      -0.017  -6.330   8.394  0.00  0.00    -0.273 OA
ATOM     21  H   UNL     1      -2.451  -6.610   6.516  0.00  0.00    +0.177 HD
BRANCH  19  22
ATOM     22  C   UNL     1      -1.880  -7.712   8.832  0.00  0.00    +0.136 C 
ATOM     23  C   UNL     1      -1.589  -9.134   8.348  0.00  0.00    +0.029 C 
BRANCH  22  24
ATOM     24  S   UNL     1      -1.398  -7.556  10.574  0.00  0.00    -0.113 S 
BRANCH  24  25
ATOM     25  C   UNL     1      -2.019  -5.976  11.048  0.00  0.00    +0.009 A 
ATOM     26  C   UNL     1      -2.810  -5.247  10.169  0.00  0.00    +0.015 A 
ATOM     27  C   UNL     1      -3.295  -4.009  10.544  0.00  0.00    +0.001 A 
ATOM     28  C   UNL     1      -2.994  -3.496  11.793  0.00  0.00    +0.000 A 
ATOM     29  C   UNL     1      -2.207  -4.219  12.670  0.00  0.00    +0.001 A 
ATOM     30  C   UNL     1      -1.723  -5.460  12.304  0.00  0.00    +0.015 A 
ENDBRANCH  24  25
ENDBRANCH  22  24
ENDBRANCH  19  22
ENDBRANCH  17  18
ENDBRANCH   3  16
TORSDOF 6
