REMARK  Name = ZINC63142120
REMARK  10 active torsions:
REMARK  status: ('A' for Active; 'I' for Inactive)
REMARK    1  A    between atoms: C_1  and  C_2
REMARK    2  A    between atoms: C_2  and  C_3
REMARK    3  A    between atoms: C_2  and  O_4
REMARK    4  A    between atoms: O_4  and  C_5
REMARK    5  A    between atoms: C_5  and  C_6
REMARK    6  A    between atoms: C_6  and  C_7
REMARK    7  A    between atoms: C_7  and  N_8
REMARK    8  A    between atoms: C_28  and  C_30
REMARK    9  A    between atoms: C_35  and  O_36
REMARK   10  A    between atoms: O_36  and  C_37
REMARK                            x       y       z     vdW  Elec       q    Type
REMARK                         _______ _______ _______ _____ _____    ______ ____
ROOT
ATOM      1  N   UNL     1      -5.282  -1.932  -2.071  0.00  0.00    -0.291 N 
ATOM      2  C   UNL     1      -5.482  -3.371  -2.037  0.00  0.00    +0.203 C 
ATOM      3  C   UNL     1      -6.929  -3.739  -2.049  0.00  0.00    +0.234 C 
ATOM      4  O   UNL     1      -7.210  -4.919  -2.024  0.00  0.00    -0.274 OA
ATOM      5  N   UNL     1      -7.938  -2.861  -2.084  0.00  0.00    -0.279 N 
ATOM      6  C   UNL     1      -7.726  -1.417  -2.097  0.00  0.00    +0.167 C 
ATOM      7  C   UNL     1      -6.279  -1.049  -2.092  0.00  0.00    +0.237 C 
ATOM      8  O   UNL     1      -5.993   0.130  -2.113  0.00  0.00    -0.274 OA
ATOM      9  C   UNL     1      -8.424  -0.773  -0.885  0.00  0.00    +0.065 C 
ATOM     10  C   UNL     1      -9.806  -1.373  -0.816  0.00  0.00    -0.034 C 
ATOM     11  C   UNL     1     -11.006  -0.813  -0.731  0.00  0.00    -0.001 A 
ATOM     12  C   UNL     1     -11.424   0.588  -0.560  0.00  0.00    +0.010 A 
ATOM     13  C   UNL     1     -12.764   0.815  -0.534  0.00  0.00    +0.001 A 
ATOM     14  C   UNL     1     -13.719  -0.199  -0.659  0.00  0.00    +0.002 A 
ATOM     15  C   UNL     1     -13.424  -1.515  -0.809  0.00  0.00    +0.026 A 
ATOM     16  C   UNL     1     -12.047  -1.880  -0.843  0.00  0.00    +0.043 A 
ATOM     17  N   UNL     1     -11.489  -3.050  -0.952  0.00  0.00    -0.375 N 
ATOM     18  C   UNL     1     -10.039  -2.879  -0.862  0.00  0.00    +0.131 C 
ATOM     19  C   UNL     1      -9.318  -3.395  -2.110  0.00  0.00    +0.137 C 
ATOM     20  H   UNL     1     -11.956  -3.892  -1.072  0.00  0.00    +0.160 HD
ENDROOT
BRANCH  19  21
ATOM     21  C   UNL     1      -9.284  -4.901  -2.095  0.00  0.00    +0.017 A 
ATOM     22  C   UNL     1      -9.400  -5.583  -0.899  0.00  0.00    +0.009 A 
ATOM     23  C   UNL     1      -9.368  -6.965  -0.884  0.00  0.00    +0.001 A 
ATOM     24  C   UNL     1      -9.220  -7.669  -2.066  0.00  0.00    +0.004 A 
ATOM     25  C   UNL     1      -9.104  -6.991  -3.264  0.00  0.00    +0.046 A 
ATOM     26  C   UNL     1      -9.141  -5.604  -3.282  0.00  0.00    +0.125 A 
BRANCH  26  27
ATOM     27  O   UNL     1      -9.033  -4.936  -4.460  0.00  0.00    -0.495 OA
ATOM     28  C   UNL     1      -8.889  -5.725  -5.643  0.00  0.00    +0.277 C 
ENDBRANCH  26  27
ENDBRANCH  19  21
BRANCH   1  29
ATOM     29  C   UNL     1      -3.907  -1.424  -2.077  0.00  0.00    +0.110 C 
BRANCH  29  30
ATOM     30  C   UNL     1      -3.433  -1.219  -0.637  0.00  0.00    +0.047 C 
BRANCH  30  31
ATOM     31  C   UNL     1      -1.998  -0.689  -0.643  0.00  0.00    +0.161 C 
BRANCH  31  32
ATOM     32  O   UNL     1      -1.556  -0.497   0.702  0.00  0.00    -0.377 OA
BRANCH  32  34
ATOM     33  C   UNL     1      -0.243   1.529   0.819  0.00  0.00    +0.037 C 
ATOM     34  C   UNL     1      -0.220  -0.001   0.810  0.00  0.00    +0.112 C 
ATOM     35  C   UNL     1       0.410  -0.510   2.108  0.00  0.00    +0.037 C 
ENDBRANCH  32  34
ENDBRANCH  31  32
ENDBRANCH  30  31
ENDBRANCH  29  30
ENDBRANCH   1  29
TORSDOF 7
