REMARK  Name = ZINC63230323
REMARK  9 active torsions:
REMARK  status: ('A' for Active; 'I' for Inactive)
REMARK    1  A    between atoms: C_1  and  O_2
REMARK    2  A    between atoms: O_2  and  C_3
REMARK    3  A    between atoms: C_6  and  C_9
REMARK    4  A    between atoms: C_9  and  C_11
REMARK    5  A    between atoms: C_9  and  C_25
REMARK    6  A    between atoms: C_11  and  N_12
REMARK    7  A    between atoms: N_12  and  C_13
REMARK    8  A    between atoms: C_16  and  C_22
REMARK    9  A    between atoms: C_18  and  N_19
REMARK                            x       y       z     vdW  Elec       q    Type
REMARK                         _______ _______ _______ _____ _____    ______ ____
ROOT
ATOM      1  C   UNL     1       2.061  -3.429   4.421  0.00  0.00    +0.064 C 
ENDROOT
BRANCH   1   2
ATOM      2  C   UNL     1       1.306  -4.460   5.220  0.00  0.00    -0.033 C 
ATOM      3  C   UNL     1       0.974  -4.391   6.529  0.00  0.00    -0.000 A 
ATOM      4  C   UNL     1       1.208  -3.375   7.562  0.00  0.00    +0.010 A 
ATOM      5  C   UNL     1       0.745  -3.594   8.814  0.00  0.00    +0.001 A 
ATOM      6  C   UNL     1       0.048  -4.763   9.149  0.00  0.00    +0.002 A 
ATOM      7  C   UNL     1      -0.206  -5.741   8.254  0.00  0.00    +0.026 A 
ATOM      8  C   UNL     1       0.235  -5.617   6.908  0.00  0.00    +0.043 A 
ATOM      9  N   UNL     1       0.115  -6.412   5.873  0.00  0.00    -0.380 N 
ATOM     10  C   UNL     1       0.759  -5.778   4.718  0.00  0.00    +0.145 C 
ATOM     11  H   UNL     1      -0.329  -7.275   5.871  0.00  0.00    +0.160 HD
ENDBRANCH   1   2
BRANCH   1  15
ATOM     12  C   UNL     1      -0.383  -2.054   1.196  0.00  0.00    +0.120 A 
ATOM     13  C   UNL     1       0.074  -1.159   2.153  0.00  0.00    +0.046 A 
ATOM     14  C   UNL     1       0.864  -1.606   3.194  0.00  0.00    +0.008 A 
ATOM     15  C   UNL     1       1.199  -2.944   3.284  0.00  0.00    -0.038 A 
ATOM     16  C   UNL     1       0.746  -3.838   2.332  0.00  0.00    +0.008 A 
ATOM     17  C   UNL     1      -0.049  -3.397   1.292  0.00  0.00    +0.046 A 
BRANCH  12  19
ATOM     18  C   UNL     1      -1.463  -0.221   0.136  0.00  0.00    +0.277 C 
ATOM     19  O   UNL     1      -1.160  -1.617   0.171  0.00  0.00    -0.495 OA
ENDBRANCH  12  19
ENDBRANCH   1  15
BRANCH   1  20
ATOM     20  C   UNL     1       3.340  -4.055   3.861  0.00  0.00    +0.114 C 
BRANCH  20  21
ATOM     21  N   UNL     1       4.230  -4.418   4.966  0.00  0.00    -0.341 N 
ATOM     22  H   UNL     1       3.961  -4.247   5.882  0.00  0.00    +0.146 HD
BRANCH  21  23
ATOM     23  C   UNL     1       5.462  -5.007   4.702  0.00  0.00    +0.058 A 
ATOM     24  C   UNL     1       5.796  -5.363   3.398  0.00  0.00    +0.026 A 
ATOM     25  C   UNL     1       7.014  -5.946   3.133  0.00  0.00    +0.015 A 
ATOM     26  C   UNL     1       7.917  -6.180   4.175  0.00  0.00    +0.039 A 
ATOM     27  C   UNL     1       7.578  -5.821   5.483  0.00  0.00    +0.047 A 
ATOM     28  C   UNL     1       6.360  -5.234   5.741  0.00  0.00    +0.148 A 
BRANCH  26  29
ATOM     29  C   UNL     1       9.223  -6.805   3.895  0.00  0.00    +0.242 C 
ATOM     30  O   UNL     1      10.007  -7.008   4.802  0.00  0.00    -0.270 OA
ATOM     31  N   UNL     1       9.548  -7.151   2.633  0.00  0.00    -0.325 N 
ATOM     32  H   UNL     1       8.923  -6.988   1.910  0.00  0.00    +0.145 HD
ATOM     33  H   UNL     1      10.407  -7.561   2.449  0.00  0.00    +0.145 HD
ENDBRANCH  26  29
BRANCH  28  34
ATOM     34  N   UNL     1       6.003  -4.848   7.125  0.00  0.00    +0.058 N 
ATOM     35  O   UNL     1       5.382  -3.831   7.328  0.00  0.00    -0.126 OA
ATOM     36  O   UNL     1       6.334  -5.550   8.052  0.00  0.00    -0.126 OA
ENDBRANCH  28  34
ENDBRANCH  21  23
ENDBRANCH  20  21
ENDBRANCH   1  20
TORSDOF 8
