REMARK  Name = ZINC14749675
REMARK  11 active torsions:
REMARK  status: ('A' for Active; 'I' for Inactive)
REMARK    1  A    between atoms: C_1  and  C_2
REMARK    2  A    between atoms: C_2  and  C_4
REMARK    3  A    between atoms: C_2  and  N_58
REMARK    4  A    between atoms: C_4  and  O_5
REMARK    5  A    between atoms: N_13  and  C_22
REMARK    6  A    between atoms: N_16  and  C_17
REMARK    7  A    between atoms: C_17  and  C_18
REMARK    8  A    between atoms: C_18  and  C_19
REMARK    9  A    between atoms: C_19  and  O_20
REMARK   10  A    between atoms: O_20  and  C_21
REMARK   11  A    between atoms: C_22  and  C_23
REMARK                            x       y       z     vdW  Elec       q    Type
REMARK                         _______ _______ _______ _____ _____    ______ ____
ROOT
ATOM      1  C   UNL     1       4.838   0.111  -5.705  0.00  0.00    -0.076 C 
ATOM      2  C   UNL     1       4.740   0.784  -4.332  0.00  0.00    +0.017 C 
ATOM      3  C   UNL     1       5.400  -0.108  -3.285  0.00  0.00    +0.112 C 
ATOM      4  C   UNL     1       6.844  -0.408  -3.672  0.00  0.00    +0.017 C 
ATOM      5  C   UNL     1       6.874  -1.042  -5.066  0.00  0.00    -0.076 C 
ATOM      6  C   UNL     1       5.341   0.544  -1.923  0.00  0.00    +0.247 C 
ATOM      7  O   UNL     1       5.836   1.600  -1.593  0.00  0.00    -0.273 OA
ATOM      8  N   UNL     1       4.622  -0.298  -1.152  0.00  0.00    -0.218 N 
ATOM      9  C   UNL     1       4.230  -1.380  -1.836  0.00  0.00    +0.312 C 
ATOM     10  O   UNL     1       3.574  -2.283  -1.355  0.00  0.00    -0.252 OA
ATOM     11  N   UNL     1       4.641  -1.354  -3.118  0.00  0.00    -0.271 N 
ATOM     12  N   UNL     1       6.265  -0.102  -6.032  0.00  0.00    +0.383 N 
ATOM     13  H   UNL     1       6.757   0.797  -5.976  0.00  0.00    -0.081 HD
ENDROOT
BRANCH  12  15
ATOM     14  C   UNL     1       7.878  -0.774  -7.744  0.00  0.00    -0.011 C 
ATOM     15  C   UNL     1       6.393  -0.635  -7.404  0.00  0.00    -0.046 C 
BRANCH  15  16
ATOM     16  C   UNL     1       5.735   0.342  -8.380  0.00  0.00    +0.140 C 
BRANCH  16  17
ATOM     17  O   UNL     1       6.421   1.595  -8.333  0.00  0.00    -0.397 OA
ATOM     18  H   UNL     1       6.057   2.265  -8.928  0.00  0.00    +0.209 HD
ENDBRANCH  16  17
ENDBRANCH  15  16
ENDBRANCH  12  15
BRANCH  11  19
ATOM     19  C   UNL     1       4.387  -2.370  -4.143  0.00  0.00    +0.112 C 
BRANCH  19  20
ATOM     20  C   UNL     1       2.893  -2.401  -4.470  0.00  0.00    +0.047 C 
BRANCH  20  21
ATOM     21  C   UNL     1       2.644  -3.372  -5.626  0.00  0.00    +0.161 C 
BRANCH  21  22
ATOM     22  O   UNL     1       1.248  -3.401  -5.932  0.00  0.00    -0.383 OA
ATOM     23  C   UNL     1       0.907  -4.281  -7.004  0.00  0.00    +0.193 C 
ENDBRANCH  21  22
ENDBRANCH  20  21
ENDBRANCH  19  20
ENDBRANCH  11  19
BRANCH   8  24
ATOM     24  C   UNL     1       4.315  -0.061   0.261  0.00  0.00    +0.173 C 
BRANCH  24  25
ATOM     25  C   UNL     1       3.017   0.697   0.371  0.00  0.00    +0.059 A 
ATOM     26  C   UNL     1       1.837   0.005   0.569  0.00  0.00    +0.025 A 
ATOM     27  C   UNL     1       0.648   0.711   0.670  0.00  0.00    +0.003 A 
ATOM     28  C   UNL     1       0.691   2.094   0.568  0.00  0.00    +0.020 A 
ATOM     29  C   UNL     1       1.909   2.717   0.371  0.00  0.00    +0.111 A 
ATOM     30  N   UNL     1       3.020   2.012   0.279  0.00  0.00    -0.258 NA
ENDBRANCH  24  25
ENDBRANCH   8  24
TORSDOF 9
