REMARK  Name = ZINC00877242
REMARK  9 active torsions:
REMARK  status: ('A' for Active; 'I' for Inactive)
REMARK    1  A    between atoms: C_1  and  C_2
REMARK    2  A    between atoms: C_6  and  C_35
REMARK    3  A    between atoms: C_10  and  S_16
REMARK    4  A    between atoms: C_14  and  C_15
REMARK    5  A    between atoms: S_16  and  C_17
REMARK    6  A    between atoms: C_17  and  C_18
REMARK    7  A    between atoms: N_20  and  C_21
REMARK    8  A    between atoms: C_24  and  S_27
REMARK    9  A    between atoms: S_27  and  N_30
REMARK                            x       y       z     vdW  Elec       q    Type
REMARK                         _______ _______ _______ _____ _____    ______ ____
ROOT
ATOM      1  C   UNL     1      -3.504   4.578   6.712  0.00  0.00    +0.173 C 
ENDROOT
BRANCH   1   2
ATOM      2  C   UNL     1      -2.806   4.216   5.426  0.00  0.00    +0.227 C 
ATOM      3  O   UNL     1      -2.000   4.979   4.938  0.00  0.00    -0.275 OA
ATOM      4  N   UNL     1      -3.077   3.043   4.819  0.00  0.00    -0.285 N 
ATOM      5  H   UNL     1      -3.776   2.468   5.167  0.00  0.00    +0.155 HD
BRANCH   4   6
ATOM      6  C   UNL     1      -2.351   2.656   3.688  0.00  0.00    +0.034 A 
ATOM      7  C   UNL     1      -1.014   3.011   3.565  0.00  0.00    +0.025 A 
ATOM      8  C   UNL     1      -0.299   2.627   2.447  0.00  0.00    +0.030 A 
ATOM      9  C   UNL     1      -0.914   1.891   1.451  0.00  0.00    +0.106 A 
ATOM     10  C   UNL     1      -2.247   1.541   1.568  0.00  0.00    +0.030 A 
ATOM     11  C   UNL     1      -2.965   1.917   2.686  0.00  0.00    +0.025 A 
BRANCH   9  12
ATOM     12  S   UNL     1       0.001   1.403   0.026  0.00  0.00    +0.061 S 
ATOM     13  O   UNL     1       1.076   2.324  -0.101  0.00  0.00    -0.153 OA
ATOM     14  O   UNL     1      -0.946   1.190  -1.011  0.00  0.00    -0.153 OA
BRANCH  12  15
ATOM     15  N   UNL     1       0.678  -0.071   0.360  0.00  0.00    -0.177 NA
ATOM     16  C   UNL     1       2.001  -0.290   0.963  0.00  0.00    +0.109 C 
ATOM     17  C   UNL     1       2.214  -1.815   1.060  0.00  0.00    +0.018 C 
ATOM     18  C   UNL     1       1.245  -2.368  -0.019  0.00  0.00    +0.018 C 
ATOM     19  C   UNL     1       0.057  -1.381   0.095  0.00  0.00    +0.109 C 
ENDBRANCH  12  15
ENDBRANCH   9  12
ENDBRANCH   4   6
ENDBRANCH   1   2
BRANCH   1  20
ATOM     20  S   UNL     1      -2.930   6.201   7.273  0.00  0.00    -0.076 S 
BRANCH  20  30
ATOM     21  C   UNL     1      -0.979  12.308   9.739  0.00  0.00    +0.044 C 
ATOM     22  C   UNL     1      -1.746  11.011   9.711  0.00  0.00    -0.047 A 
ATOM     23  C   UNL     1      -2.640  10.723  10.719  0.00  0.00    +0.013 A 
ATOM     24  C   UNL     1      -3.350   9.519  10.690  0.00  0.00    -0.000 A 
ATOM     25  C   UNL     1      -4.309   9.184  11.748  0.00  0.00    +0.017 A 
ATOM     26  C   UNL     1      -4.983   8.014  11.679  0.00  0.00    -0.005 A 
ATOM     27  C   UNL     1      -4.756   7.119  10.607  0.00  0.00    +0.165 A 
ATOM     28  N   UNL     1      -5.259   5.933  10.316  0.00  0.00    -0.128 NA
ATOM     29  N   UNL     1      -4.743   5.496   9.223  0.00  0.00    -0.122 NA
ATOM     30  C   UNL     1      -3.881   6.368   8.747  0.00  0.00    +0.197 A 
ATOM     31  N   UNL     1      -3.855   7.423   9.611  0.00  0.00    -0.270 N 
ATOM     32  C   UNL     1      -3.148   8.613   9.634  0.00  0.00    +0.058 A 
ATOM     33  C   UNL     1      -2.243   8.924   8.629  0.00  0.00    +0.030 A 
ATOM     34  C   UNL     1      -1.549  10.116   8.671  0.00  0.00    -0.046 A 
ATOM     35  C   UNL     1      -0.568  10.448   7.576  0.00  0.00    +0.044 C 
ATOM     36  C   UNL     1      -5.970   7.653  12.760  0.00  0.00    +0.047 C 
ENDBRANCH  20  30
ENDBRANCH   1  20
TORSDOF 6
