REMARK  Name = ZINC67236354
REMARK  8 active torsions:
REMARK  status: ('A' for Active; 'I' for Inactive)
REMARK    1  A    between atoms: C_1  and  C_2
REMARK    2  A    between atoms: C_5  and  N_9
REMARK    3  A    between atoms: C_10  and  C_12
REMARK    4  A    between atoms: C_12  and  S_13
REMARK    5  A    between atoms: S_13  and  C_14
REMARK    6  A    between atoms: C_18  and  C_31
REMARK    7  A    between atoms: N_24  and  C_25
REMARK    8  A    between atoms: C_25  and  C_26
REMARK                            x       y       z     vdW  Elec       q    Type
REMARK                         _______ _______ _______ _____ _____    ______ ____
ROOT
ATOM      1  C   UNL     1      -0.358  -8.691  -2.733  0.00  0.00    +0.173 A 
ATOM      2  N   UNL     1      -0.338  -9.220  -1.532  0.00  0.00    -0.221 NA
ATOM      3  C   UNL     1      -0.413 -10.555  -1.361  0.00  0.00    +0.097 A 
ATOM      4  C   UNL     1      -0.415 -11.398  -0.228  0.00  0.00    +0.051 A 
ATOM      5  C   UNL     1      -0.513 -12.671  -0.658  0.00  0.00    +0.016 A 
ATOM      6  N   UNL     1      -0.575 -12.688  -2.018  0.00  0.00    -0.353 N 
ATOM      7  H   UNL     1      -0.649 -13.481  -2.571  0.00  0.00    +0.166 HD
ATOM      8  C   UNL     1      -0.515 -11.390  -2.480  0.00  0.00    +0.131 A 
ATOM      9  C   UNL     1      -0.535 -10.806  -3.760  0.00  0.00    +0.279 A 
ATOM     10  O   UNL     1      -0.623 -11.498  -4.761  0.00  0.00    -0.265 OA
ATOM     11  N   UNL     1      -0.462  -9.460  -3.857  0.00  0.00    -0.279 N 
ATOM     12  C   UNL     1      -0.549 -13.889   0.229  0.00  0.00    +0.063 C 
ENDROOT
BRANCH   1  13
ATOM     13  S   UNL     1      -0.257  -6.940  -2.899  0.00  0.00    -0.078 S 
BRANCH  13  14
ATOM     14  C   UNL     1      -0.136  -6.343  -1.191  0.00  0.00    +0.173 C 
BRANCH  14  16
ATOM     15  N   UNL     1       0.057  -4.171  -0.023  0.00  0.00    -0.284 N 
ATOM     16  C   UNL     1      -0.042  -4.839  -1.190  0.00  0.00    +0.228 C 
ATOM     17  O   UNL     1      -0.055  -4.230  -2.238  0.00  0.00    -0.275 OA
ATOM     18  H   UNL     1       0.149  -4.660   0.809  0.00  0.00    +0.155 HD
BRANCH  15  23
ATOM     19  C   UNL     1      -0.064   1.502   0.016  0.00  0.00    +0.044 C 
ATOM     20  C   UNL     1      -0.031  -0.005   0.006  0.00  0.00    -0.049 A 
ATOM     21  C   UNL     1      -0.622  -0.701  -1.033  0.00  0.00    +0.005 A 
ATOM     22  C   UNL     1      -0.594  -2.082  -1.045  0.00  0.00    +0.025 A 
ATOM     23  C   UNL     1       0.028  -2.772  -0.014  0.00  0.00    +0.052 A 
ATOM     24  C   UNL     1       0.621  -2.070   1.029  0.00  0.00    +0.062 A 
ATOM     25  C   UNL     1       0.595  -0.688   1.032  0.00  0.00    +0.025 A 
ATOM     26 CL   UNL     1       1.401  -2.928   2.321  0.00  0.00    -0.082 Cl
ENDBRANCH  15  23
ENDBRANCH  14  16
ENDBRANCH  13  14
ENDBRANCH   1  13
BRANCH  11  27
ATOM     27  C   UNL     1      -0.487  -8.822  -5.175  0.00  0.00    +0.201 C 
BRANCH  27  28
ATOM     28  C   UNL     1       0.920  -8.691  -5.697  0.00  0.00    +0.125 A 
ATOM     29  C   UNL     1       1.569  -9.601  -6.447  0.00  0.00    +0.046 A 
ATOM     30  C   UNL     1       2.854  -9.073  -6.709  0.00  0.00    +0.041 A 
ATOM     31  C   UNL     1       2.914  -7.873  -6.104  0.00  0.00    +0.195 A 
ATOM     32  O   UNL     1       1.738  -7.645  -5.498  0.00  0.00    -0.466 OA
ENDBRANCH  27  28
ENDBRANCH  11  27
TORSDOF 6
