REMARK  Name = ZINC53552592
REMARK  7 active torsions:
REMARK  status: ('A' for Active; 'I' for Inactive)
REMARK    1  A    between atoms: C_1  and  C_2
REMARK    2  A    between atoms: C_2  and  C_4
REMARK    3  A    between atoms: C_2  and  N_13
REMARK    4  A    between atoms: N_13  and  C_14
REMARK    5  A    between atoms: C_17  and  C_23
REMARK    6  A    between atoms: C_19  and  N_20
REMARK    7  A    between atoms: N_25  and  C_26
REMARK                            x       y       z     vdW  Elec       q    Type
REMARK                         _______ _______ _______ _____ _____    ______ ____
ROOT
ATOM      1  C   UNL     1      -2.065  -0.609   1.216  0.00  0.00    +0.058 A 
ATOM      2  C   UNL     1      -1.405  -0.369   2.419  0.00  0.00    +0.026 A 
ATOM      3  C   UNL     1      -2.057  -0.565   3.614  0.00  0.00    +0.015 A 
ATOM      4  C   UNL     1      -3.384  -1.006   3.621  0.00  0.00    +0.039 A 
ATOM      5  C   UNL     1      -4.044  -1.245   2.413  0.00  0.00    +0.047 A 
ATOM      6  C   UNL     1      -3.388  -1.042   1.220  0.00  0.00    +0.148 A 
ENDROOT
BRANCH   4   7
ATOM      7  C   UNL     1      -4.085  -1.218   4.902  0.00  0.00    +0.244 C 
ATOM      8  O   UNL     1      -5.239  -1.600   4.906  0.00  0.00    -0.270 OA
ATOM      9  N   UNL     1      -3.447  -0.987   6.066  0.00  0.00    -0.314 N 
ATOM     10  C   UNL     1      -4.144  -1.197   7.337  0.00  0.00    +0.128 C 
ATOM     11  H   UNL     1      -2.527  -0.681   6.062  0.00  0.00    +0.149 HD
ENDBRANCH   4   7
BRANCH   6  12
ATOM     12  N   UNL     1      -4.088  -1.290  -0.060  0.00  0.00    +0.058 N 
ATOM     13  O   UNL     1      -5.258  -1.007  -0.174  0.00  0.00    -0.126 OA
ATOM     14  O   UNL     1      -3.490  -1.775  -0.992  0.00  0.00    -0.126 OA
ENDBRANCH   6  12
BRANCH   1  15
ATOM     15  N   UNL     1      -1.404  -0.409   0.010  0.00  0.00    -0.333 N 
ATOM     16  H   UNL     1      -1.887  -0.491  -0.827  0.00  0.00    +0.147 HD
BRANCH  15  18
ATOM     17  C   UNL     1       0.193   1.436   0.178  0.00  0.00    +0.036 C 
ATOM     18  C   UNL     1       0.023  -0.075   0.003  0.00  0.00    +0.133 C 
BRANCH  18  19
ATOM     19  C   UNL     1       0.632  -0.500  -1.308  0.00  0.00    +0.126 A 
ATOM     20  C   UNL     1       1.839  -1.067  -1.445  0.00  0.00    +0.055 A 
ATOM     21  C   UNL     1       2.016  -1.310  -2.882  0.00  0.00    +0.020 A 
ATOM     22  C   UNL     1       3.033  -1.862  -3.659  0.00  0.00    +0.011 A 
ATOM     23  C   UNL     1       2.881  -1.945  -5.015  0.00  0.00    +0.001 A 
ATOM     24  C   UNL     1       1.721  -1.483  -5.621  0.00  0.00    +0.004 A 
ATOM     25  C   UNL     1       0.705  -0.934  -4.869  0.00  0.00    +0.047 A 
ATOM     26  C   UNL     1       0.839  -0.841  -3.490  0.00  0.00    +0.135 A 
ATOM     27  O   UNL     1       0.042  -0.372  -2.509  0.00  0.00    -0.458 OA
ENDBRANCH  18  19
ENDBRANCH  15  18
ENDBRANCH   1  15
TORSDOF 5
