REMARK  Name = ZINC60244321
REMARK  6 active torsions:
REMARK  status: ('A' for Active; 'I' for Inactive)
REMARK    1  A    between atoms: C_3  and  S_12
REMARK    2  A    between atoms: C_6  and  S_7
REMARK    3  A    between atoms: S_7  and  C_8
REMARK    4  A    between atoms: S_12  and  N_15
REMARK    5  A    between atoms: C_19  and  C_21
REMARK    6  A    between atoms: C_21  and  N_22
REMARK                            x       y       z     vdW  Elec       q    Type
REMARK                         _______ _______ _______ _____ _____    ______ ____
ROOT
ATOM      1  S   UNL     1       4.028   2.580  -0.057  0.00  0.00    +0.061 S 
ATOM      2  O   UNL     1       5.039   1.784  -0.658  0.00  0.00    -0.153 OA
ATOM      3  O   UNL     1       3.787   3.926  -0.444  0.00  0.00    -0.153 OA
ENDROOT
BRANCH   1   6
ATOM      4  C   UNL     1       0.119   1.731  -0.426  0.00  0.00    +0.017 A 
ATOM      5  C   UNL     1       1.312   2.406  -0.256  0.00  0.00    +0.029 A 
ATOM      6  C   UNL     1       2.509   1.714  -0.274  0.00  0.00    +0.106 A 
ATOM      7  C   UNL     1       2.517   0.344  -0.463  0.00  0.00    +0.029 A 
ATOM      8  C   UNL     1       1.329  -0.338  -0.634  0.00  0.00    +0.017 A 
ATOM      9  C   UNL     1       0.124   0.354  -0.616  0.00  0.00    +0.016 A 
BRANCH   9  10
ATOM     10  S   UNL     1      -1.395  -0.512  -0.833  0.00  0.00    -0.016 S 
BRANCH  10  11
ATOM     11  C   UNL     1      -0.888  -2.242  -1.039  0.00  0.00    +0.448 C 
ATOM     12  F   UNL     1      -0.199  -2.665   0.102  0.00  0.00    -0.160 F 
ATOM     13  F   UNL     1      -2.022  -3.041  -1.222  0.00  0.00    -0.160 F 
ATOM     14  F   UNL     1      -0.054  -2.353  -2.156  0.00  0.00    -0.160 F 
ENDBRANCH  10  11
ENDBRANCH   9  10
ENDBRANCH   1   6
BRANCH   1  15
ATOM     15  N   UNL     1       4.349   2.605   1.568  0.00  0.00    -0.175 NA
ATOM     16  C   UNL     1       3.987   3.690   2.499  0.00  0.00    +0.110 C 
ATOM     17  C   UNL     1       3.919   3.012   3.890  0.00  0.00    +0.019 C 
ATOM     18  C   UNL     1       5.086   1.993   3.798  0.00  0.00    +0.020 C 
ATOM     19  C   UNL     1       5.036   1.546   2.322  0.00  0.00    +0.063 C 
BRANCH  19  20
ATOM     20  C   UNL     1       6.458   1.366   1.787  0.00  0.00    -0.058 C 
BRANCH  20  21
ATOM     21  N   UNL     1       7.107   0.249   2.487  0.00  0.00    +0.381 N 
ATOM     22  C   UNL     1       6.480  -1.038   2.089  0.00  0.00    -0.079 C 
ATOM     23  C   UNL     1       7.572  -2.083   2.424  0.00  0.00    -0.020 C 
ATOM     24  C   UNL     1       8.880  -1.350   2.047  0.00  0.00    -0.020 C 
ATOM     25  C   UNL     1       8.526   0.148   2.082  0.00  0.00    -0.079 C 
ATOM     26  H   UNL     1       7.038   0.376   3.485  0.00  0.00    -0.082 HD
ENDBRANCH  20  21
ENDBRANCH  19  20
ENDBRANCH   1  15
TORSDOF 6
