REMARK  Name = ZINC39982414
REMARK  8 active torsions:
REMARK  status: ('A' for Active; 'I' for Inactive)
REMARK    1  A    between atoms: C_1  and  C_2
REMARK    2  A    between atoms: C_4  and  C_30
REMARK    3  A    between atoms: C_8  and  C_12
REMARK    4  A    between atoms: C_12  and  C_14
REMARK    5  A    between atoms: C_12  and  S_15
REMARK    6  A    between atoms: S_15  and  C_16
REMARK    7  A    between atoms: N_22  and  C_23
REMARK    8  A    between atoms: C_23  and  C_24
REMARK                            x       y       z     vdW  Elec       q    Type
REMARK                         _______ _______ _______ _____ _____    ______ ____
ROOT
ATOM      1  S   UNL     1       5.539  -4.888  -0.935  0.00  0.00    -0.115 S 
ENDROOT
BRANCH   1   2
ATOM      2  C   UNL     1       4.009  -5.858  -0.834  0.00  0.00    +0.212 C 
ATOM      3  N   UNL     1       2.833  -5.053  -1.234  0.00  0.00    -0.244 N 
ATOM      4  N   UNL     1       1.888  -4.866  -0.250  0.00  0.00    -0.163 NA
ATOM      5  C   UNL     1       2.000  -5.352   0.947  0.00  0.00    +0.174 C 
ATOM      6  S   UNL     1       3.561  -6.222   0.914  0.00  0.00    -0.054 S 
ATOM      7  N   UNL     1       1.114  -5.225   2.009  0.00  0.00    -0.315 N 
ATOM      8  H   UNL     1       2.736  -4.684  -2.126  0.00  0.00    +0.170 HD
ATOM      9  H   UNL     1       1.317  -5.639   2.862  0.00  0.00    +0.148 HD
BRANCH   7  10
ATOM     10  C   UNL     1      -0.127  -4.465   1.840  0.00  0.00    +0.178 C 
BRANCH  10  11
ATOM     11  C   UNL     1      -0.905  -4.480   3.131  0.00  0.00    +0.122 A 
ATOM     12  C   UNL     1      -0.802  -3.576   4.122  0.00  0.00    +0.046 A 
ATOM     13  C   UNL     1      -1.706  -3.973   5.133  0.00  0.00    +0.041 A 
ATOM     14  C   UNL     1      -2.308  -5.095   4.700  0.00  0.00    +0.195 A 
ATOM     15  O   UNL     1      -1.823  -5.394   3.484  0.00  0.00    -0.466 OA
ENDBRANCH  10  11
ENDBRANCH   7  10
ENDBRANCH   1   2
BRANCH   1  16
ATOM     16  C   UNL     1       5.149  -3.360  -0.038  0.00  0.00    +0.111 C 
ATOM     17  C   UNL     1       6.433  -2.558   0.185  0.00  0.00    +0.027 C 
BRANCH  16  24
ATOM     18  C   UNL     1       0.639   1.991  -2.202  0.00  0.00    +0.024 C 
ATOM     19  C   UNL     1       0.498   0.478  -2.027  0.00  0.00    +0.076 C 
ATOM     20  C   UNL     1       1.476  -0.262  -2.912  0.00  0.00    -0.045 C 
ATOM     21  C   UNL     1       2.398  -1.033  -2.315  0.00  0.00    +0.071 C 
ATOM     22  C   UNL     1       2.386  -1.098  -0.838  0.00  0.00    +0.111 C 
ATOM     23  N   UNL     1       3.262  -1.835  -0.196  0.00  0.00    -0.226 NA
ATOM     24  C   UNL     1       4.177  -2.538  -0.844  0.00  0.00    +0.136 C 
ATOM     25  N   UNL     1       4.283  -2.557  -2.151  0.00  0.00    -0.160 NA
ATOM     26  C   UNL     1       3.470  -1.861  -2.954  0.00  0.00    +0.271 C 
ATOM     27  O   UNL     1       3.596  -1.902  -4.166  0.00  0.00    -0.268 OA
ATOM     28  S   UNL     1       1.042  -0.044  -0.350  0.00  0.00    -0.098 S 
ATOM     29  C   UNL     1       1.416  -0.139  -4.412  0.00  0.00    +0.041 C 
ENDBRANCH  16  24
ENDBRANCH   1  16
TORSDOF 5
