REMARK  Name = ZINC02895946
REMARK  12 active torsions:
REMARK  status: ('A' for Active; 'I' for Inactive)
REMARK    1  A    between atoms: C_1  and  C_2
REMARK    2  A    between atoms: C_2  and  C_3
REMARK    3  A    between atoms: C_2  and  C_4
REMARK    4  A    between atoms: C_2  and  C_20
REMARK    5  A    between atoms: C_7  and  O_10
REMARK    6  A    between atoms: O_10  and  C_11
REMARK    7  A    between atoms: C_11  and  C_13
REMARK    8  A    between atoms: C_16  and  N_19
REMARK    9  A    between atoms: C_23  and  O_26
REMARK   10  A    between atoms: O_26  and  C_27
REMARK   11  A    between atoms: C_27  and  C_29
REMARK   12  A    between atoms: C_32  and  N_35
REMARK                            x       y       z     vdW  Elec       q    Type
REMARK                         _______ _______ _______ _____ _____    ______ ____
ROOT
ATOM      1  C   UNL     1       0.191   4.254  -0.928  0.00  0.00    +0.021 C 
ATOM      2  C   UNL     1       1.143   3.540   0.034  0.00  0.00    +0.015 C 
ATOM      3  C   UNL     1       0.724   3.834   1.476  0.00  0.00    +0.021 C 
ENDROOT
BRANCH   2   4
ATOM      4  C   UNL     1       1.086   2.055  -0.213  0.00  0.00    -0.037 A 
ATOM      5  C   UNL     1       1.310   1.557  -1.483  0.00  0.00    +0.008 A 
ATOM      6  C   UNL     1       1.259   0.196  -1.712  0.00  0.00    +0.046 A 
ATOM      7  C   UNL     1       0.982  -0.672  -0.665  0.00  0.00    +0.132 A 
ATOM      8  C   UNL     1       0.757  -0.171   0.609  0.00  0.00    +0.046 A 
ATOM      9  C   UNL     1       0.810   1.192   0.832  0.00  0.00    +0.008 A 
BRANCH   7  10
ATOM     10  O   UNL     1       0.931  -2.012  -0.888  0.00  0.00    -0.422 OA
BRANCH  10  11
ATOM     11  C   UNL     1       2.092  -2.628  -1.184  0.00  0.00    +0.344 C 
ATOM     12  O   UNL     1       3.135  -2.004  -1.158  0.00  0.00    -0.245 OA
BRANCH  11  13
ATOM     13  C   UNL     1       2.098  -4.059  -1.539  0.00  0.00    +0.060 A 
ATOM     14  C   UNL     1       0.900  -4.780  -1.563  0.00  0.00    +0.017 A 
ATOM     15  C   UNL     1       0.908  -6.109  -1.899  0.00  0.00    +0.023 A 
ATOM     16  C   UNL     1       2.109  -6.744  -2.205  0.00  0.00    +0.025 A 
ATOM     17  C   UNL     1       3.304  -6.030  -2.176  0.00  0.00    +0.023 A 
ATOM     18  C   UNL     1       3.303  -4.699  -1.846  0.00  0.00    +0.017 A 
BRANCH  16  19
ATOM     19  N   UNL     1       2.115  -8.093  -2.540  0.00  0.00    -0.358 N 
ATOM     20  H   UNL     1       2.951  -8.536  -2.754  0.00  0.00    +0.142 HD
ATOM     21  H   UNL     1       1.282  -8.591  -2.561  0.00  0.00    +0.142 HD
ENDBRANCH  16  19
ENDBRANCH  11  13
ENDBRANCH  10  11
ENDBRANCH   7  10
ENDBRANCH   2   4
BRANCH   2  22
ATOM     22  C   UNL     1       2.549   4.034  -0.192  0.00  0.00    -0.037 A 
ATOM     23  C   UNL     1       3.568   3.129  -0.424  0.00  0.00    +0.008 A 
ATOM     24  C   UNL     1       4.857   3.579  -0.636  0.00  0.00    +0.046 A 
ATOM     25  C   UNL     1       5.130   4.939  -0.605  0.00  0.00    +0.132 A 
ATOM     26  C   UNL     1       4.106   5.844  -0.366  0.00  0.00    +0.046 A 
ATOM     27  C   UNL     1       2.818   5.389  -0.160  0.00  0.00    +0.008 A 
BRANCH  25  28
ATOM     28  O   UNL     1       6.398   5.384  -0.809  0.00  0.00    -0.422 OA
BRANCH  28  29
ATOM     29  C   UNL     1       7.032   5.929   0.248  0.00  0.00    +0.344 C 
ATOM     30  O   UNL     1       6.502   5.928   1.342  0.00  0.00    -0.245 OA
BRANCH  29  31
ATOM     31  C   UNL     1       8.368   6.526   0.078  0.00  0.00    +0.060 A 
ATOM     32  C   UNL     1       8.982   6.523  -1.179  0.00  0.00    +0.017 A 
ATOM     33  C   UNL     1      10.223   7.085  -1.335  0.00  0.00    +0.023 A 
ATOM     34  C   UNL     1      10.877   7.647  -0.242  0.00  0.00    +0.025 A 
ATOM     35  C   UNL     1      10.271   7.647   1.011  0.00  0.00    +0.023 A 
ATOM     36  C   UNL     1       9.028   7.093   1.173  0.00  0.00    +0.017 A 
BRANCH  34  37
ATOM     37  N   UNL     1      12.138   8.211  -0.403  0.00  0.00    -0.358 N 
ATOM     38  H   UNL     1      12.594   8.604   0.357  0.00  0.00    +0.142 HD
ATOM     39  H   UNL     1      12.561   8.212  -1.276  0.00  0.00    +0.142 HD
ENDBRANCH  34  37
ENDBRANCH  29  31
ENDBRANCH  28  29
ENDBRANCH  25  28
ENDBRANCH   2  22
TORSDOF 10
