REMARK  Name = ZINC34778745
REMARK  8 active torsions:
REMARK  status: ('A' for Active; 'I' for Inactive)
REMARK    1  A    between atoms: C_1  and  C_2
REMARK    2  A    between atoms: C_5  and  C_27
REMARK    3  A    between atoms: C_6  and  C_8
REMARK    4  A    between atoms: C_8  and  N_9
REMARK    5  A    between atoms: C_12  and  C_18
REMARK    6  A    between atoms: C_13  and  C_15
REMARK    7  A    between atoms: N_21  and  C_24
REMARK    8  A    between atoms: C_24  and  C_25
REMARK                            x       y       z     vdW  Elec       q    Type
REMARK                         _______ _______ _______ _____ _____    ______ ____
ROOT
ATOM      1  N   UNL     1       1.276  -3.752   2.488  0.00  0.00    -0.283 N 
ATOM      2  C   UNL     1       1.726  -4.831   1.781  0.00  0.00    +0.098 A 
ATOM      3  C   UNL     1       3.007  -5.359   2.002  0.00  0.00    +0.074 A 
ATOM      4  C   UNL     1       3.356  -6.463   1.219  0.00  0.00    -0.015 A 
ATOM      5  C   UNL     1       2.412  -6.912   0.321  0.00  0.00    +0.106 A 
ATOM      6  S   UNL     1       1.057  -5.786   0.584  0.00  0.00    -0.063 S 
ATOM      7  C   UNL     1       4.700  -7.131   1.350  0.00  0.00    +0.046 C 
ATOM      8  C   UNL     1       3.815  -4.669   3.039  0.00  0.00    +0.265 A 
ATOM      9  O   UNL     1       4.939  -5.054   3.301  0.00  0.00    -0.267 OA
ATOM     10  N   UNL     1       3.289  -3.614   3.686  0.00  0.00    -0.257 N 
ATOM     11  C   UNL     1       2.054  -3.162   3.414  0.00  0.00    +0.333 A 
ATOM     12  O   UNL     1       1.627  -2.201   4.024  0.00  0.00    -0.246 OA
ENDROOT
BRANCH   5  13
ATOM     13  C   UNL     1       2.498  -7.996  -0.586  0.00  0.00    +0.393 C 
ATOM     14  O   UNL     1       3.518  -8.673  -0.636  0.00  0.00    -0.240 OA
ATOM     15  O   UNL     1       1.553  -8.258  -1.320  0.00  0.00    -0.240 OA
ENDBRANCH   5  13
BRANCH   1  16
ATOM     16  C   UNL     1      -0.067  -3.228   2.231  0.00  0.00    +0.162 C 
BRANCH  16  22
ATOM     17  C   UNL     1       2.626  -0.433  -0.929  0.00  0.00    +0.044 C 
ATOM     18  C   UNL     1       1.295  -0.815  -0.333  0.00  0.00    -0.050 A 
ATOM     19  C   UNL     1       0.142  -0.177  -0.752  0.00  0.00    +0.003 A 
ATOM     20  C   UNL     1      -1.078  -0.527  -0.205  0.00  0.00    +0.004 A 
ATOM     21  C   UNL     1      -1.146  -1.514   0.760  0.00  0.00    -0.046 A 
ATOM     22  C   UNL     1       0.006  -2.152   1.178  0.00  0.00    -0.024 A 
ATOM     23  C   UNL     1       1.227  -1.805   0.629  0.00  0.00    +0.009 A 
ATOM     24  C   UNL     1      -2.477  -1.895   1.357  0.00  0.00    +0.044 C 
ENDBRANCH  16  22
ENDBRANCH   1  16
BRANCH  10  25
ATOM     25  C   UNL     1       4.087  -2.935   4.709  0.00  0.00    +0.156 C 
BRANCH  25  26
ATOM     26  C   UNL     1       4.891  -1.832   4.069  0.00  0.00    -0.013 C 
ATOM     27  C   UNL     1       4.795  -0.606   4.521  0.00  0.00    +0.005 C 
ENDBRANCH  25  26
ENDBRANCH  10  25
TORSDOF 5
