REMARK  Name = ZINC39442900
REMARK  5 active torsions:
REMARK  status: ('A' for Active; 'I' for Inactive)
REMARK    1  A    between atoms: C_1  and  C_2
REMARK    2  A    between atoms: C_6  and  C_8
REMARK    3  A    between atoms: C_13  and  C_14
REMARK    4  A    between atoms: N_19  and  C_21
REMARK    5  A    between atoms: C_21  and  C_22
REMARK                            x       y       z     vdW  Elec       q    Type
REMARK                         _______ _______ _______ _____ _____    ______ ____
ROOT
ATOM      1  C   UNL     1       2.714  -3.338   2.536  0.00  0.00    +0.020 C 
ATOM      2  C   UNL     1       3.033  -2.516   3.788  0.00  0.00    +0.006 C 
ATOM      3  C   UNL     1       4.524  -2.166   3.791  0.00  0.00    -0.018 C 
ATOM      4  C   UNL     1       5.345  -3.455   3.719  0.00  0.00    -0.078 C 
ATOM      5  N   UNL     1       5.014  -4.182   2.488  0.00  0.00    +0.383 N 
ATOM      6  C   UNL     1       3.602  -4.583   2.510  0.00  0.00    -0.069 C 
ATOM      7  H   UNL     1       5.180  -3.586   1.691  0.00  0.00    -0.081 HD
ENDROOT
BRANCH   1  12
ATOM      8  C   UNL     1       0.054  -2.845   2.489  0.00  0.00    +0.108 C 
ATOM      9  C   UNL     1      -1.114  -3.808   2.559  0.00  0.00    +0.121 C 
ATOM     10  N   UNL     1      -0.594  -4.988   2.649  0.00  0.00    -0.161 NA
ATOM     11  N   UNL     1       0.796  -4.957   2.650  0.00  0.00    -0.158 NA
ATOM     12  C   UNL     1       1.266  -3.752   2.562  0.00  0.00    +0.055 C 
BRANCH   8  18
ATOM     13  C   UNL     1      -0.018   1.503   0.010  0.00  0.00    +0.044 C 
ATOM     14  C   UNL     1       0.002  -0.004   0.002  0.00  0.00    -0.050 A 
ATOM     15  C   UNL     1       0.006  -0.689  -1.199  0.00  0.00    +0.003 A 
ATOM     16  C   UNL     1       0.025  -2.071  -1.207  0.00  0.00    +0.001 A 
ATOM     17  C   UNL     1       0.040  -2.768  -0.013  0.00  0.00    +0.004 A 
ATOM     18  C   UNL     1       0.037  -2.084   1.188  0.00  0.00    -0.033 A 
ATOM     19  C   UNL     1       0.023  -0.702   1.195  0.00  0.00    +0.008 A 
ENDBRANCH   8  18
ENDBRANCH   1  12
BRANCH   5  20
ATOM     20  C   UNL     1       5.860  -5.379   2.385  0.00  0.00    -0.043 C 
BRANCH  20  21
ATOM     21  C   UNL     1       7.300  -4.964   2.229  0.00  0.00    -0.063 A 
ATOM     22  C   UNL     1       7.830  -4.758   0.969  0.00  0.00    +0.005 A 
ATOM     23  C   UNL     1       9.146  -4.374   0.820  0.00  0.00    +0.046 A 
ATOM     24  C   UNL     1       9.954  -4.190   1.940  0.00  0.00    +0.124 A 
ATOM     25  C   UNL     1       9.412  -4.407   3.200  0.00  0.00    -0.002 A 
ATOM     26  C   UNL     1       8.095  -4.782   3.347  0.00  0.00    +0.009 A 
ATOM     27  C   UNL     1      10.518  -4.157   4.208  0.00  0.00    +0.080 C 
ATOM     28  C   UNL     1      11.778  -4.176   3.312  0.00  0.00    +0.234 C 
ATOM     29  O   UNL     1      11.258  -3.807   2.023  0.00  0.00    -0.491 OA
ENDBRANCH  20  21
ENDBRANCH   5  20
TORSDOF 4
