REMARK  Name = ZINC13392393
REMARK  5 active torsions:
REMARK  status: ('A' for Active; 'I' for Inactive)
REMARK    1  A    between atoms: C_3  and  C_26
REMARK    2  A    between atoms: C_4  and  N_9
REMARK    3  A    between atoms: C_6  and  C_7
REMARK    4  A    between atoms: C_10  and  C_12
REMARK    5  A    between atoms: C_13  and  C_14
REMARK                            x       y       z     vdW  Elec       q    Type
REMARK                         _______ _______ _______ _____ _____    ______ ____
ROOT
ATOM      1  N   UNL     1       2.344   8.412  -5.638  0.00  0.00    -0.281 N 
ATOM      2  C   UNL     1       1.680   8.238  -4.477  0.00  0.00    +0.241 C 
ATOM      3  O   UNL     1       1.384   9.202  -3.795  0.00  0.00    -0.270 OA
ATOM      4  H   UNL     1       2.651   7.641  -6.141  0.00  0.00    +0.155 HD
ENDROOT
BRANCH   1   8
ATOM      5  C   UNL     1       3.090  12.263  -7.074  0.00  0.00    +0.016 A 
ATOM      6  C   UNL     1       3.915  11.226  -7.445  0.00  0.00    +0.018 A 
ATOM      7  C   UNL     1       3.678   9.935  -6.965  0.00  0.00    +0.084 A 
ATOM      8  C   UNL     1       2.588   9.696  -6.114  0.00  0.00    +0.049 A 
ATOM      9  C   UNL     1       1.760  10.745  -5.743  0.00  0.00    +0.039 A 
ATOM     10  C   UNL     1       2.008  12.030  -6.222  0.00  0.00    +0.065 A 
BRANCH  10  11
ATOM     11  C   UNL     1       1.125  13.149  -5.826  0.00  0.00    +0.387 C 
ATOM     12  O   UNL     1       0.184  12.948  -5.085  0.00  0.00    -0.241 OA
ATOM     13  O   UNL     1       1.364  14.391  -6.288  0.00  0.00    -0.241 OA
ENDBRANCH  10  11
BRANCH   7  14
ATOM     14  C   UNL     1       4.567   8.825  -7.358  0.00  0.00    +0.388 C 
ATOM     15  O   UNL     1       4.306   7.688  -7.018  0.00  0.00    -0.241 OA
ATOM     16  O   UNL     1       5.668   9.072  -8.094  0.00  0.00    -0.241 OA
ENDBRANCH   7  14
ENDBRANCH   1   8
BRANCH   2  17
ATOM     17  C   UNL     1       1.317   6.892  -4.038  0.00  0.00    +0.068 C 
ATOM     18  C   UNL     1       0.652   6.718  -2.876  0.00  0.00    +0.013 C 
BRANCH  18  19
ATOM     19  C   UNL     1       0.286   5.365  -2.434  0.00  0.00    -0.020 A 
ATOM     20  C   UNL     1      -0.404   5.182  -1.228  0.00  0.00    +0.057 A 
ATOM     21  C   UNL     1      -0.742   3.908  -0.822  0.00  0.00    +0.164 A 
ATOM     22  C   UNL     1      -0.401   2.809  -1.605  0.00  0.00    +0.180 A 
ATOM     23  C   UNL     1       0.283   2.986  -2.800  0.00  0.00    +0.087 A 
ATOM     24  C   UNL     1       0.626   4.255  -3.216  0.00  0.00    +0.031 A 
ATOM     25 CL   UNL     1       0.706   1.610  -3.771  0.00  0.00    -0.080 Cl
ATOM     26  O   UNL     1      -0.743   1.556  -1.190  0.00  0.00    -0.487 OA
ATOM     27  C   UNL     1      -0.063   1.074  -0.029  0.00  0.00    +0.232 C 
ATOM     28  C   UNL     1      -0.751   1.557   1.238  0.00  0.00    +0.082 C 
ATOM     29  C   UNL     1      -0.684   3.069   1.392  0.00  0.00    +0.232 C 
ATOM     30  O   UNL     1      -1.415   3.717   0.350  0.00  0.00    -0.488 OA
ENDBRANCH  18  19
ENDBRANCH   2  17
TORSDOF 5
