REMARK  Name = ZINC36142952
REMARK  7 active torsions:
REMARK  status: ('A' for Active; 'I' for Inactive)
REMARK    1  A    between atoms: C_1  and  C_2
REMARK    2  A    between atoms: C_6  and  N_9
REMARK    3  A    between atoms: C_7  and  C_8
REMARK    4  A    between atoms: C_11  and  C_15
REMARK    5  A    between atoms: C_11  and  C_16
REMARK    6  A    between atoms: C_16  and  C_17
REMARK    7  A    between atoms: C_16  and  C_18
REMARK                            x       y       z     vdW  Elec       q    Type
REMARK                         _______ _______ _______ _____ _____    ______ ____
ROOT
ATOM      1  C   UNL     1      -0.018   1.503   0.010  0.00  0.00    +0.044 C 
ATOM      2  C   UNL     1       0.002  -0.004   0.002  0.00  0.00    -0.045 A 
ATOM      3  C   UNL     1       0.006  -0.684  -1.197  0.00  0.00    +0.018 A 
ATOM      4  C   UNL     1       0.023  -2.081  -1.201  0.00  0.00    +0.061 A 
ATOM      5  C   UNL     1       0.035  -2.792   0.007  0.00  0.00    +0.153 A 
ATOM      6  C   UNL     1       0.034  -2.086   1.210  0.00  0.00    +0.071 A 
ATOM      7  C   UNL     1       0.023  -0.701   1.200  0.00  0.00    -0.023 A 
ATOM      8  C   UNL     1       0.028   0.056   2.503  0.00  0.00    +0.046 C 
ATOM      9  O   UNL     1       0.040  -4.146   0.017  0.00  0.00    -0.483 OA
ATOM     10  C   UNL     1       0.512  -4.838  -1.139  0.00  0.00    +0.117 C 
ATOM     11  C   UNL     1      -0.231  -4.322  -2.380  0.00  0.00    +0.127 C 
ATOM     12  C   UNL     1       0.033  -2.829  -2.471  0.00  0.00    +0.171 C 
ATOM     13  O   UNL     1       0.239  -2.281  -3.533  0.00  0.00    -0.292 OA
ATOM     14  C   UNL     1       2.014  -4.593  -1.304  0.00  0.00    +0.056 C 
ENDROOT
BRANCH   6  15
ATOM     15  N   UNL     1       0.049  -2.777   2.428  0.00  0.00    -0.355 N 
ATOM     16  H   UNL     1       0.061  -3.747   2.435  0.00  0.00    +0.142 HD
ATOM     17  H   UNL     1       0.049  -2.286   3.264  0.00  0.00    +0.142 HD
ENDBRANCH   6  15
BRANCH  10  18
ATOM     18  C   UNL     1       0.255  -6.338  -0.977  0.00  0.00    +0.027 C 
ATOM     19  C   UNL     1       0.993  -6.851   0.262  0.00  0.00    +0.011 C 
ATOM     20  C   UNL     1      -1.247  -6.583  -0.814  0.00  0.00    +0.011 C 
ENDBRANCH  10  18
TORSDOF 2
