REMARK  Name = ZINC38675692
REMARK  11 active torsions:
REMARK  status: ('A' for Active; 'I' for Inactive)
REMARK    1  A    between atoms: C_1  and  C_2
REMARK    2  A    between atoms: C_2  and  C_3
REMARK    3  A    between atoms: C_3  and  C_5
REMARK    4  A    between atoms: C_3  and  C_6
REMARK    5  A    between atoms: C_6  and  C_7
REMARK    6  A    between atoms: C_11  and  S_15
REMARK    7  A    between atoms: S_15  and  C_16
REMARK    8  A    between atoms: C_16  and  C_17
REMARK    9  A    between atoms: N_19  and  C_20
REMARK   10  A    between atoms: C_21  and  C_25
REMARK   11  A    between atoms: C_29  and  C_31
REMARK                            x       y       z     vdW  Elec       q    Type
REMARK                         _______ _______ _______ _____ _____    ______ ____
ROOT
ATOM      1  C   UNL     1      -2.880  -2.943   0.191  0.00  0.00    -0.042 C 
ATOM      2  C   UNL     1      -3.496  -3.451  -0.884  0.00  0.00    +0.071 C 
ATOM      3  C   UNL     1      -4.814  -4.093  -0.680  0.00  0.00    +0.112 C 
ATOM      4  N   UNL     1      -5.467  -4.609  -1.690  0.00  0.00    -0.217 NA
ATOM      5  C   UNL     1      -4.971  -4.574  -2.927  0.00  0.00    +0.182 C 
ATOM      6  N   UNL     1      -3.805  -4.027  -3.223  0.00  0.00    -0.151 NA
ATOM      7  C   UNL     1      -3.022  -3.460  -2.306  0.00  0.00    +0.272 C 
ATOM      8  O   UNL     1      -1.951  -2.963  -2.614  0.00  0.00    -0.268 OA
ATOM      9  S   UNL     1      -5.124  -3.943   1.061  0.00  0.00    -0.098 S 
ATOM     10  C   UNL     1      -3.575  -3.069   1.527  0.00  0.00    +0.076 C 
ATOM     11  C   UNL     1      -3.882  -1.691   2.118  0.00  0.00    +0.024 C 
ENDROOT
BRANCH   1  12
ATOM     12  C   UNL     1      -1.536  -2.272   0.072  0.00  0.00    +0.036 C 
BRANCH  12  13
ATOM     13  C   UNL     1      -0.433  -3.279   0.403  0.00  0.00    -0.010 C 
ATOM     14  C   UNL     1      -0.411  -4.378  -0.660  0.00  0.00    +0.008 C 
BRANCH  13  16
ATOM     15  C   UNL     1       2.006  -3.542   0.877  0.00  0.00    +0.004 C 
ATOM     16  C   UNL     1       0.920  -2.564   0.425  0.00  0.00    +0.000 C 
ENDBRANCH  13  16
ENDBRANCH  12  13
ENDBRANCH   1  12
BRANCH   5  17
ATOM     17  S   UNL     1      -5.915  -5.293  -4.230  0.00  0.00    -0.079 S 
BRANCH  17  18
ATOM     18  C   UNL     1      -4.896  -5.030  -5.707  0.00  0.00    +0.173 C 
BRANCH  18  19
ATOM     19  C   UNL     1      -5.597  -5.606  -6.910  0.00  0.00    +0.228 C 
ATOM     20  O   UNL     1      -6.678  -6.141  -6.783  0.00  0.00    -0.275 OA
ATOM     21  N   UNL     1      -5.023  -5.527  -8.127  0.00  0.00    -0.279 N 
ATOM     22  H   UNL     1      -4.158  -5.099  -8.228  0.00  0.00    +0.155 HD
BRANCH  21  23
ATOM     23  C   UNL     1      -5.668  -6.056  -9.234  0.00  0.00    +0.084 A 
ATOM     24  C   UNL     1      -5.230  -6.072 -10.550  0.00  0.00    +0.065 A 
ATOM     25  C   UNL     1      -6.107  -6.694 -11.515  0.00  0.00    +0.022 A 
ATOM     26  C   UNL     1      -7.258  -7.192 -11.027  0.00  0.00    +0.048 A 
ATOM     27  S   UNL     1      -7.155  -6.833  -9.288  0.00  0.00    -0.081 S 
BRANCH  24  28
ATOM     28  C   UNL     1      -3.944  -5.486 -10.941  0.00  0.00    +0.244 C 
ATOM     29  O   UNL     1      -3.230  -4.970 -10.102  0.00  0.00    -0.270 OA
ATOM     30  N   UNL     1      -3.553  -5.520 -12.230  0.00  0.00    -0.325 N 
ATOM     31  H   UNL     1      -4.122  -5.932 -12.899  0.00  0.00    +0.145 HD
ATOM     32  H   UNL     1      -2.702  -5.133 -12.489  0.00  0.00    +0.145 HD
ENDBRANCH  24  28
ENDBRANCH  21  23
ENDBRANCH  18  19
ENDBRANCH  17  18
ENDBRANCH   5  17
TORSDOF 8
