REMARK  Name = ZINC36660314
REMARK  12 active torsions:
REMARK  status: ('A' for Active; 'I' for Inactive)
REMARK    1  A    between atoms: C_1  and  C_2
REMARK    2  A    between atoms: C_5  and  S_8
REMARK    3  A    between atoms: S_8  and  N_11
REMARK    4  A    between atoms: C_15  and  C_17
REMARK    5  A    between atoms: N_19  and  C_20
REMARK    6  A    between atoms: C_20  and  C_21
REMARK    7  A    between atoms: C_21  and  N_22
REMARK    8  A    between atoms: N_22  and  C_23
REMARK    9  A    between atoms: N_22  and  C_24
REMARK   10  A    between atoms: C_28  and  O_35
REMARK   11  A    between atoms: C_31  and  C_34
REMARK   12  A    between atoms: O_35  and  C_36
REMARK                            x       y       z     vdW  Elec       q    Type
REMARK                         _______ _______ _______ _____ _____    ______ ____
ROOT
ATOM      1  C   UNL     1       1.819  -6.302   2.047  0.00  0.00    +0.240 C 
ATOM      2  O   UNL     1       0.762  -6.804   1.724  0.00  0.00    -0.273 OA
ATOM      3  N   UNL     1       2.547  -6.846   3.042  0.00  0.00    -0.251 N 
ATOM      4  C   UNL     1       2.137  -8.031   3.633  0.00  0.00    +0.168 A 
ATOM      5  N   UNL     1       2.703  -8.703   4.608  0.00  0.00    -0.221 NA
ATOM      6  C   UNL     1       2.188  -9.856   5.089  0.00  0.00    +0.122 A 
ATOM      7  C   UNL     1       2.695 -10.674   6.130  0.00  0.00    +0.147 A 
ATOM      8  C   UNL     1       2.041 -11.826   6.498  0.00  0.00    +0.048 A 
ATOM      9  C   UNL     1       0.871 -12.226   5.869  0.00  0.00    +0.008 A 
ATOM     10  C   UNL     1       0.350 -11.451   4.850  0.00  0.00    -0.034 A 
ATOM     11  C   UNL     1       0.995 -10.297   4.475  0.00  0.00    +0.047 A 
ATOM     12  S   UNL     1       0.701  -9.029   3.266  0.00  0.00    -0.051 S 
ATOM     13  C   UNL     1      -0.920 -11.868   4.155  0.00  0.00    +0.045 C 
ENDROOT
BRANCH   1  18
ATOM     14  N   UNL     1       1.181  -4.322   0.776  0.00  0.00    -0.165 NA
ATOM     15  C   UNL     1       1.328  -4.264  -0.689  0.00  0.00    +0.110 C 
ATOM     16  C   UNL     1       2.844  -4.450  -0.944  0.00  0.00    +0.019 C 
ATOM     17  C   UNL     1       3.220  -5.482   0.152  0.00  0.00    +0.031 C 
ATOM     18  C   UNL     1       2.317  -5.071   1.334  0.00  0.00    +0.166 C 
BRANCH  14  19
ATOM     19  S   UNL     1      -0.054  -3.650   1.650  0.00  0.00    +0.062 S 
ATOM     20  O   UNL     1      -0.127  -4.371   2.873  0.00  0.00    -0.153 OA
ATOM     21  O   UNL     1      -1.161  -3.535   0.767  0.00  0.00    -0.153 OA
BRANCH  19  26
ATOM     22  C   UNL     1       1.612   1.975   3.063  0.00  0.00    +0.044 C 
ATOM     23  C   UNL     1       1.196   0.570   2.710  0.00  0.00    -0.050 A 
ATOM     24  C   UNL     1       0.508   0.327   1.535  0.00  0.00    +0.005 A 
ATOM     25  C   UNL     1       0.127  -0.962   1.212  0.00  0.00    +0.029 A 
ATOM     26  C   UNL     1       0.433  -2.007   2.062  0.00  0.00    +0.106 A 
ATOM     27  C   UNL     1       1.121  -1.765   3.236  0.00  0.00    +0.029 A 
ATOM     28  C   UNL     1       1.506  -0.477   3.558  0.00  0.00    +0.005 A 
ENDBRANCH  19  26
ENDBRANCH  14  19
ENDBRANCH   1  18
BRANCH   7  29
ATOM     29  O   UNL     1       3.840 -10.317   6.770  0.00  0.00    -0.493 OA
ATOM     30  C   UNL     1       4.300 -11.183   7.809  0.00  0.00    +0.277 C 
ENDBRANCH   7  29
BRANCH   3  31
ATOM     31  C   UNL     1       3.771  -6.184   3.500  0.00  0.00    +0.097 C 
BRANCH  31  32
ATOM     32  C   UNL     1       3.425  -5.174   4.597  0.00  0.00    -0.060 C 
BRANCH  32  33
ATOM     33  N   UNL     1       4.652  -4.511   5.056  0.00  0.00    +0.377 N 
ATOM     34  C   UNL     1       4.308  -3.459   6.022  0.00  0.00    -0.097 C 
ATOM     35  C   UNL     1       5.532  -5.497   5.699  0.00  0.00    -0.097 C 
ATOM     36  H   UNL     1       5.128  -4.100   4.267  0.00  0.00    -0.083 HD
ENDBRANCH  32  33
ENDBRANCH  31  32
ENDBRANCH   3  31
TORSDOF 7
