REMARK  Name = ZINC09229840
REMARK  10 active torsions:
REMARK  status: ('A' for Active; 'I' for Inactive)
REMARK    1  A    between atoms: C_1  and  C_2
REMARK    2  A    between atoms: C_2  and  C_4
REMARK    3  A    between atoms: C_2  and  O_24
REMARK    4  A    between atoms: N_6  and  N_7
REMARK    5  A    between atoms: N_7  and  C_8
REMARK    6  A    between atoms: C_8  and  N_10
REMARK    7  A    between atoms: C_11  and  C_13
REMARK    8  A    between atoms: C_14  and  C_15
REMARK    9  A    between atoms: C_18  and  N_21
REMARK   10  A    between atoms: O_24  and  C_25
REMARK                            x       y       z     vdW  Elec       q    Type
REMARK                         _______ _______ _______ _____ _____    ______ ____
ROOT
ATOM      1  N   UNL     1       2.505  -0.255  -2.807  0.00  0.00    -0.245 N 
ATOM      2  H   UNL     1       1.969  -0.632  -3.521  0.00  0.00    +0.172 HD
ENDROOT
BRANCH   1   5
ATOM      3  C   UNL     1       0.627  -0.284  -1.345  0.00  0.00    +0.270 C 
ATOM      4  O   UNL     1      -0.044  -0.756  -2.238  0.00  0.00    -0.270 OA
ATOM      5  N   UNL     1       1.928  -0.002  -1.556  0.00  0.00    -0.232 N 
ATOM      6  H   UNL     1       2.464   0.375  -0.841  0.00  0.00    +0.173 HD
BRANCH   3   8
ATOM      7  C   UNL     1       0.005   1.494   0.268  0.00  0.00    +0.062 C 
ATOM      8  C   UNL     1       0.005  -0.013   0.001  0.00  0.00    +0.257 C 
BRANCH   8   9
ATOM      9  O   UNL     1      -1.339  -0.499   0.012  0.00  0.00    -0.478 OA
BRANCH   9  10
ATOM     10  C   UNL     1      -1.869  -0.818   1.222  0.00  0.00    +0.140 A 
ATOM     11  C   UNL     1      -1.155  -0.562   2.383  0.00  0.00    +0.048 A 
ATOM     12  C   UNL     1      -1.696  -0.887   3.612  0.00  0.00    +0.023 A 
ATOM     13  C   UNL     1      -2.950  -1.468   3.686  0.00  0.00    +0.043 A 
ATOM     14  C   UNL     1      -3.665  -1.724   2.529  0.00  0.00    +0.043 A 
ATOM     15  C   UNL     1      -3.129  -1.395   1.298  0.00  0.00    +0.084 A 
ATOM     16 CL   UNL     1      -4.029  -1.711  -0.153  0.00  0.00    -0.080 Cl
ATOM     17 CL   UNL     1      -3.627  -1.875   5.232  0.00  0.00    -0.083 Cl
ENDBRANCH   9  10
ENDBRANCH   8   9
ENDBRANCH   3   8
ENDBRANCH   1   5
BRANCH   1  18
ATOM     18  C   UNL     1       3.806   0.027  -3.017  0.00  0.00    +0.153 C 
ATOM     19  S   UNL     1       4.512  -0.281  -4.546  0.00  0.00    -0.017 S 
BRANCH  18  20
ATOM     20  N   UNL     1       4.551   0.552  -2.025  0.00  0.00    -0.263 N 
ATOM     21  C   UNL     1       5.853   0.834  -2.235  0.00  0.00    +0.242 C 
ATOM     22  O   UNL     1       6.354   0.614  -3.322  0.00  0.00    -0.270 OA
ATOM     23  H   UNL     1       4.152   0.727  -1.158  0.00  0.00    +0.157 HD
BRANCH  21  24
ATOM     24  C   UNL     1       6.662   1.403  -1.158  0.00  0.00    +0.068 C 
ATOM     25  C   UNL     1       7.964   1.685  -1.369  0.00  0.00    +0.013 C 
BRANCH  25  26
ATOM     26  C   UNL     1       8.777   2.258  -0.284  0.00  0.00    -0.025 A 
ATOM     27  C   UNL     1       8.206   2.506   0.968  0.00  0.00    +0.010 A 
ATOM     28  C   UNL     1       8.975   3.043   1.978  0.00  0.00    +0.033 A 
ATOM     29  C   UNL     1      10.309   3.337   1.756  0.00  0.00    +0.126 A 
ATOM     30  C   UNL     1      10.882   3.095   0.520  0.00  0.00    +0.033 A 
ATOM     31  C   UNL     1      10.128   2.552  -0.499  0.00  0.00    +0.010 A 
BRANCH  29  32
ATOM     32  N   UNL     1      11.127   3.914   2.846  0.00  0.00    +0.056 N 
ATOM     33  O   UNL     1      10.630   4.127   3.927  0.00  0.00    -0.126 OA
ATOM     34  O   UNL     1      12.293   4.172   2.656  0.00  0.00    -0.126 OA
ENDBRANCH  29  32
ENDBRANCH  25  26
ENDBRANCH  21  24
ENDBRANCH  18  20
ENDBRANCH   1  18
TORSDOF 9
