REMARK  Name = ZINC08958695
REMARK  8 active torsions:
REMARK  status: ('A' for Active; 'I' for Inactive)
REMARK    1  A    between atoms: C_1  and  C_2
REMARK    2  A    between atoms: C_5  and  S_8
REMARK    3  A    between atoms: S_8  and  N_11
REMARK    4  A    between atoms: N_11  and  C_12
REMARK    5  A    between atoms: C_17  and  C_18
REMARK    6  A    between atoms: N_20  and  C_21
REMARK    7  A    between atoms: C_22  and  C_30
REMARK    8  A    between atoms: N_32  and  C_33
REMARK                            x       y       z     vdW  Elec       q    Type
REMARK                         _______ _______ _______ _____ _____    ______ ____
ROOT
ATOM      1  C   UNL     1       3.534   1.664  -0.197  0.00  0.00    +0.060 A 
ATOM      2  C   UNL     1       4.682   0.886  -0.277  0.00  0.00    +0.025 A 
ATOM      3  C   UNL     1       4.582  -0.479  -0.449  0.00  0.00    +0.002 A 
ATOM      4  C   UNL     1       3.339  -1.086  -0.540  0.00  0.00    +0.001 A 
ATOM      5  C   UNL     1       2.189  -0.332  -0.458  0.00  0.00    +0.015 A 
ATOM      6  C   UNL     1       2.273   1.052  -0.282  0.00  0.00    +0.059 A 
ENDROOT
BRANCH   6   7
ATOM      7  C   UNL     1       1.047   1.864  -0.194  0.00  0.00    +0.250 C 
ATOM      8  O   UNL     1       1.125   3.068  -0.041  0.00  0.00    -0.270 OA
ATOM      9  N   UNL     1      -0.161   1.273  -0.282  0.00  0.00    -0.275 N 
ATOM     10  H   UNL     1      -0.223   0.312  -0.404  0.00  0.00    +0.156 HD
BRANCH   9  11
ATOM     11  C   UNL     1      -1.314   2.037  -0.205  0.00  0.00    +0.085 A 
ATOM     12  C   UNL     1      -2.634   1.617  -0.285  0.00  0.00    +0.069 A 
ATOM     13  C   UNL     1      -3.670   2.630  -0.170  0.00  0.00    -0.023 A 
ATOM     14  C   UNL     1      -3.222   3.893  -0.004  0.00  0.00    -0.004 A 
ATOM     15  S   UNL     1      -1.457   3.751   0.007  0.00  0.00    -0.077 S 
ATOM     16  C   UNL     1      -4.049   5.134   0.136  0.00  0.00    +0.043 C 
ATOM     17  C   UNL     1      -5.483   4.812  -0.310  0.00  0.00    +0.005 C 
ATOM     18  C   UNL     1      -5.928   3.510   0.363  0.00  0.00    +0.005 C 
ATOM     19  C   UNL     1      -5.162   2.328  -0.233  0.00  0.00    +0.037 C 
BRANCH  12  20
ATOM     20  C   UNL     1      -2.972   0.203  -0.475  0.00  0.00    +0.246 C 
ATOM     21  O   UNL     1      -3.133  -0.520   0.491  0.00  0.00    -0.270 OA
ATOM     22  N   UNL     1      -3.104  -0.297  -1.720  0.00  0.00    -0.314 N 
ATOM     23  C   UNL     1      -3.442  -1.710  -1.910  0.00  0.00    +0.128 C 
ATOM     24  H   UNL     1      -2.976   0.279  -2.490  0.00  0.00    +0.149 HD
ENDBRANCH  12  20
ENDBRANCH   9  11
ENDBRANCH   6   7
BRANCH   1  25
ATOM     25  N   UNL     1       3.632   3.039  -0.028  0.00  0.00    -0.216 N 
ATOM     26  H   UNL     1       2.980   3.509   0.515  0.00  0.00    +0.174 HD
BRANCH  25  27
ATOM     27  S   UNL     1       4.862   3.876  -0.754  0.00  0.00    +0.072 S 
ATOM     28  O   UNL     1       4.617   5.254  -0.507  0.00  0.00    -0.150 OA
ATOM     29  O   UNL     1       6.071   3.237  -0.369  0.00  0.00    -0.150 OA
BRANCH  27  34
ATOM     30  C   UNL     1       4.303   3.065  -6.707  0.00  0.00    +0.044 C 
ATOM     31  C   UNL     1       4.443   3.268  -5.220  0.00  0.00    -0.050 A 
ATOM     32  C   UNL     1       3.807   4.330  -4.605  0.00  0.00    +0.005 A 
ATOM     33  C   UNL     1       3.935   4.516  -3.241  0.00  0.00    +0.029 A 
ATOM     34  C   UNL     1       4.699   3.639  -2.493  0.00  0.00    +0.109 A 
ATOM     35  C   UNL     1       5.338   2.580  -3.109  0.00  0.00    +0.029 A 
ATOM     36  C   UNL     1       5.206   2.391  -4.472  0.00  0.00    +0.005 A 
ENDBRANCH  27  34
ENDBRANCH  25  27
ENDBRANCH   1  25
TORSDOF 6
