REMARK  Name = ZINC22248783
REMARK  8 active torsions:
REMARK  status: ('A' for Active; 'I' for Inactive)
REMARK    1  A    between atoms: C_1  and  C_2
REMARK    2  A    between atoms: C_2  and  O_3
REMARK    3  A    between atoms: O_3  and  C_4
REMARK    4  A    between atoms: C_11  and  C_18
REMARK    5  A    between atoms: C_13  and  O_14
REMARK    6  A    between atoms: C_18  and  S_19
REMARK    7  A    between atoms: S_19  and  C_20
REMARK    8  A    between atoms: C_28  and  C_30
REMARK                            x       y       z     vdW  Elec       q    Type
REMARK                         _______ _______ _______ _____ _____    ______ ____
ROOT
ATOM      1  C   UNL     1      -8.188   2.350   4.877  0.00  0.00    +0.405 C 
ATOM      2  O   UNL     1      -8.815   2.026   3.887  0.00  0.00    -0.226 OA
ATOM      3  N   UNL     1      -6.841   2.368   4.846  0.00  0.00    -0.251 N 
ATOM      4  C   UNL     1      -6.168   2.124   3.649  0.00  0.00    +0.040 A 
ATOM      5  C   UNL     1      -4.938   1.464   3.668  0.00  0.00    +0.024 A 
ATOM      6  C   UNL     1      -4.267   1.219   2.506  0.00  0.00    +0.013 A 
ATOM      7  C   UNL     1      -4.819   1.626   1.285  0.00  0.00    +0.022 A 
ATOM      8  C   UNL     1      -4.117   1.381   0.023  0.00  0.00    -0.020 A 
ATOM      9  C   UNL     1      -4.700   1.806  -1.128  0.00  0.00    +0.092 A 
ATOM     10  C   UNL     1      -5.945   2.467  -1.081  0.00  0.00    +0.285 A 
ATOM     11  O   UNL     1      -6.580   2.693   0.079  0.00  0.00    -0.425 OA
ATOM     12  C   UNL     1      -6.056   2.297   1.259  0.00  0.00    +0.141 A 
ATOM     13  C   UNL     1      -6.725   2.539   2.449  0.00  0.00    +0.070 A 
ATOM     14  H   UNL     1      -6.273   2.576   5.764  0.00  0.00    +0.158 HD
ENDROOT
BRANCH  10  15
ATOM     15  O   UNL     1      -6.457   2.842  -2.121  0.00  0.00    -0.480 OA
ATOM     16  H   UNL     1      -7.428   3.359  -2.100  0.00  0.00    +0.295 HD
ENDBRANCH  10  15
BRANCH   1  17
ATOM     17  O   UNL     1      -8.841   2.690   6.005  0.00  0.00    -0.450 OA
BRANCH  17  19
ATOM     18  C   UNL     1     -10.851   3.063   7.327  0.00  0.00    +0.048 C 
ATOM     19  C   UNL     1     -10.292   2.647   5.965  0.00  0.00    +0.230 C 
ENDBRANCH  17  19
ENDBRANCH   1  17
BRANCH   8  20
ATOM     20  C   UNL     1      -2.788   0.673   0.002  0.00  0.00    +0.112 C 
BRANCH  20  21
ATOM     21  S   UNL     1      -1.454   1.888   0.140  0.00  0.00    -0.100 S 
BRANCH  21  22
ATOM     22  C   UNL     1      -0.056   0.816   0.089  0.00  0.00    +0.109 A 
ATOM     23  C   UNL     1       1.261   1.333   0.163  0.00  0.00    +0.032 A 
ATOM     24  C   UNL     1       1.517   2.702   0.283  0.00  0.00    +0.012 A 
ATOM     25  C   UNL     1       2.807   3.142   0.350  0.00  0.00    +0.001 A 
ATOM     26  C   UNL     1       3.871   2.245   0.301  0.00  0.00    +0.002 A 
ATOM     27  C   UNL     1       3.654   0.904   0.183  0.00  0.00    +0.028 A 
ATOM     28  C   UNL     1       2.342   0.419   0.112  0.00  0.00    +0.076 A 
ATOM     29  N   UNL     1       2.074  -0.891  -0.004  0.00  0.00    -0.224 NA
ATOM     30  C   UNL     1       0.833  -1.313  -0.068  0.00  0.00    +0.236 A 
ATOM     31  N   UNL     1      -0.208  -0.498  -0.024  0.00  0.00    -0.217 NA
BRANCH  30  32
ATOM     32  C   UNL     1       0.583  -2.793  -0.197  0.00  0.00    +0.452 C 
ATOM     33  F   UNL     1      -0.743  -3.010  -0.588  0.00  0.00    -0.163 F 
ATOM     34  F   UNL     1       1.446  -3.330  -1.158  0.00  0.00    -0.163 F 
ATOM     35  F   UNL     1       0.813  -3.414   1.036  0.00  0.00    -0.163 F 
ENDBRANCH  30  32
ENDBRANCH  21  22
ENDBRANCH  20  21
ENDBRANCH   8  20
TORSDOF 7
