REMARK  Name = ZINC09614652
REMARK  6 active torsions:
REMARK  status: ('A' for Active; 'I' for Inactive)
REMARK    1  A    between atoms: C_4  and  C_7
REMARK    2  A    between atoms: C_7  and  C_8
REMARK    3  A    between atoms: C_7  and  N_60
REMARK    4  A    between atoms: C_25  and  C_27
REMARK    5  A    between atoms: C_27  and  S_28
REMARK    6  A    between atoms: S_28  and  C_29
REMARK                            x       y       z     vdW  Elec       q    Type
REMARK                         _______ _______ _______ _____ _____    ______ ____
ROOT
ATOM      1  C   UNL     1       8.336  -1.967   4.647  0.00  0.00    -0.058 C 
ATOM      2  C   UNL     1       7.872  -1.319   3.340  0.00  0.00    +0.089 C 
ATOM      3  N   UNL     1       9.027  -1.130   2.452  0.00  0.00    -0.305 N 
ATOM      4  C   UNL     1       9.675  -2.415   2.155  0.00  0.00    +0.089 C 
ATOM      5  C   UNL     1      10.139  -3.063   3.462  0.00  0.00    -0.058 C 
ATOM      6  C   UNL     1       8.661  -0.487   1.300  0.00  0.00    +0.198 A 
ATOM      7  N   UNL     1       9.578  -0.315   0.311  0.00  0.00    -0.295 N 
ATOM      8  H   UNL     1      10.483  -0.645   0.423  0.00  0.00    +0.172 HD
ATOM      9  C   UNL     1       9.224   0.318  -0.828  0.00  0.00    +0.253 A 
ATOM     10  O   UNL     1      10.034   0.482  -1.726  0.00  0.00    -0.268 OA
ATOM     11  C   UNL     1       7.903   0.780  -0.962  0.00  0.00    +0.094 A 
ATOM     12  C   UNL     1       7.028   0.583   0.066  0.00  0.00    +0.060 A 
ATOM     13  N   UNL     1       7.426  -0.046   1.170  0.00  0.00    -0.220 NA
ATOM     14  N   UNL     1       8.965  -3.268   4.336  0.00  0.00    +0.389 N 
ATOM     15  H   UNL     1       8.284  -3.860   3.846  0.00  0.00    -0.080 HD
ENDROOT
BRANCH  14  16
ATOM     16  C   UNL     1       9.377  -3.942   5.586  0.00  0.00    -0.007 C 
BRANCH  16  20
ATOM     17  C   UNL     1       5.938  -4.505   8.057  0.00  0.00    +0.000 A 
ATOM     18  C   UNL     1       7.125  -4.067   8.614  0.00  0.00    +0.000 A 
ATOM     19  C   UNL     1       8.238  -3.885   7.814  0.00  0.00    +0.002 A 
ATOM     20  C   UNL     1       8.164  -4.141   6.458  0.00  0.00    -0.057 A 
ATOM     21  C   UNL     1       6.975  -4.574   5.900  0.00  0.00    +0.002 A 
ATOM     22  C   UNL     1       5.864  -4.761   6.700  0.00  0.00    +0.000 A 
ENDBRANCH  16  20
BRANCH  16  23
ATOM     23  C   UNL     1       9.975  -5.282   5.245  0.00  0.00    -0.057 A 
ATOM     24  C   UNL     1       9.368  -6.091   4.303  0.00  0.00    +0.002 A 
ATOM     25  C   UNL     1       9.920  -7.318   3.986  0.00  0.00    +0.000 A 
ATOM     26  C   UNL     1      11.074  -7.741   4.619  0.00  0.00    +0.000 A 
ATOM     27  C   UNL     1      11.678  -6.934   5.565  0.00  0.00    +0.000 A 
ATOM     28  C   UNL     1      11.129  -5.705   5.878  0.00  0.00    +0.002 A 
ENDBRANCH  16  23
ENDBRANCH  14  16
BRANCH  12  29
ATOM     29  C   UNL     1       5.608   1.074  -0.050  0.00  0.00    +0.133 C 
BRANCH  29  30
ATOM     30  S   UNL     1       4.508  -0.330  -0.356  0.00  0.00    -0.080 S 
BRANCH  30  31
ATOM     31  C   UNL     1       2.960   0.509  -0.446  0.00  0.00    +0.189 A 
ATOM     32  N   UNL     1       1.857  -0.192  -0.667  0.00  0.00    -0.230 NA
ATOM     33  C   UNL     1       0.679   0.407  -0.740  0.00  0.00    +0.115 A 
ATOM     34  C   UNL     1       0.609   1.782  -0.582  0.00  0.00    +0.039 A 
ATOM     35  C   UNL     1       1.782   2.484  -0.351  0.00  0.00    +0.115 A 
ATOM     36  N   UNL     1       2.927   1.825  -0.290  0.00  0.00    -0.230 NA
ENDBRANCH  30  31
ENDBRANCH  29  30
ENDBRANCH  12  29
TORSDOF 6
