REMARK  Name = ZINC15951946
REMARK  5 active torsions:
REMARK  status: ('A' for Active; 'I' for Inactive)
REMARK    1  A    between atoms: C_1  and  C_2
REMARK    2  A    between atoms: C_5  and  C_8
REMARK    3  A    between atoms: C_8  and  C_10
REMARK    4  A    between atoms: C_8  and  N_11
REMARK    5  A    between atoms: C_12  and  C_14
REMARK                            x       y       z     vdW  Elec       q    Type
REMARK                         _______ _______ _______ _____ _____    ______ ____
ROOT
ATOM      1  C   UNL     1      -2.100  -6.581   2.047  0.00  0.00    +0.097 A 
ATOM      2  C   UNL     1      -2.383  -5.807   3.162  0.00  0.00    +0.030 A 
ATOM      3  C   UNL     1      -3.219  -6.407   4.205  0.00  0.00    +0.019 A 
ATOM      4  C   UNL     1      -3.769  -5.619   5.223  0.00  0.00    +0.026 A 
ATOM      5  C   UNL     1      -4.554  -6.206   6.190  0.00  0.00    +0.019 A 
ATOM      6  C   UNL     1      -4.802  -7.572   6.159  0.00  0.00    +0.019 A 
ATOM      7  C   UNL     1      -4.266  -8.361   5.162  0.00  0.00    +0.048 A 
ATOM      8  C   UNL     1      -3.470  -7.791   4.179  0.00  0.00    +0.137 A 
ATOM      9  O   UNL     1      -2.931  -8.556   3.198  0.00  0.00    -0.439 OA
ATOM     10  C   UNL     1      -2.675  -7.944   2.011  0.00  0.00    +0.205 A 
ATOM     11  N   UNL     1      -2.924  -8.540   0.875  0.00  0.00    -0.369 N 
ATOM     12 BR   UNL     1      -5.299  -5.147   7.569  0.00  0.00    -0.050 Br
ATOM     13  H   UNL     1      -2.696  -8.104   0.039  0.00  0.00    +0.159 HD
ATOM     14  H   UNL     1      -3.335  -9.418   0.869  0.00  0.00    +0.159 HD
ENDROOT
BRANCH   1  16
ATOM     15  N   UNL     1      -0.721  -4.840   1.032  0.00  0.00    -0.305 N 
ATOM     16  C   UNL     1      -1.271  -6.067   0.945  0.00  0.00    +0.250 C 
ATOM     17  O   UNL     1      -1.081  -6.751  -0.043  0.00  0.00    -0.270 OA
ATOM     18  H   UNL     1      -0.937  -4.263   1.781  0.00  0.00    +0.150 HD
BRANCH  15  19
ATOM     19  C   UNL     1       0.203  -4.376  -0.007  0.00  0.00    +0.100 C 
ATOM     20  C   UNL     1       1.615  -4.871   0.309  0.00  0.00    +0.033 C 
BRANCH  19  25
ATOM     21  C   UNL     1       0.172   1.400  -0.171  0.00  0.00    +0.044 C 
ATOM     22  C   UNL     1       0.180  -0.106  -0.128  0.00  0.00    -0.050 A 
ATOM     23  C   UNL     1       0.228  -0.831  -1.304  0.00  0.00    +0.004 A 
ATOM     24  C   UNL     1       0.236  -2.213  -1.265  0.00  0.00    +0.006 A 
ATOM     25  C   UNL     1       0.195  -2.870  -0.050  0.00  0.00    -0.027 A 
ATOM     26  C   UNL     1       0.148  -2.145   1.127  0.00  0.00    +0.006 A 
ATOM     27  C   UNL     1       0.145  -0.764   1.088  0.00  0.00    +0.004 A 
ENDBRANCH  19  25
ENDBRANCH  15  19
ENDBRANCH   1  16
TORSDOF 3
