REMARK  Name = ZINC37605711
REMARK  11 active torsions:
REMARK  status: ('A' for Active; 'I' for Inactive)
REMARK    1  A    between atoms: C_1  and  C_2
REMARK    2  A    between atoms: C_2  and  C_3
REMARK    3  A    between atoms: C_11  and  O_23
REMARK    4  A    between atoms: C_14  and  C_16
REMARK    5  A    between atoms: C_19  and  C_22
REMARK    6  A    between atoms: O_23  and  C_24
REMARK    7  A    between atoms: C_24  and  C_25
REMARK    8  A    between atoms: C_28  and  C_30
REMARK    9  A    between atoms: N_32  and  C_33
REMARK   10  A    between atoms: N_32  and  C_34
REMARK   11  A    between atoms: C_34  and  C_35
REMARK                            x       y       z     vdW  Elec       q    Type
REMARK                         _______ _______ _______ _____ _____    ______ ____
ROOT
ATOM      1  C   UNL     1       0.642   0.567   3.981  0.00  0.00    +0.216 C 
ATOM      2  O   UNL     1       1.361   1.180   4.741  0.00  0.00    -0.276 OA
ATOM      3  N   UNL     1       0.841  -0.751   3.781  0.00  0.00    -0.290 N 
ATOM      4  C   UNL     1      -0.063  -1.542   2.930  0.00  0.00    +0.113 C 
ATOM      5  C   UNL     1       0.739  -2.041   1.729  0.00  0.00    +0.054 C 
ATOM      6  C   UNL     1       2.050  -2.637   2.169  0.00  0.00    -0.040 A 
ATOM      7  C   UNL     1       2.691  -3.501   1.289  0.00  0.00    +0.007 A 
ATOM      8  C   UNL     1       3.899  -4.075   1.623  0.00  0.00    +0.046 A 
ATOM      9  C   UNL     1       4.483  -3.788   2.848  0.00  0.00    +0.121 A 
ATOM     10  C   UNL     1       3.842  -2.931   3.727  0.00  0.00    +0.051 A 
ATOM     11  C   UNL     1       2.624  -2.359   3.390  0.00  0.00    -0.016 A 
ATOM     12  C   UNL     1       1.971  -1.454   4.398  0.00  0.00    +0.137 C 
ENDROOT
BRANCH  12  13
ATOM     13  C   UNL     1       2.978  -0.447   4.893  0.00  0.00    -0.023 A 
ATOM     14  C   UNL     1       3.447   0.536   4.042  0.00  0.00    +0.006 A 
ATOM     15  C   UNL     1       4.370   1.460   4.496  0.00  0.00    +0.004 A 
ATOM     16  C   UNL     1       4.824   1.399   5.800  0.00  0.00    -0.050 A 
ATOM     17  C   UNL     1       4.355   0.416   6.651  0.00  0.00    +0.004 A 
ATOM     18  C   UNL     1       3.429  -0.504   6.198  0.00  0.00    +0.006 A 
ATOM     19  C   UNL     1       5.832   2.405   6.294  0.00  0.00    +0.044 C 
ENDBRANCH  12  13
BRANCH   1  21
ATOM     20  C   UNL     1      -0.481   2.754   3.661  0.00  0.00    +0.013 C 
ATOM     21  C   UNL     1      -0.474   1.278   3.259  0.00  0.00    +0.092 C 
ENDBRANCH   1  21
BRANCH   9  22
ATOM     22  O   UNL     1       5.675  -4.346   3.185  0.00  0.00    -0.484 OA
BRANCH  22  23
ATOM     23  C   UNL     1       6.276  -5.221   2.227  0.00  0.00    +0.303 C 
BRANCH  23  24
ATOM     24  C   UNL     1       7.582  -5.740   2.770  0.00  0.00    +0.143 A 
ATOM     25  C   UNL     1       7.739  -6.867   3.499  0.00  0.00    +0.049 A 
ATOM     26  C   UNL     1       9.106  -6.978   3.798  0.00  0.00    +0.055 A 
ATOM     27  C   UNL     1       9.722  -5.900   3.229  0.00  0.00    +0.190 A 
ATOM     28  O   UNL     1       8.779  -5.163   2.605  0.00  0.00    -0.452 OA
BRANCH  27  29
ATOM     29  C   UNL     1      11.156  -5.599   3.282  0.00  0.00    +0.282 C 
ATOM     30  O   UNL     1      11.896  -6.285   3.963  0.00  0.00    -0.267 OA
ATOM     31  N   UNL     1      11.654  -4.564   2.577  0.00  0.00    -0.291 N 
ATOM     32  C   UNL     1      10.785  -3.811   1.670  0.00  0.00    +0.133 C 
BRANCH  31  33
ATOM     33  C   UNL     1      13.064  -4.192   2.719  0.00  0.00    +0.182 C 
BRANCH  33  34
ATOM     34  C   UNL     1      13.887  -4.949   1.708  0.00  0.00    +0.122 A 
ATOM     35  C   UNL     1      14.180  -4.534   0.463  0.00  0.00    +0.046 A 
ATOM     36  C   UNL     1      14.968  -5.546  -0.132  0.00  0.00    +0.041 A 
ATOM     37  C   UNL     1      15.109  -6.520   0.786  0.00  0.00    +0.195 A 
ATOM     38  O   UNL     1      14.457  -6.150   1.901  0.00  0.00    -0.466 OA
ENDBRANCH  33  34
ENDBRANCH  31  33
ENDBRANCH  27  29
ENDBRANCH  23  24
ENDBRANCH  22  23
ENDBRANCH   9  22
TORSDOF 8
