REMARK  Name = ZINC63118768
REMARK  4 active torsions:
REMARK  status: ('A' for Active; 'I' for Inactive)
REMARK    1  A    between atoms: C_1  and  C_2
REMARK    2  A    between atoms: C_10  and  C_17
REMARK    3  A    between atoms: C_17  and  C_18
REMARK    4  A    between atoms: C_17  and  C_19
REMARK                            x       y       z     vdW  Elec       q    Type
REMARK                         _______ _______ _______ _____ _____    ______ ____
ROOT
ATOM      1  C   UNL     1       0.130   1.516   0.028  0.00  0.00    +0.065 C 
ATOM      2  C   UNL     1       0.122   0.009   0.014  0.00  0.00    +0.039 A 
ATOM      3  C   UNL     1       0.130  -0.659  -1.205  0.00  0.00    +0.023 A 
ATOM      4  C   UNL     1       0.123  -2.027  -1.233  0.00  0.00    +0.012 A 
ATOM      5  C   UNL     1       0.107  -2.717  -0.008  0.00  0.00    +0.003 A 
ATOM      6  C   UNL     1       0.099  -4.129   0.032  0.00  0.00    +0.011 A 
ATOM      7  C   UNL     1       0.085  -4.796   1.205  0.00  0.00    +0.011 A 
ATOM      8  C   UNL     1       0.076  -4.110   2.440  0.00  0.00    +0.003 A 
ATOM      9  C   UNL     1       0.061  -4.814   3.658  0.00  0.00    +0.017 A 
ATOM     10  C   UNL     1       0.054  -4.099   4.821  0.00  0.00    -0.005 A 
ATOM     11  C   UNL     1       0.061  -2.701   4.777  0.00  0.00    +0.120 A 
ATOM     12  N   UNL     1       0.075  -2.050   3.629  0.00  0.00    -0.230 NA
ATOM     13  C   UNL     1       0.083  -2.699   2.467  0.00  0.00    +0.099 A 
ATOM     14  C   UNL     1       0.099  -1.972   1.192  0.00  0.00    +0.097 A 
ATOM     15  N   UNL     1       0.112  -0.643   1.155  0.00  0.00    -0.250 NA
ATOM     16  N   UNL     1       0.053  -1.984   5.965  0.00  0.00    -0.343 N 
ATOM     17  H   UNL     1       0.138  -2.448   6.813  0.00  0.00    +0.144 HD
ATOM     18  H   UNL     1      -0.036  -1.018   5.949  0.00  0.00    +0.144 HD
ENDROOT
BRANCH  10  19
ATOM     19  C   UNL     1       0.038  -4.814   6.147  0.00  0.00    +0.016 C 
ATOM     20  C   UNL     1      -1.277  -5.583   6.296  0.00  0.00    +0.012 C 
ATOM     21  C   UNL     1       1.211  -5.794   6.213  0.00  0.00    +0.012 C 
ENDBRANCH  10  19
TORSDOF 1
