REMARK  Name = ZINC20354516
REMARK  6 active torsions:
REMARK  status: ('A' for Active; 'I' for Inactive)
REMARK    1  A    between atoms: C_1  and  C_2
REMARK    2  A    between atoms: C_6  and  N_9
REMARK    3  A    between atoms: C_7  and  C_8
REMARK    4  A    between atoms: C_10  and  N_20
REMARK    5  A    between atoms: C_11  and  N_18
REMARK    6  A    between atoms: N_18  and  C_19
REMARK                            x       y       z     vdW  Elec       q    Type
REMARK                         _______ _______ _______ _____ _____    ______ ____
ROOT
ATOM      1  N   UNL     1      -2.458   3.824   0.043  0.00  0.00    -0.248 N 
ATOM      2  C   UNL     1      -3.045   4.154   1.246  0.00  0.00    +0.131 A 
ATOM      3  C   UNL     1      -4.237   4.824   1.248  0.00  0.00    +0.131 A 
ATOM      4  C   UNL     1      -4.834   5.159   0.019  0.00  0.00    +0.277 A 
ATOM      5  O   UNL     1      -5.897   5.757  -0.004  0.00  0.00    -0.266 OA
ATOM      6  N   UNL     1      -4.224   4.816  -1.133  0.00  0.00    -0.273 N 
ATOM      7  H   UNL     1      -4.687   5.072  -2.098  0.00  0.00    +0.173 HD
ATOM      8  C   UNL     1      -3.049   4.162  -1.117  0.00  0.00    +0.335 A 
ATOM      9  O   UNL     1      -2.514   3.867  -2.169  0.00  0.00    -0.246 OA
ENDROOT
BRANCH   1  15
ATOM     10  C   UNL     1       2.458   3.932   0.000  0.00  0.00    +0.044 C 
ATOM     11  C   UNL     1       1.161   3.166   0.008  0.00  0.00    -0.046 A 
ATOM     12  C   UNL     1       1.176   1.783   0.000  0.00  0.00    +0.004 A 
ATOM     13  C   UNL     1      -0.013   1.076   0.008  0.00  0.00    +0.002 A 
ATOM     14  C   UNL     1      -1.218   1.749   0.017  0.00  0.00    +0.026 A 
ATOM     15  C   UNL     1      -1.236   3.138   0.029  0.00  0.00    +0.056 A 
ATOM     16  C   UNL     1      -0.041   3.845   0.022  0.00  0.00    -0.024 A 
ATOM     17  C   UNL     1      -0.056   5.352   0.030  0.00  0.00    +0.046 C 
ENDBRANCH   1  15
BRANCH   3  18
ATOM     18  N   UNL     1      -4.861   5.175   2.467  0.00  0.00    -0.340 N 
ATOM     19  C   UNL     1      -6.124   5.885   2.228  0.00  0.00    +0.125 C 
ATOM     20  H   UNL     1      -4.523   4.986   3.497  0.00  0.00    +0.146 HD
ENDBRANCH   3  18
BRANCH   2  21
ATOM     21  N   UNL     1      -2.437   3.812   2.433  0.00  0.00    -0.342 N 
ATOM     22  H   UNL     1      -2.911   4.078   3.389  0.00  0.00    +0.144 HD
ATOM     23  H   UNL     1      -1.479   3.272   2.425  0.00  0.00    +0.144 HD
ENDBRANCH   2  21
TORSDOF 3
