REMARK  Name = ZINC00618752
REMARK  2 active torsions:
REMARK  status: ('A' for Active; 'I' for Inactive)
REMARK    1  A    between atoms: C_4  and  C_15
REMARK    2  A    between atoms: C_6  and  C_9
REMARK                            x       y       z     vdW  Elec       q    Type
REMARK                         _______ _______ _______ _____ _____    ______ ____
ROOT
ATOM      1  C   UNL     1      -0.753   1.593  -1.232  0.00  0.00    +0.001 C 
ATOM      2  C   UNL     1      -0.773   3.123  -1.223  0.00  0.00    +0.001 C 
ATOM      3  C   UNL     1      -1.490   3.616   0.036  0.00  0.00    +0.015 C 
ATOM      4  C   UNL     1      -0.750   3.109   1.275  0.00  0.00    +0.112 C 
ATOM      5  C   UNL     1      -0.729   1.579   1.267  0.00  0.00    +0.060 C 
ATOM      6  C   UNL     1      -0.013   1.086   0.008  0.00  0.00    +0.011 C 
ENDROOT
BRANCH   5   7
ATOM      7  C   UNL     1       0.000   1.080   2.488  0.00  0.00    +0.108 A 
ATOM      8  N   UNL     1       1.241   1.289   2.877  0.00  0.00    -0.144 NA
ATOM      9  N   UNL     1       1.705   0.792   3.940  0.00  0.00    -0.126 NA
ATOM     10  C   UNL     1       0.968   0.027   4.734  0.00  0.00    +0.179 A 
ATOM     11  S   UNL     1      -0.576   0.041   3.827  0.00  0.00    -0.036 S 
ATOM     12  N   UNL     1       1.297  -0.600   5.926  0.00  0.00    -0.336 N 
ATOM     13  H   UNL     1       2.189  -0.504   6.294  0.00  0.00    +0.144 HD
ATOM     14  H   UNL     1       0.634  -1.133   6.393  0.00  0.00    +0.144 HD
ENDBRANCH   5   7
BRANCH   4  15
ATOM     15  C   UNL     1      -1.455   3.595   2.515  0.00  0.00    +0.360 C 
ATOM     16  O   UNL     1      -1.896   2.800   3.310  0.00  0.00    -0.246 OA
ATOM     17  O   UNL     1      -1.593   4.912   2.736  0.00  0.00    -0.246 OA
ENDBRANCH   4  15
TORSDOF 2
