REMARK  Name = ZINC41586377
REMARK  15 active torsions:
REMARK  status: ('A' for Active; 'I' for Inactive)
REMARK    1  A    between atoms: C_1  and  C_2
REMARK    2  A    between atoms: C_2  and  O_3
REMARK    3  A    between atoms: O_3  and  C_4
REMARK    4  A    between atoms: C_4  and  C_6
REMARK    5  A    between atoms: N_11  and  C_13
REMARK    6  A    between atoms: C_13  and  C_14
REMARK    7  A    between atoms: C_15  and  O_38
REMARK    8  A    between atoms: C_17  and  C_37
REMARK    9  A    between atoms: C_22  and  C_23
REMARK   10  A    between atoms: C_25  and  O_33
REMARK   11  A    between atoms: C_26  and  O_31
REMARK   12  A    between atoms: C_28  and  O_29
REMARK   13  A    between atoms: O_29  and  C_30
REMARK   14  A    between atoms: O_31  and  C_32
REMARK   15  A    between atoms: O_33  and  C_34
REMARK                            x       y       z     vdW  Elec       q    Type
REMARK                         _______ _______ _______ _____ _____    ______ ____
ROOT
ATOM      1  C   UNL     1      -4.910  -7.668  -0.377  0.00  0.00    +0.020 A 
ATOM      2  C   UNL     1      -5.467  -8.337   0.701  0.00  0.00    +0.122 A 
ATOM      3  C   UNL     1      -6.705  -8.962   0.584  0.00  0.00    +0.050 A 
ATOM      4  C   UNL     1      -7.385  -8.921  -0.601  0.00  0.00    -0.033 A 
ATOM      5  C   UNL     1      -6.837  -8.252  -1.695  0.00  0.00    +0.071 A 
ATOM      6  C   UNL     1      -5.591  -7.613  -1.587  0.00  0.00    +0.145 A 
ATOM      7  O   UNL     1      -5.274  -7.032  -2.765  0.00  0.00    -0.451 OA
ATOM      8  C   UNL     1      -6.238  -7.226  -3.696  0.00  0.00    +0.176 C 
ATOM      9  C   UNL     1      -6.221  -6.770  -4.977  0.00  0.00    +0.062 C 
ATOM     10  C   UNL     1      -7.300  -8.028  -3.076  0.00  0.00    +0.232 C 
ATOM     11  O   UNL     1      -8.339  -8.413  -3.586  0.00  0.00    -0.283 OA
ATOM     12  C   UNL     1      -8.725  -9.600  -0.725  0.00  0.00    +0.045 C 
ENDROOT
BRANCH   9  13
ATOM     13  C   UNL     1      -5.021  -6.114  -5.504  0.00  0.00    +0.024 A 
ATOM     14  C   UNL     1      -3.792  -6.257  -4.844  0.00  0.00    +0.061 A 
ATOM     15  C   UNL     1      -2.668  -5.637  -5.345  0.00  0.00    +0.162 A 
ATOM     16  C   UNL     1      -2.750  -4.867  -6.507  0.00  0.00    +0.165 A 
ATOM     17  C   UNL     1      -3.961  -4.721  -7.166  0.00  0.00    +0.095 A 
ATOM     18  C   UNL     1      -5.097  -5.343  -6.677  0.00  0.00    +0.131 A 
BRANCH  18  19
ATOM     19  O   UNL     1      -6.281  -5.204  -7.325  0.00  0.00    -0.494 OA
ATOM     20  C   UNL     1      -6.282  -4.406  -8.511  0.00  0.00    +0.277 C 
ENDBRANCH  18  19
BRANCH  16  21
ATOM     21  O   UNL     1      -1.638  -4.258  -6.995  0.00  0.00    -0.491 OA
ATOM     22  C   UNL     1      -1.791  -3.486  -8.187  0.00  0.00    +0.277 C 
ENDBRANCH  16  21
BRANCH  15  23
ATOM     23  O   UNL     1      -1.475  -5.775  -4.706  0.00  0.00    -0.491 OA
ATOM     24  C   UNL     1      -1.462  -6.576  -3.522  0.00  0.00    +0.277 C 
ENDBRANCH  15  23
ENDBRANCH   9  13
BRANCH   2  25
ATOM     25  O   UNL     1      -4.798  -8.383   1.882  0.00  0.00    -0.506 OA
ATOM     26  H   UNL     1      -5.005  -7.652   2.479  0.00  0.00    +0.292 HD
ENDBRANCH   2  25
BRANCH   1  27
ATOM     27  C   UNL     1      -3.569  -6.996  -0.236  0.00  0.00    -0.036 C 
BRANCH  27  32
ATOM     28  C   UNL     1      -2.671  -3.454   0.623  0.00  0.00    +0.081 C 
ATOM     29  C   UNL     1      -3.302  -3.389   2.017  0.00  0.00    +0.011 C 
ATOM     30  C   UNL     1      -4.615  -4.177   2.010  0.00  0.00    -0.018 C 
ATOM     31  C   UNL     1      -4.338  -5.615   1.566  0.00  0.00    -0.078 C 
ATOM     32  N   UNL     1      -3.760  -5.611   0.217  0.00  0.00    +0.383 N 
ATOM     33  C   UNL     1      -2.466  -4.919   0.230  0.00  0.00    -0.064 C 
ATOM     34  H   UNL     1      -4.388  -5.137  -0.415  0.00  0.00    -0.081 HD
BRANCH  28  35
ATOM     35  C   UNL     1      -1.340  -2.747   0.639  0.00  0.00    +0.308 C 
ATOM     36  O   UNL     1      -0.331  -3.351   0.362  0.00  0.00    -0.251 OA
BRANCH  35  37
ATOM     37  O   UNL     1      -1.276  -1.445   0.961  0.00  0.00    -0.465 OA
BRANCH  37  39
ATOM     38  C   UNL     1      -0.108   0.636   1.344  0.00  0.00    +0.048 C 
ATOM     39  C   UNL     1       0.018  -0.839   0.956  0.00  0.00    +0.229 C 
ENDBRANCH  37  39
ENDBRANCH  35  37
ENDBRANCH  28  35
ENDBRANCH  27  32
ENDBRANCH   1  27
TORSDOF 10
