REMARK  Name = ZINC58018957
REMARK  6 active torsions:
REMARK  status: ('A' for Active; 'I' for Inactive)
REMARK    1  A    between atoms: C_1  and  C_2
REMARK    2  A    between atoms: C_2  and  C_3
REMARK    3  A    between atoms: N_9  and  C_10
REMARK    4  A    between atoms: C_10  and  C_11
REMARK    5  A    between atoms: N_16  and  S_19
REMARK    6  A    between atoms: S_19  and  C_22
REMARK                            x       y       z     vdW  Elec       q    Type
REMARK                         _______ _______ _______ _____ _____    ______ ____
ROOT
ATOM      1  C   UNL     1      -2.726   1.387  -2.863  0.00  0.00    +0.199 C 
ATOM      2  O   UNL     1      -3.111   0.475  -3.564  0.00  0.00    -0.278 OA
ATOM      3  N   UNL     1      -2.882   2.662  -3.271  0.00  0.00    -0.300 N 
ATOM      4  C   UNL     1      -2.415   3.777  -2.435  0.00  0.00    +0.125 C 
ATOM      5  C   UNL     1      -1.461   4.645  -3.265  0.00  0.00    +0.128 C 
ATOM      6  N   UNL     1      -2.100   4.946  -4.554  0.00  0.00    -0.174 NA
ATOM      7  C   UNL     1      -2.567   3.831  -5.390  0.00  0.00    +0.128 C 
ATOM      8  C   UNL     1      -3.516   2.962  -4.563  0.00  0.00    +0.125 C 
ENDROOT
BRANCH   6   9
ATOM      9  S   UNL     1      -2.292   6.513  -5.055  0.00  0.00    +0.061 S 
ATOM     10  O   UNL     1      -3.374   6.515  -5.975  0.00  0.00    -0.153 OA
ATOM     11  O   UNL     1      -2.286   7.317  -3.883  0.00  0.00    -0.153 OA
BRANCH   9  12
ATOM     12  C   UNL     1      -0.850   6.946  -5.971  0.00  0.00    +0.106 A 
ATOM     13  C   UNL     1       0.241   7.497  -5.324  0.00  0.00    +0.029 A 
ATOM     14  C   UNL     1       1.370   7.836  -6.044  0.00  0.00    +0.006 A 
ATOM     15  C   UNL     1       1.413   7.626  -7.412  0.00  0.00    -0.044 A 
ATOM     16  C   UNL     1       0.322   7.076  -8.059  0.00  0.00    -0.042 A 
ATOM     17  C   UNL     1      -0.807   6.731  -7.334  0.00  0.00    +0.032 A 
ATOM     18  C   UNL     1       0.614   6.950  -9.539  0.00  0.00    +0.036 C 
ATOM     19  C   UNL     1       1.820   7.879  -9.793  0.00  0.00    +0.009 C 
ATOM     20  C   UNL     1       2.513   7.908  -8.414  0.00  0.00    +0.036 C 
ENDBRANCH   9  12
ENDBRANCH   6   9
BRANCH   1  21
ATOM     21  C   UNL     1      -2.074   1.094  -1.537  0.00  0.00    +0.019 C 
BRANCH  21  27
ATOM     22  C   UNL     1      -1.250  -0.648  -0.112  0.00  0.00    -0.068 C 
ATOM     23  C   UNL     1      -1.126  -2.163   0.068  0.00  0.00    -0.015 C 
ATOM     24  C   UNL     1      -2.525  -2.773   0.193  0.00  0.00    -0.003 C 
ATOM     25  C   UNL     1      -3.346  -2.401  -1.044  0.00  0.00    -0.019 C 
ATOM     26  C   UNL     1      -3.389  -0.878  -1.182  0.00  0.00    -0.078 C 
ATOM     27  N   UNL     1      -2.023  -0.358  -1.326  0.00  0.00    +0.387 N 
ATOM     28  H   UNL     1      -1.579  -0.796  -2.119  0.00  0.00    -0.081 HD
BRANCH  22  30
ATOM     29  C   UNL     1       0.928  -0.277   1.054  0.00  0.00    +0.002 C 
ATOM     30  C   UNL     1       0.145  -0.034  -0.238  0.00  0.00    -0.019 C 
ENDBRANCH  22  30
ENDBRANCH  21  27
ENDBRANCH   1  21
TORSDOF 5
