REMARK  Name = ZINC44713843
REMARK  8 active torsions:
REMARK  status: ('A' for Active; 'I' for Inactive)
REMARK    1  A    between atoms: C_1  and  C_2
REMARK    2  A    between atoms: C_3  and  C_9
REMARK    3  A    between atoms: C_4  and  C_8
REMARK    4  A    between atoms: C_9  and  C_11
REMARK    5  A    between atoms: C_9  and  N_12
REMARK    6  A    between atoms: C_13  and  C_15
REMARK    7  A    between atoms: C_26  and  C_28
REMARK    8  A    between atoms: C_28  and  C_34
REMARK                            x       y       z     vdW  Elec       q    Type
REMARK                         _______ _______ _______ _____ _____    ______ ____
ROOT
ATOM      1  C   UNL     1       2.521  -1.356  -5.236  0.00  0.00    +0.100 C 
ATOM      2  C   UNL     1       3.828  -1.510  -4.426  0.00  0.00    +0.121 C 
ATOM      3  N   UNL     1       4.909  -1.387  -5.432  0.00  0.00    -0.300 N 
ATOM      4  C   UNL     1       4.440  -0.319  -6.348  0.00  0.00    +0.115 C 
ATOM      5  C   UNL     1       2.927  -0.574  -6.496  0.00  0.00    -0.004 C 
ATOM      6  C   UNL     1       2.173   0.751  -6.561  0.00  0.00    -0.010 C 
ATOM      7  C   UNL     1       2.549   1.484  -7.852  0.00  0.00    -0.082 C 
ATOM      8  N   UNL     1       2.209   0.647  -9.009  0.00  0.00    +0.379 N 
ATOM      9  C   UNL     1       3.007  -0.584  -8.988  0.00  0.00    -0.082 C 
ATOM     10  C   UNL     1       2.651  -1.405  -7.745  0.00  0.00    -0.010 C 
ATOM     11  C   UNL     1       6.058  -2.088  -5.500  0.00  0.00    +0.222 C 
ATOM     12  O   UNL     1       6.887  -1.813  -6.341  0.00  0.00    -0.275 OA
ATOM     13  H   UNL     1       1.229   0.412  -8.975  0.00  0.00    -0.086 HD
ATOM     14  H   UNL     1       2.401   1.157  -9.858  0.00  0.00    -0.086 HD
ENDROOT
BRANCH  11  15
ATOM     15  C   UNL     1       6.313  -3.212  -4.530  0.00  0.00    +0.044 C 
ATOM     16  C   UNL     1       6.181  -2.690  -3.098  0.00  0.00    +0.016 C 
ATOM     17  C   UNL     1       7.203  -1.575  -2.865  0.00  0.00    +0.001 C 
ATOM     18  C   UNL     1       8.615  -2.124  -3.080  0.00  0.00    +0.000 C 
ATOM     19  C   UNL     1       8.746  -2.646  -4.513  0.00  0.00    +0.001 C 
ATOM     20  C   UNL     1       7.725  -3.761  -4.745  0.00  0.00    +0.016 C 
ATOM     21  C   UNL     1       5.291  -4.328  -4.762  0.00  0.00    +0.021 C 
ENDBRANCH  11  15
BRANCH   1  23
ATOM     22  N   UNL     1       0.192  -0.679  -4.752  0.00  0.00    -0.308 N 
ATOM     23  C   UNL     1       1.500  -0.581  -4.443  0.00  0.00    +0.219 C 
ATOM     24  O   UNL     1       1.856   0.130  -3.527  0.00  0.00    -0.275 OA
ATOM     25  H   UNL     1      -0.093  -1.247  -5.484  0.00  0.00    +0.149 HD
BRANCH  22  26
ATOM     26  C   UNL     1      -0.800   0.075  -3.981  0.00  0.00    +0.104 C 
ATOM     27  C   UNL     1      -0.922   1.490  -4.551  0.00  0.00    +0.033 C 
BRANCH  26  30
ATOM     28  C   UNL     1      -2.754  -0.465  -1.598  0.00  0.00    +0.065 C 
ATOM     29  C   UNL     1      -2.981  -0.851  -3.037  0.00  0.00    +0.038 A 
ATOM     30  C   UNL     1      -2.136  -0.618  -4.068  0.00  0.00    +0.015 A 
ATOM     31  C   UNL     1      -2.721  -1.133  -5.229  0.00  0.00    +0.065 A 
ATOM     32  N   UNL     1      -3.876  -1.657  -4.907  0.00  0.00    -0.179 NA
ATOM     33  N   UNL     1      -4.060  -1.496  -3.528  0.00  0.00    -0.281 N 
ATOM     34  H   UNL     1      -4.828  -1.793  -3.016  0.00  0.00    +0.189 HD
ATOM     35  C   UNL     1      -2.125  -1.092  -6.613  0.00  0.00    +0.068 C 
ENDBRANCH  26  30
ENDBRANCH  22  26
ENDBRANCH   1  23
TORSDOF 4
