REMARK  Name = ZINC20989938
REMARK  10 active torsions:
REMARK  status: ('A' for Active; 'I' for Inactive)
REMARK    1  A    between atoms: C_1  and  C_2
REMARK    2  A    between atoms: C_3  and  C_22
REMARK    3  A    between atoms: C_4  and  S_9
REMARK    4  A    between atoms: C_5  and  C_8
REMARK    5  A    between atoms: N_6  and  C_7
REMARK    6  A    between atoms: S_9  and  N_12
REMARK    7  A    between atoms: N_12  and  C_13
REMARK    8  A    between atoms: N_12  and  C_19
REMARK    9  A    between atoms: C_19  and  C_20
REMARK   10  A    between atoms: C_19  and  C_21
REMARK                            x       y       z     vdW  Elec       q    Type
REMARK                         _______ _______ _______ _____ _____    ______ ____
ROOT
ATOM      1  C   UNL     1       0.719   4.257  -2.795  0.00  0.00    +0.064 C 
ATOM      2  C   UNL     1       1.312   4.221  -1.410  0.00  0.00    +0.030 A 
ATOM      3  C   UNL     1       2.130   3.244  -0.915  0.00  0.00    +0.084 A 
ATOM      4  C   UNL     1       2.445   3.634   0.463  0.00  0.00    +0.138 A 
ATOM      5  C   UNL     1       1.809   4.800   0.680  0.00  0.00    +0.043 A 
ATOM      6  N   UNL     1       1.126   5.146  -0.449  0.00  0.00    -0.349 N 
ATOM      7  C   UNL     1       0.308   6.352  -0.595  0.00  0.00    +0.149 C 
ATOM      8  C   UNL     1       1.841   5.590   1.963  0.00  0.00    +0.065 C 
ENDROOT
BRANCH   3   9
ATOM      9  C   UNL     1       2.597   2.039  -1.622  0.00  0.00    +0.250 C 
ATOM     10  O   UNL     1       3.760   1.947  -1.965  0.00  0.00    -0.270 OA
ATOM     11  N   UNL     1       1.735   1.038  -1.889  0.00  0.00    -0.297 N 
ATOM     12  C   UNL     1       2.212  -0.116  -2.676  0.00  0.00    +0.108 C 
ATOM     13  C   UNL     1       1.705  -1.455  -2.109  0.00  0.00    +0.019 C 
ATOM     14  C   UNL     1       1.762  -1.434  -0.601  0.00  0.00    +0.002 C 
ATOM     15  C   UNL     1       0.426  -0.946  -0.051  0.00  0.00    +0.002 C 
ATOM     16  C   UNL     1       0.300   0.517   0.025  0.00  0.00    +0.019 C 
ATOM     17  C   UNL     1       0.381   1.138  -1.391  0.00  0.00    +0.108 C 
ENDBRANCH   3   9
BRANCH   4  18
ATOM     18  S   UNL     1       3.457   2.755   1.606  0.00  0.00    +0.064 S 
ATOM     19  O   UNL     1       3.278   3.377   2.870  0.00  0.00    -0.153 OA
ATOM     20  O   UNL     1       3.203   1.373   1.394  0.00  0.00    -0.153 OA
BRANCH  18  21
ATOM     21  N   UNL     1       5.033   3.018   1.168  0.00  0.00    -0.171 NA
BRANCH  21  22
ATOM     22  C   UNL     1       5.687   2.121   0.212  0.00  0.00    +0.080 C 
ATOM     23  C   UNL     1       6.833   1.383   0.909  0.00  0.00    +0.020 C 
ATOM     24  C   UNL     1       7.517   0.446  -0.089  0.00  0.00    +0.002 C 
ATOM     25  C   UNL     1       8.071   1.262  -1.258  0.00  0.00    +0.000 C 
ATOM     26  C   UNL     1       6.926   2.000  -1.954  0.00  0.00    +0.002 C 
ATOM     27  C   UNL     1       6.242   2.937  -0.957  0.00  0.00    +0.020 C 
ENDBRANCH  21  22
BRANCH  21  28
ATOM     28  C   UNL     1       5.771   4.149   1.735  0.00  0.00    +0.074 C 
ATOM     29  C   UNL     1       5.154   5.460   1.244  0.00  0.00    +0.025 C 
ATOM     30  C   UNL     1       5.698   4.091   3.262  0.00  0.00    +0.025 C 
ENDBRANCH  21  28
ENDBRANCH  18  21
ENDBRANCH   4  18
TORSDOF 5
