REMARK  Name = ZINC35559332
REMARK  11 active torsions:
REMARK  status: ('A' for Active; 'I' for Inactive)
REMARK    1  A    between atoms: C_1  and  C_2
REMARK    2  A    between atoms: C_5  and  S_8
REMARK    3  A    between atoms: S_8  and  N_11
REMARK    4  A    between atoms: C_20  and  C_22
REMARK    5  A    between atoms: C_22  and  C_23
REMARK    6  A    between atoms: N_25  and  C_26
REMARK    7  A    between atoms: C_26  and  C_27
REMARK    8  A    between atoms: C_27  and  C_28
REMARK    9  A    between atoms: C_28  and  N_29
REMARK   10  A    between atoms: N_29  and  C_30
REMARK   11  A    between atoms: N_29  and  C_31
REMARK                            x       y       z     vdW  Elec       q    Type
REMARK                         _______ _______ _______ _____ _____    ______ ____
ROOT
ATOM      1  N   UNL     1       1.820  -5.355  -0.397  0.00  0.00    -0.168 NA
ATOM      2  C   UNL     1       2.684  -5.843  -1.484  0.00  0.00    +0.115 C 
ATOM      3  C   UNL     1       3.787  -4.810  -1.708  0.00  0.00    +0.052 C 
ATOM      4  C   UNL     1       4.407  -4.396  -0.400  0.00  0.00    -0.041 A 
ATOM      5  C   UNL     1       5.669  -3.814  -0.441  0.00  0.00    +0.004 A 
ATOM      6  C   UNL     1       6.290  -3.404   0.720  0.00  0.00    +0.000 A 
ATOM      7  C   UNL     1       5.654  -3.570   1.936  0.00  0.00    +0.000 A 
ATOM      8  C   UNL     1       4.403  -4.150   1.980  0.00  0.00    +0.005 A 
ATOM      9  C   UNL     1       3.779  -4.569   0.812  0.00  0.00    -0.025 A 
ATOM     10  C   UNL     1       2.426  -5.214   0.932  0.00  0.00    +0.119 C 
ENDROOT
BRANCH   1  11
ATOM     11  S   UNL     1       0.231  -4.973  -0.664  0.00  0.00    +0.061 S 
ATOM     12  O   UNL     1      -0.315  -4.604   0.595  0.00  0.00    -0.153 OA
ATOM     13  O   UNL     1      -0.312  -6.025  -1.451  0.00  0.00    -0.153 OA
BRANCH  11  18
ATOM     14  C   UNL     1       0.137  -0.019  -4.106  0.00  0.00    +0.044 C 
ATOM     15  C   UNL     1       0.160  -1.256  -3.246  0.00  0.00    -0.050 A 
ATOM     16  C   UNL     1       0.174  -2.507  -3.835  0.00  0.00    +0.005 A 
ATOM     17  C   UNL     1       0.196  -3.642  -3.046  0.00  0.00    +0.029 A 
ATOM     18  C   UNL     1       0.204  -3.526  -1.669  0.00  0.00    +0.106 A 
ATOM     19  C   UNL     1       0.192  -2.276  -1.080  0.00  0.00    +0.029 A 
ATOM     20  C   UNL     1       0.175  -1.141  -1.869  0.00  0.00    +0.005 A 
ENDBRANCH  11  18
ENDBRANCH   1  11
BRANCH  10  21
ATOM     21  C   UNL     1       2.580  -6.596   1.570  0.00  0.00    +0.121 C 
BRANCH  21  22
ATOM     22  C   UNL     1       1.220  -7.216   1.760  0.00  0.00    +0.215 C 
ATOM     23  O   UNL     1       0.220  -6.568   1.532  0.00  0.00    -0.276 OA
ATOM     24  N   UNL     1       1.114  -8.491   2.183  0.00  0.00    -0.315 N 
ATOM     25  H   UNL     1       1.913  -9.010   2.366  0.00  0.00    +0.149 HD
BRANCH  24  26
ATOM     26  C   UNL     1      -0.208  -9.095   2.367  0.00  0.00    +0.102 C 
BRANCH  26  27
ATOM     27  C   UNL     1      -0.048 -10.538   2.850  0.00  0.00    +0.000 C 
BRANCH  27  28
ATOM     28  C   UNL     1      -1.429 -11.168   3.042  0.00  0.00    -0.077 C 
BRANCH  28  29
ATOM     29  N   UNL     1      -1.275 -12.553   3.505  0.00  0.00    +0.380 N 
ATOM     30  C   UNL     1      -0.626 -13.351   2.456  0.00  0.00    -0.096 C 
ATOM     31  H   UNL     1      -0.706 -12.568   4.339  0.00  0.00    -0.082 HD
BRANCH  29  32
ATOM     32  C   UNL     1      -2.597 -13.119   3.804  0.00  0.00    -0.069 C 
ATOM     33  C   UNL     1      -3.272 -12.289   4.897  0.00  0.00    -0.015 C 
ATOM     34  C   UNL     1      -4.649 -12.878   5.209  0.00  0.00    -0.002 C 
ATOM     35  C   UNL     1      -4.488 -14.321   5.691  0.00  0.00    -0.000 C 
ATOM     36  C   UNL     1      -3.813 -15.152   4.598  0.00  0.00    -0.002 C 
ATOM     37  C   UNL     1      -2.436 -14.562   4.287  0.00  0.00    -0.015 C 
ENDBRANCH  29  32
ENDBRANCH  28  29
ENDBRANCH  27  28
ENDBRANCH  26  27
ENDBRANCH  24  26
ENDBRANCH  21  22
ENDBRANCH  10  21
TORSDOF 9
