REMARK  Name = ZINC33938637
REMARK  10 active torsions:
REMARK  status: ('A' for Active; 'I' for Inactive)
REMARK    1  A    between atoms: C_1  and  C_2
REMARK    2  A    between atoms: C_2  and  O_3
REMARK    3  A    between atoms: O_3  and  C_4
REMARK    4  A    between atoms: C_7  and  N_10
REMARK    5  A    between atoms: C_15  and  C_33
REMARK    6  A    between atoms: C_18  and  C_23
REMARK    7  A    between atoms: C_18  and  C_29
REMARK    8  A    between atoms: C_29  and  O_31
REMARK    9  A    between atoms: O_31  and  C_32
REMARK   10  A    between atoms: C_36  and  O_39
REMARK                            x       y       z     vdW  Elec       q    Type
REMARK                         _______ _______ _______ _____ _____    ______ ____
ROOT
ATOM      1  N   UNL     1       1.979  -5.620   2.584  0.00  0.00    -0.210 N 
ATOM      2  C   UNL     1       1.412  -6.149   1.451  0.00  0.00    +0.229 C 
ATOM      3  O   UNL     1       1.197  -5.588   0.398  0.00  0.00    -0.275 OA
ATOM      4  C   UNL     1       1.128  -7.523   1.793  0.00  0.00    +0.078 C 
ATOM      5  C   UNL     1       0.841  -8.811   1.145  0.00  0.00    -0.026 C 
ATOM      6  N   UNL     1       1.126  -9.832   2.207  0.00  0.00    +0.398 N 
ATOM      7  C   UNL     1       1.688  -9.105   3.392  0.00  0.00    +0.070 C 
ATOM      8  C   UNL     1       2.349  -7.877   2.733  0.00  0.00    +0.090 C 
ATOM      9  C   UNL     1       2.345  -6.576   3.488  0.00  0.00    +0.229 C 
ATOM     10  O   UNL     1       2.609  -6.411   4.660  0.00  0.00    -0.275 OA
ATOM     11  H   UNL     1       0.273 -10.303   2.467  0.00  0.00    -0.083 HD
ATOM     12  H   UNL     1       1.799 -10.502   1.865  0.00  0.00    -0.083 HD
ENDROOT
BRANCH   1  16
ATOM     13  C   UNL     1       2.541  -1.531   3.192  0.00  0.00    +0.121 A 
ATOM     14  C   UNL     1       1.954  -1.983   2.019  0.00  0.00    +0.047 A 
ATOM     15  C   UNL     1       1.768  -3.337   1.817  0.00  0.00    +0.027 A 
ATOM     16  C   UNL     1       2.168  -4.244   2.788  0.00  0.00    +0.044 A 
ATOM     17  C   UNL     1       2.756  -3.791   3.961  0.00  0.00    +0.027 A 
ATOM     18  C   UNL     1       2.946  -2.438   4.160  0.00  0.00    +0.047 A 
BRANCH  13  19
ATOM     19  O   UNL     1       2.724  -0.198   3.389  0.00  0.00    -0.492 OA
BRANCH  19  21
ATOM     20  C   UNL     1       2.571   2.127   2.750  0.00  0.00    +0.048 C 
ATOM     21  C   UNL     1       2.283   0.679   2.351  0.00  0.00    +0.225 C 
ENDBRANCH  19  21
ENDBRANCH  13  19
ENDBRANCH   1  16
BRANCH   7  22
ATOM     22  C   UNL     1       0.589  -8.705   4.343  0.00  0.00    -0.047 A 
ATOM     23  C   UNL     1      -0.729  -8.736   3.928  0.00  0.00    +0.003 A 
ATOM     24  C   UNL     1      -1.737  -8.368   4.800  0.00  0.00    +0.000 A 
ATOM     25  C   UNL     1      -1.427  -7.971   6.087  0.00  0.00    +0.000 A 
ATOM     26  C   UNL     1      -0.109  -7.941   6.502  0.00  0.00    +0.000 A 
ATOM     27  C   UNL     1       0.899  -8.313   5.631  0.00  0.00    +0.003 A 
ENDBRANCH   7  22
BRANCH   5  28
ATOM     28  C   UNL     1       1.744  -9.016  -0.043  0.00  0.00    -0.060 A 
ATOM     29  C   UNL     1       3.041  -9.458   0.144  0.00  0.00    +0.005 A 
ATOM     30  C   UNL     1       3.871  -9.647  -0.944  0.00  0.00    +0.045 A 
ATOM     31  C   UNL     1       3.403  -9.392  -2.225  0.00  0.00    +0.117 A 
ATOM     32  C   UNL     1       2.102  -8.948  -2.410  0.00  0.00    +0.045 A 
ATOM     33  C   UNL     1       1.274  -8.766  -1.319  0.00  0.00    +0.005 A 
BRANCH  31  34
ATOM     34  O   UNL     1       4.218  -9.576  -3.297  0.00  0.00    -0.507 OA
ATOM     35  H   UNL     1       4.178 -10.466  -3.673  0.00  0.00    +0.292 HD
ENDBRANCH  31  34
ENDBRANCH   5  28
BRANCH   7  36
ATOM     36  C   UNL     1       2.722  -9.947   4.093  0.00  0.00    +0.301 C 
ATOM     37  O   UNL     1       3.698  -9.426   4.577  0.00  0.00    -0.252 OA
BRANCH  36  38
ATOM     38  O   UNL     1       2.559 -11.277   4.180  0.00  0.00    -0.469 OA
ATOM     39  C   UNL     1       3.578 -12.013   4.859  0.00  0.00    +0.280 C 
ENDBRANCH  36  38
ENDBRANCH   7  36
TORSDOF 8
