REMARK  Name = ZINC04237047
REMARK  15 active torsions:
REMARK  status: ('A' for Active; 'I' for Inactive)
REMARK    1  A    between atoms: C_1  and  C_2
REMARK    2  A    between atoms: C_2  and  C_3
REMARK    3  A    between atoms: C_3  and  C_4
REMARK    4  A    between atoms: C_4  and  C_5
REMARK    5  A    between atoms: C_5  and  C_6
REMARK    6  A    between atoms: C_17  and  C_42
REMARK    7  A    between atoms: C_18  and  C_20
REMARK    8  A    between atoms: C_20  and  C_21
REMARK    9  A    between atoms: N_23  and  C_24
REMARK   10  A    between atoms: C_24  and  C_26
REMARK   11  A    between atoms: C_24  and  C_27
REMARK   12  A    between atoms: C_35  and  O_41
REMARK   13  A    between atoms: C_37  and  C_38
REMARK   14  A    between atoms: C_37  and  C_39
REMARK   15  A    between atoms: C_39  and  O_40
REMARK                            x       y       z     vdW  Elec       q    Type
REMARK                         _______ _______ _______ _____ _____    ______ ____
ROOT
ATOM      1  C   UNL     1       1.452   2.425   0.612  0.00  0.00    +0.219 C 
ATOM      2  O   UNL     1       1.347   3.628   0.497  0.00  0.00    -0.275 OA
ATOM      3  N   UNL     1       0.352   1.647   0.581  0.00  0.00    -0.265 N 
ATOM      4  C   UNL     1      -0.902   2.222   0.412  0.00  0.00    +0.165 A 
ATOM      5  N   UNL     1      -2.080   1.637   0.351  0.00  0.00    -0.229 NA
ATOM      6  C   UNL     1      -3.207   2.325   0.183  0.00  0.00    +0.058 A 
ATOM      7  C   UNL     1      -3.071   3.673   0.081  0.00  0.00    +0.015 A 
ATOM      8  S   UNL     1      -1.320   3.900   0.234  0.00  0.00    -0.057 S 
ATOM      9  C   UNL     1      -4.147   4.683  -0.106  0.00  0.00    +0.049 C 
ATOM     10  C   UNL     1      -5.440   3.965  -0.537  0.00  0.00    +0.011 C 
ATOM     11  C   UNL     1      -5.652   2.742   0.358  0.00  0.00    -0.019 C 
ATOM     12  C   UNL     1      -4.585   1.689   0.100  0.00  0.00    +0.054 C 
ATOM     13  C   UNL     1      -7.012   2.101   0.060  0.00  0.00    +0.010 C 
ATOM     14  C   UNL     1      -8.135   3.114   0.273  0.00  0.00    +0.032 C 
ATOM     15  C   UNL     1      -7.926   4.291  -0.684  0.00  0.00    +0.123 C 
ATOM     16  C   UNL     1      -6.590   4.964  -0.371  0.00  0.00    +0.021 C 
ATOM     17  C   UNL     1      -6.371   6.149  -1.313  0.00  0.00    +0.016 C 
ATOM     18  C   UNL     1      -5.595   3.165   1.827  0.00  0.00    +0.012 C 
ATOM     19  H   UNL     1       0.436   0.685   0.672  0.00  0.00    +0.157 HD
ENDROOT
BRANCH  15  20
ATOM     20  O   UNL     1      -8.987   5.235  -0.523  0.00  0.00    -0.391 OA
ATOM     21  H   UNL     1      -9.865   4.874  -0.704  0.00  0.00    +0.210 HD
ENDBRANCH  15  20
BRANCH   1  22
ATOM     22  C   UNL     1       2.812   1.801   0.788  0.00  0.00    +0.096 C 
BRANCH  22  23
ATOM     23  C   UNL     1       3.880   2.897   0.789  0.00  0.00    +0.009 C 
BRANCH  23  24
ATOM     24  C   UNL     1       5.261   2.263   0.968  0.00  0.00    +0.000 C 
BRANCH  24  26
ATOM     25  C   UNL     1       7.710   2.724   1.148  0.00  0.00    +0.004 C 
ATOM     26  C   UNL     1       6.329   3.358   0.969  0.00  0.00    -0.003 C 
ENDBRANCH  24  26
ENDBRANCH  23  24
ENDBRANCH  22  23
ENDBRANCH   1  22
BRANCH  12  27
ATOM     27  C   UNL     1      -4.697   0.576   1.145  0.00  0.00    +0.106 C 
BRANCH  27  28
ATOM     28  C   UNL     1      -3.783  -0.561   0.767  0.00  0.00    +0.214 C 
ATOM     29  O   UNL     1      -3.109  -0.489  -0.239  0.00  0.00    -0.276 OA
ATOM     30  N   UNL     1      -3.715  -1.658   1.547  0.00  0.00    -0.309 N 
ATOM     31  H   UNL     1      -4.254  -1.716   2.351  0.00  0.00    +0.149 HD
BRANCH  30  32
ATOM     32  C   UNL     1      -2.827  -2.764   1.179  0.00  0.00    +0.100 C 
ATOM     33  C   UNL     1      -3.544  -3.688   0.194  0.00  0.00    +0.033 C 
BRANCH  32  34
ATOM     34  C   UNL     1      -2.454  -3.540   2.416  0.00  0.00    -0.027 A 
ATOM     35  C   UNL     1      -3.401  -3.781   3.393  0.00  0.00    +0.005 A 
ATOM     36  C   UNL     1      -3.060  -4.498   4.525  0.00  0.00    +0.000 A 
ATOM     37  C   UNL     1      -1.769  -4.964   4.684  0.00  0.00    +0.000 A 
ATOM     38  C   UNL     1      -0.820  -4.719   3.710  0.00  0.00    +0.000 A 
ATOM     39  C   UNL     1      -1.162  -4.007   2.575  0.00  0.00    +0.005 A 
ENDBRANCH  32  34
ENDBRANCH  30  32
ENDBRANCH  27  28
ENDBRANCH  12  27
BRANCH  16  40
ATOM     40  C   UNL     1      -6.618   5.468   1.073  0.00  0.00    +0.165 C 
BRANCH  40  41
ATOM     41  O   UNL     1      -7.579   6.518   1.193  0.00  0.00    -0.394 OA
ATOM     42  H   UNL     1      -7.651   6.887   2.084  0.00  0.00    +0.209 HD
ENDBRANCH  40  41
ENDBRANCH  16  40
TORSDOF 11
