REMARK  Name = ZINC16293181
REMARK  7 active torsions:
REMARK  status: ('A' for Active; 'I' for Inactive)
REMARK    1  A    between atoms: C_1  and  O_2
REMARK    2  A    between atoms: O_2  and  C_3
REMARK    3  A    between atoms: C_5  and  C_11
REMARK    4  A    between atoms: C_8  and  O_9
REMARK    5  A    between atoms: C_14  and  C_25
REMARK    6  A    between atoms: C_20  and  N_24
REMARK    7  A    between atoms: C_21  and  C_22
REMARK                            x       y       z     vdW  Elec       q    Type
REMARK                         _______ _______ _______ _____ _____    ______ ____
ROOT
ATOM      1  C   UNL     1      -4.923   0.339   0.033  0.00  0.00    +0.102 C 
ATOM      2  C   UNL     1      -5.755  -0.135   1.196  0.00  0.00    +0.054 A 
ATOM      3  C   UNL     1      -5.559   0.068   2.565  0.00  0.00    +0.102 A 
ATOM      4  N   UNL     1      -6.542  -0.534   3.209  0.00  0.00    -0.171 NA
ATOM      5  N   UNL     1      -7.388  -1.135   2.264  0.00  0.00    -0.246 N 
ATOM      6  H   UNL     1      -8.190  -1.644   2.459  0.00  0.00    +0.192 HD
ATOM      7  C   UNL     1      -6.889  -0.878   1.037  0.00  0.00    +0.223 A 
ATOM      8  O   UNL     1      -7.359  -1.246  -0.181  0.00  0.00    -0.423 OA
ATOM      9  C   UNL     1      -6.835  -0.635  -1.264  0.00  0.00    +0.200 C 
ATOM     10  C   UNL     1      -5.711   0.116  -1.234  0.00  0.00    +0.098 C 
ENDROOT
BRANCH   1  13
ATOM     11  C   UNL     1      -1.240  -0.501  -0.046  0.00  0.00    +0.163 A 
ATOM     12  C   UNL     1      -2.424   0.218   0.006  0.00  0.00    +0.054 A 
ATOM     13  C   UNL     1      -3.636  -0.445  -0.024  0.00  0.00    -0.030 A 
ATOM     14  C   UNL     1      -3.672  -1.824  -0.106  0.00  0.00    +0.023 A 
ATOM     15  C   UNL     1      -2.494  -2.548  -0.158  0.00  0.00    +0.063 A 
ATOM     16  C   UNL     1      -1.275  -1.889  -0.134  0.00  0.00    +0.173 A 
ATOM     17 BR   UNL     1      -2.548  -4.435  -0.268  0.00  0.00    -0.046 Br
BRANCH  11  19
ATOM     18  C   UNL     1      -0.086   1.576   0.076  0.00  0.00    +0.277 C 
ATOM     19  O   UNL     1      -0.046   0.150  -0.016  0.00  0.00    -0.491 OA
ENDBRANCH  11  19
BRANCH  16  20
ATOM     20  O   UNL     1      -0.116  -2.598  -0.191  0.00  0.00    -0.503 OA
ATOM     21  H   UNL     1       0.228  -2.859   0.674  0.00  0.00    +0.292 HD
ENDBRANCH  16  20
ENDBRANCH   1  13
BRANCH   3  22
ATOM     22  C   UNL     1      -4.444   0.825   3.185  0.00  0.00    +0.021 A 
ATOM     23  C   UNL     1      -4.106   2.089   2.706  0.00  0.00    +0.011 A 
ATOM     24  C   UNL     1      -3.068   2.790   3.286  0.00  0.00    +0.001 A 
ATOM     25  C   UNL     1      -2.363   2.240   4.341  0.00  0.00    +0.001 A 
ATOM     26  C   UNL     1      -2.693   0.986   4.821  0.00  0.00    +0.020 A 
ATOM     27  C   UNL     1      -3.734   0.278   4.252  0.00  0.00    +0.050 A 
ATOM     28 CL   UNL     1      -4.152  -1.294   4.860  0.00  0.00    -0.083 Cl
ENDBRANCH   3  22
BRANCH   9  29
ATOM     29  N   UNL     1      -7.481  -0.783  -2.466  0.00  0.00    -0.328 N 
ATOM     30  H   UNL     1      -8.290  -1.316  -2.519  0.00  0.00    +0.145 HD
ATOM     31  H   UNL     1      -7.129  -0.355  -3.262  0.00  0.00    +0.145 HD
ENDBRANCH   9  29
BRANCH  10  32
ATOM     32  C   UNL     1      -5.252   0.722  -2.447  0.00  0.00    +0.101 C 
ATOM     33  N   UNL     1      -4.888   1.203  -3.410  0.00  0.00    -0.191 NA
ENDBRANCH  10  32
TORSDOF 6
