REMARK  Name = ZINC25514474
REMARK  11 active torsions:
REMARK  status: ('A' for Active; 'I' for Inactive)
REMARK    1  A    between atoms: C_1  and  N_2
REMARK    2  A    between atoms: N_2  and  C_3
REMARK    3  A    between atoms: N_2  and  C_4
REMARK    4  A    between atoms: C_7  and  N_27
REMARK    5  A    between atoms: C_9  and  C_10
REMARK    6  A    between atoms: N_12  and  C_13
REMARK    7  A    between atoms: C_13  and  C_14
REMARK    8  A    between atoms: C_14  and  C_16
REMARK    9  A    between atoms: C_14  and  N_24
REMARK   10  A    between atoms: N_24  and  C_25
REMARK   11  A    between atoms: N_24  and  C_26
REMARK                            x       y       z     vdW  Elec       q    Type
REMARK                         _______ _______ _______ _____ _____    ______ ____
ROOT
ATOM      1  C   UNL     1       6.538   3.380   1.677  0.00  0.00    +0.246 C 
ATOM      2  O   UNL     1       6.268   3.157   2.841  0.00  0.00    -0.270 OA
ATOM      3  N   UNL     1       5.688   3.002   0.703  0.00  0.00    -0.313 N 
ATOM      4  H   UNL     1       5.933   3.203  -0.350  0.00  0.00    +0.149 HD
ENDROOT
BRANCH   1  10
ATOM      5  C   UNL     1       8.684   4.465   2.343  0.00  0.00    +0.042 A 
ATOM      6  C   UNL     1       9.870   5.105   2.003  0.00  0.00    +0.026 A 
ATOM      7  C   UNL     1      10.168   5.353   0.679  0.00  0.00    +0.034 A 
ATOM      8  C   UNL     1       9.292   4.962  -0.322  0.00  0.00    +0.127 A 
ATOM      9  C   UNL     1       8.114   4.322  -0.005  0.00  0.00    +0.047 A 
ATOM     10  C   UNL     1       7.798   4.064   1.331  0.00  0.00    +0.060 A 
BRANCH   5  12
ATOM     11  C   UNL     1       9.405   3.374   4.302  0.00  0.00    +0.129 C 
ATOM     12  N   UNL     1       8.380   4.220   3.675  0.00  0.00    -0.335 N 
ATOM     13  C   UNL     1       8.209   5.476   4.417  0.00  0.00    +0.129 C 
ENDBRANCH   5  12
BRANCH   8  14
ATOM     14  N   UNL     1       9.624   5.235  -1.738  0.00  0.00    +0.056 N 
ATOM     15  O   UNL     1       8.856   4.894  -2.620  0.00  0.00    -0.126 OA
ATOM     16  O   UNL     1      10.664   5.801  -2.022  0.00  0.00    -0.126 OA
ENDBRANCH   8  14
ENDBRANCH   1  10
BRANCH   3  17
ATOM     17  C   UNL     1       4.436   2.322   1.046  0.00  0.00    +0.094 C 
BRANCH  17  18
ATOM     18  C   UNL     1       3.608   2.105  -0.222  0.00  0.00    -0.017 C 
BRANCH  18  19
ATOM     19  C   UNL     1       2.423   1.231   0.095  0.00  0.00    -0.006 A 
ATOM     20  C   UNL     1       2.318  -0.027  -0.474  0.00  0.00    +0.126 A 
ATOM     21  C   UNL     1       1.229  -0.830  -0.181  0.00  0.00    +0.038 A 
ATOM     22  C   UNL     1       0.247  -0.376   0.679  0.00  0.00    +0.004 A 
ATOM     23  C   UNL     1       0.351   0.880   1.247  0.00  0.00    +0.020 A 
ATOM     24  C   UNL     1       1.439   1.684   0.955  0.00  0.00    +0.045 A 
ATOM     25 CL   UNL     1       1.569   3.261   1.669  0.00  0.00    -0.083 Cl
ATOM     26  F   UNL     1       3.278  -0.471  -1.314  0.00  0.00    -0.205 F 
ENDBRANCH  18  19
BRANCH  18  27
ATOM     27  N   UNL     1       3.139   3.402  -0.727  0.00  0.00    +0.382 N 
ATOM     28  C   UNL     1       4.115   3.991  -1.654  0.00  0.00    -0.096 C 
ATOM     29  C   UNL     1       1.821   3.273  -1.363  0.00  0.00    -0.096 C 
ATOM     30  H   UNL     1       3.035   4.082   0.131  0.00  0.00    -0.082 HD
ENDBRANCH  18  27
ENDBRANCH  17  18
ENDBRANCH   3  17
TORSDOF 7
