REMARK  Name = ZINC64600244
REMARK  4 active torsions:
REMARK  status: ('A' for Active; 'I' for Inactive)
REMARK    1  A    between atoms: C_6  and  C_11
REMARK    2  A    between atoms: N_21  and  C_22
REMARK    3  A    between atoms: C_22  and  C_23
REMARK    4  A    between atoms: C_23  and  C_24
REMARK                            x       y       z     vdW  Elec       q    Type
REMARK                         _______ _______ _______ _____ _____    ______ ____
ROOT
ATOM      1  C   UNL     1       3.653  -2.764   1.181  0.00  0.00    +0.242 C 
ATOM      2  O   UNL     1       4.325  -2.164   1.994  0.00  0.00    -0.273 OA
ATOM      3  N   UNL     1       3.361  -4.065   1.378  0.00  0.00    -0.297 N 
ATOM      4  C   UNL     1       2.552  -4.806   0.399  0.00  0.00    +0.127 C 
ATOM      5  C   UNL     1       3.337  -6.046  -0.046  0.00  0.00    +0.128 C 
ATOM      6  N   UNL     1       3.821  -6.749   1.150  0.00  0.00    -0.283 N 
ATOM      7  C   UNL     1       4.629  -6.009   2.128  0.00  0.00    +0.128 C 
ATOM      8  C   UNL     1       3.850  -4.770   2.571  0.00  0.00    +0.127 C 
ATOM      9  C   UNL     1       3.529  -8.050   1.346  0.00  0.00    +0.302 C 
ATOM     10  O   UNL     1       2.781  -8.628   0.580  0.00  0.00    -0.253 OA
ATOM     11  N   UNL     1       4.065  -8.711   2.391  0.00  0.00    -0.299 N 
ATOM     12  H   UNL     1       4.603  -8.235   3.042  0.00  0.00    +0.150 HD
ENDROOT
BRANCH   1  18
ATOM     13  C   UNL     1      -0.018   1.345  -0.011  0.00  0.00    +0.001 A 
ATOM     14  C   UNL     1       1.164   2.099  -0.014  0.00  0.00    +0.002 A 
ATOM     15  C   UNL     1       2.390   1.533  -0.024  0.00  0.00    +0.026 A 
ATOM     16  C   UNL     1       2.528   0.118  -0.032  0.00  0.00    +0.043 A 
ATOM     17  N   UNL     1       3.587  -0.655  -0.042  0.00  0.00    -0.370 N 
ATOM     18  C   UNL     1       3.144  -2.054  -0.047  0.00  0.00    +0.190 C 
ATOM     19  C   UNL     1       1.633  -2.011  -0.037  0.00  0.00    +0.016 C 
ATOM     20  C   UNL     1       1.295  -0.701  -0.028  0.00  0.00    -0.004 A 
ATOM     21  C   UNL     1       0.002  -0.007  -0.017  0.00  0.00    +0.010 A 
ATOM     22  H   UNL     1       4.509  -0.353  -0.047  0.00  0.00    +0.161 HD
ENDBRANCH   1  18
BRANCH  11  23
ATOM     23  C   UNL     1       3.836 -10.150   2.543  0.00  0.00    +0.115 C 
BRANCH  23  24
ATOM     24  C   UNL     1       4.549 -10.650   3.801  0.00  0.00    +0.114 C 
BRANCH  24  25
ATOM     25  C   UNL     1       4.313 -12.131   3.957  0.00  0.00    +0.217 C 
ATOM     26  O   UNL     1       3.641 -12.727   3.143  0.00  0.00    -0.276 OA
ATOM     27  N   UNL     1       4.850 -12.792   5.002  0.00  0.00    -0.301 N 
ATOM     28  C   UNL     1       5.676 -12.194   6.061  0.00  0.00    +0.108 C 
ATOM     29  C   UNL     1       6.083 -13.332   7.022  0.00  0.00    +0.020 C 
ATOM     30  C   UNL     1       5.934 -14.600   6.140  0.00  0.00    +0.020 C 
ATOM     31  C   UNL     1       4.700 -14.233   5.275  0.00  0.00    +0.108 C 
ENDBRANCH  24  25
ENDBRANCH  23  24
ENDBRANCH  11  23
TORSDOF 4
