REMARK  Name = ZINC64592872
REMARK  6 active torsions:
REMARK  status: ('A' for Active; 'I' for Inactive)
REMARK    1  A    between atoms: C_1  and  C_2
REMARK    2  A    between atoms: C_5  and  N_8
REMARK    3  A    between atoms: C_9  and  S_19
REMARK    4  A    between atoms: S_19  and  C_20
REMARK    5  A    between atoms: C_20  and  C_21
REMARK    6  A    between atoms: N_23  and  C_24
REMARK                            x       y       z     vdW  Elec       q    Type
REMARK                         _______ _______ _______ _____ _____    ______ ____
ROOT
ATOM      1  N   UNL     1       0.055  -4.188  -0.024  0.00  0.00    -0.252 N 
ATOM      2  C   UNL     1       0.070  -5.066   1.155  0.00  0.00    +0.258 C 
ATOM      3  N   UNL     1       0.090  -6.444   0.650  0.00  0.00    -0.242 NA
ATOM      4  C   UNL     1       0.089  -6.412  -0.639  0.00  0.00    +0.165 C 
ATOM      5  C   UNL     1       0.061  -5.005  -1.113  0.00  0.00    +0.160 C 
ATOM      6  N   UNL     1       0.051  -4.790  -2.416  0.00  0.00    -0.221 NA
ATOM      7  C   UNL     1       0.061  -5.786  -3.287  0.00  0.00    +0.213 C 
ATOM      8  N   UNL     1       0.083  -7.057  -2.972  0.00  0.00    -0.163 NA
ATOM      9  C   UNL     1       0.105  -7.469  -1.693  0.00  0.00    +0.290 C 
ATOM     10  O   UNL     1       0.124  -8.652  -1.406  0.00  0.00    -0.266 OA
ENDROOT
BRANCH   1  15
ATOM     11  C   UNL     1      -0.035   1.482  -0.032  0.00  0.00    +0.044 C 
ATOM     12  C   UNL     1      -0.011  -0.025  -0.030  0.00  0.00    -0.050 A 
ATOM     13  C   UNL     1      -0.007  -0.717  -1.227  0.00  0.00    +0.005 A 
ATOM     14  C   UNL     1       0.015  -2.097  -1.229  0.00  0.00    +0.024 A 
ATOM     15  C   UNL     1       0.033  -2.792  -0.026  0.00  0.00    +0.038 A 
ATOM     16  C   UNL     1       0.029  -2.094   1.176  0.00  0.00    +0.024 A 
ATOM     17  C   UNL     1       0.012  -0.713   1.170  0.00  0.00    +0.005 A 
ENDBRANCH   1  15
BRANCH   2  18
ATOM     18  S   UNL     1       1.552  -4.746   2.151  0.00  0.00    -0.106 S 
BRANCH  18  19
ATOM     19  C   UNL     1       2.925  -5.105   1.022  0.00  0.00    +0.168 C 
BRANCH  19  20
ATOM     20  C   UNL     1       4.234  -4.876   1.734  0.00  0.00    +0.227 C 
ATOM     21  O   UNL     1       4.239  -4.506   2.889  0.00  0.00    -0.275 OA
ATOM     22  N   UNL     1       5.398  -5.081   1.087  0.00  0.00    -0.285 N 
ATOM     23  H   UNL     1       5.395  -5.441   0.186  0.00  0.00    +0.155 HD
BRANCH  22  24
ATOM     24  C   UNL     1       6.611  -4.776   1.715  0.00  0.00    +0.033 A 
ATOM     25  C   UNL     1       7.672  -4.275   0.972  0.00  0.00    +0.024 A 
ATOM     26  C   UNL     1       8.867  -3.974   1.595  0.00  0.00    +0.017 A 
ATOM     27  C   UNL     1       9.009  -4.172   2.957  0.00  0.00    +0.018 A 
ATOM     28  C   UNL     1       7.953  -4.672   3.699  0.00  0.00    +0.017 A 
ATOM     29  C   UNL     1       6.753  -4.969   3.083  0.00  0.00    +0.024 A 
ATOM     30 BR   UNL     1      10.648  -3.760   3.805  0.00  0.00    -0.050 Br
ENDBRANCH  22  24
ENDBRANCH  19  20
ENDBRANCH  18  19
ENDBRANCH   2  18
TORSDOF 5
