REMARK  Name = ZINC65477164
REMARK  6 active torsions:
REMARK  status: ('A' for Active; 'I' for Inactive)
REMARK    1  A    between atoms: C_1  and  C_2
REMARK    2  A    between atoms: N_5  and  C_8
REMARK    3  A    between atoms: C_8  and  C_9
REMARK    4  A    between atoms: C_8  and  C_10
REMARK    5  A    between atoms: C_10  and  N_11
REMARK    6  A    between atoms: C_17  and  C_20
REMARK                            x       y       z     vdW  Elec       q    Type
REMARK                         _______ _______ _______ _____ _____    ______ ____
ROOT
ATOM      1  N   UNL     1       1.651  -3.736  -2.468  0.00  0.00    -0.301 N 
ATOM      2  C   UNL     1       1.989  -4.060  -3.732  0.00  0.00    +0.302 C 
ATOM      3  O   UNL     1       2.939  -4.790  -3.940  0.00  0.00    -0.253 OA
ATOM      4  N   UNL     1       1.273  -3.575  -4.766  0.00  0.00    -0.282 N 
ATOM      5  C   UNL     1       1.544  -3.999  -6.151  0.00  0.00    +0.114 C 
ATOM      6  C   UNL     1       0.290  -4.697  -6.684  0.00  0.00    +0.054 C 
ATOM      7  C   UNL     1      -0.936  -3.902  -6.345  0.00  0.00    -0.039 C 
ATOM      8  C   UNL     1      -0.988  -2.985  -5.407  0.00  0.00    -0.004 C 
ATOM      9  C   UNL     1       0.188  -2.606  -4.557  0.00  0.00    +0.137 C 
ATOM     10  H   UNL     1       0.940  -3.097  -2.305  0.00  0.00    +0.150 HD
ENDROOT
BRANCH   7  11
ATOM     11  C   UNL     1      -2.165  -4.168  -7.117  0.00  0.00    +0.005 A 
ATOM     12  C   UNL     1      -2.421  -3.783  -8.394  0.00  0.00    +0.093 A 
ATOM     13  N   UNL     1      -3.663  -4.215  -8.764  0.00  0.00    -0.345 N 
ATOM     14  H   UNL     1      -4.067  -4.060  -9.633  0.00  0.00    +0.167 HD
ATOM     15  C   UNL     1      -4.259  -4.900  -7.731  0.00  0.00    +0.139 A 
ATOM     16  C   UNL     1      -3.351  -4.908  -6.657  0.00  0.00    +0.026 A 
ATOM     17  C   UNL     1      -3.698  -5.547  -5.468  0.00  0.00    +0.013 A 
ATOM     18  C   UNL     1      -4.937  -6.157  -5.395  0.00  0.00    +0.020 A 
ATOM     19  C   UNL     1      -5.782  -6.114  -6.493  0.00  0.00    +0.113 A 
ATOM     20  N   UNL     1      -5.436  -5.498  -7.604  0.00  0.00    -0.237 NA
ENDBRANCH   7  11
BRANCH   1  21
ATOM     21  C   UNL     1       2.359  -4.348  -1.341  0.00  0.00    +0.090 C 
BRANCH  21  22
ATOM     22  C   UNL     1       1.710  -3.903  -0.029  0.00  0.00    -0.054 C 
ATOM     23  C   UNL     1       2.500  -4.474   1.150  0.00  0.00    -0.012 C 
BRANCH  22  28
ATOM     24  C   UNL     1       2.260   1.620   1.281  0.00  0.00    +0.007 C 
ATOM     25  C   UNL     1       2.321   0.092   1.322  0.00  0.00    -0.018 C 
ATOM     26  C   UNL     1       0.900  -0.479   1.277  0.00  0.00    -0.016 C 
ATOM     27  C   UNL     1       0.971  -2.007   1.238  0.00  0.00    -0.078 C 
ATOM     28  N   UNL     1       1.711  -2.436   0.045  0.00  0.00    +0.382 N 
ATOM     29  C   UNL     1       3.095  -1.952   0.116  0.00  0.00    -0.078 C 
ATOM     30  C   UNL     1       3.106  -0.422   0.112  0.00  0.00    -0.016 C 
ATOM     31  H   UNL     1       1.266  -2.059  -0.779  0.00  0.00    -0.081 HD
ENDBRANCH  22  28
ENDBRANCH  21  22
ENDBRANCH   1  21
TORSDOF 4
