REMARK  Name = ZINC46338537
REMARK  7 active torsions:
REMARK  status: ('A' for Active; 'I' for Inactive)
REMARK    1  A    between atoms: C_1  and  C_2
REMARK    2  A    between atoms: N_8  and  C_9
REMARK    3  A    between atoms: C_9  and  C_11
REMARK    4  A    between atoms: C_9  and  C_12
REMARK    5  A    between atoms: C_12  and  N_13
REMARK    6  A    between atoms: N_16  and  N_17
REMARK    7  A    between atoms: C_18  and  C_20
REMARK                            x       y       z     vdW  Elec       q    Type
REMARK                         _______ _______ _______ _____ _____    ______ ____
ROOT
ATOM      1  C   UNL     1       2.890  -0.720   2.527  0.00  0.00    +0.090 C 
ENDROOT
BRANCH   1   2
ATOM      2  N   UNL     1       2.681  -2.166   2.419  0.00  0.00    -0.300 N 
ATOM      3  C   UNL     1       3.111  -2.984   3.400  0.00  0.00    +0.316 C 
ATOM      4  O   UNL     1       3.673  -2.522   4.375  0.00  0.00    -0.251 OA
ATOM      5  N   UNL     1       2.919  -4.314   3.301  0.00  0.00    -0.218 N 
ATOM      6  H   UNL     1       2.233  -2.535   1.642  0.00  0.00    +0.150 HD
ATOM      7  H   UNL     1       3.228  -4.903   4.007  0.00  0.00    +0.174 HD
BRANCH   5   8
ATOM      8  N   UNL     1       2.272  -4.847   2.178  0.00  0.00    -0.233 N 
ATOM      9  C   UNL     1       2.079  -6.177   2.079  0.00  0.00    +0.226 C 
ATOM     10  O   UNL     1       2.466  -6.913   2.962  0.00  0.00    -0.275 OA
ATOM     11  C   UNL     1       1.383  -6.750   0.871  0.00  0.00    +0.110 C 
ATOM     12  H   UNL     1       1.962  -4.258   1.472  0.00  0.00    +0.173 HD
ENDBRANCH   5   8
ENDBRANCH   1   2
BRANCH   1  13
ATOM     13  C   UNL     1       2.164  -0.013   1.381  0.00  0.00    -0.054 C 
ATOM     14  C   UNL     1       2.540   1.470   1.377  0.00  0.00    -0.012 C 
BRANCH  13  21
ATOM     15  C   UNL     1       0.785  -2.028  -0.005  0.00  0.00    -0.013 C 
ATOM     16  C   UNL     1       0.328  -1.554   1.376  0.00  0.00    -0.071 C 
ATOM     17  C   UNL     1      -1.192  -1.688   1.484  0.00  0.00    -0.016 C 
ATOM     18  C   UNL     1      -1.645  -1.212   2.867  0.00  0.00    -0.003 C 
ATOM     19  C   UNL     1      -1.173   0.229   3.080  0.00  0.00    -0.019 C 
ATOM     20  C   UNL     1       0.347   0.292   2.914  0.00  0.00    -0.078 C 
ATOM     21  N   UNL     1       0.713  -0.150   1.562  0.00  0.00    +0.384 N 
ATOM     22  H   UNL     1       0.235   0.422   0.882  0.00  0.00    -0.081 HD
ENDBRANCH  13  21
ENDBRANCH   1  13
TORSDOF 4
