REMARK  Name = ZINC12532239
REMARK  8 active torsions:
REMARK  status: ('A' for Active; 'I' for Inactive)
REMARK    1  A    between atoms: C_1  and  C_2
REMARK    2  A    between atoms: C_3  and  C_4
REMARK    3  A    between atoms: C_4  and  S_5
REMARK    4  A    between atoms: S_5  and  C_6
REMARK    5  A    between atoms: N_10  and  C_11
REMARK    6  A    between atoms: C_11  and  C_12
REMARK    7  A    between atoms: N_21  and  C_26
REMARK    8  A    between atoms: N_24  and  C_25
REMARK                            x       y       z     vdW  Elec       q    Type
REMARK                         _______ _______ _______ _____ _____    ______ ____
ROOT
ATOM      1  C   UNL     1       2.015   2.516   0.173  0.00  0.00    +0.172 A 
ATOM      2  N   UNL     1       0.797   3.018   0.122  0.00  0.00    -0.204 NA
ATOM      3  C   UNL     1      -0.088   2.045  -0.092  0.00  0.00    +0.169 A 
ATOM      4  C   UNL     1       0.615   0.848  -0.183  0.00  0.00    +0.153 A 
ATOM      5  N   UNL     1       1.956   1.169  -0.012  0.00  0.00    -0.309 N 
ATOM      6  C   UNL     1      -0.089  -0.347  -0.410  0.00  0.00    +0.282 A 
ATOM      7  O   UNL     1       0.507  -1.407  -0.493  0.00  0.00    -0.265 OA
ATOM      8  N   UNL     1      -1.431  -0.308  -0.539  0.00  0.00    -0.262 N 
ATOM      9  C   UNL     1      -2.103   0.853  -0.445  0.00  0.00    +0.333 A 
ATOM     10  O   UNL     1      -3.313   0.849  -0.562  0.00  0.00    -0.246 OA
ATOM     11  N   UNL     1      -1.467   2.020  -0.228  0.00  0.00    -0.280 N 
ATOM     12  C   UNL     1      -2.235   3.264  -0.136  0.00  0.00    +0.155 C 
ATOM     13  C   UNL     1      -2.169  -1.550  -0.782  0.00  0.00    +0.157 C 
ENDROOT
BRANCH   1  14
ATOM     14  S   UNL     1       3.490   3.443   0.437  0.00  0.00    -0.084 S 
BRANCH  14  15
ATOM     15  C   UNL     1       2.792   5.106   0.592  0.00  0.00    +0.104 C 
BRANCH  15  18
ATOM     16  C   UNL     1       5.271   8.009   0.174  0.00  0.00    +0.035 C 
ATOM     17  C   UNL     1       4.160   7.018  -0.065  0.00  0.00    -0.034 C 
ATOM     18  C   UNL     1       3.902   6.097   0.830  0.00  0.00    -0.020 C 
ENDBRANCH  15  18
ENDBRANCH  14  15
ENDBRANCH   1  14
BRANCH   5  19
ATOM     19  C   UNL     1       3.086   0.238  -0.026  0.00  0.00    +0.161 C 
BRANCH  19  20
ATOM     20  C   UNL     1       3.405  -0.188   1.384  0.00  0.00    -0.009 A 
ATOM     21  C   UNL     1       2.586  -1.091   2.035  0.00  0.00    +0.007 A 
ATOM     22  C   UNL     1       2.878  -1.481   3.329  0.00  0.00    +0.000 A 
ATOM     23  C   UNL     1       3.989  -0.968   3.972  0.00  0.00    +0.001 A 
ATOM     24  C   UNL     1       4.809  -0.065   3.322  0.00  0.00    +0.020 A 
ATOM     25  C   UNL     1       4.520   0.322   2.025  0.00  0.00    +0.046 A 
ATOM     26 CL   UNL     1       5.553   1.451   1.206  0.00  0.00    -0.083 Cl
ENDBRANCH  19  20
ENDBRANCH   5  19
TORSDOF 5
