REMARK  Name = ZINC64162156
REMARK  4 active torsions:
REMARK  status: ('A' for Active; 'I' for Inactive)
REMARK    1  A    between atoms: C_6  and  C_10
REMARK    2  A    between atoms: C_15  and  C_20
REMARK    3  A    between atoms: C_16  and  C_18
REMARK    4  A    between atoms: C_23  and  N_25
REMARK                            x       y       z     vdW  Elec       q    Type
REMARK                         _______ _______ _______ _____ _____    ______ ____
ROOT
ATOM      1  C   UNL     1       3.542  -2.787  -1.302  0.00  0.00    +0.110 C 
ATOM      2  C   UNL     1       5.050  -2.788  -1.335  0.00  0.00    +0.084 A 
ATOM      3  C   UNL     1       5.657  -3.963  -1.806  0.00  0.00    +0.122 A 
ATOM      4  N   UNL     1       6.965  -4.085  -1.909  0.00  0.00    -0.225 NA
ATOM      5  C   UNL     1       7.757  -3.078  -1.546  0.00  0.00    +0.177 A 
ATOM      6  C   UNL     1       7.170  -1.899  -1.054  0.00  0.00    +0.176 A 
ATOM      7  N   UNL     1       5.851  -1.791  -0.966  0.00  0.00    -0.235 NA
ATOM      8  S   UNL     1       4.337  -5.104  -2.156  0.00  0.00    -0.085 S 
ATOM      9  C   UNL     1       2.968  -4.221  -1.302  0.00  0.00    +0.128 C 
ENDROOT
BRANCH   1  15
ATOM     10  C   UNL     1      -0.016   1.344   0.009  0.00  0.00    +0.002 A 
ATOM     11  C   UNL     1       1.158   2.118   0.002  0.00  0.00    +0.002 A 
ATOM     12  C   UNL     1       2.389   1.570  -0.013  0.00  0.00    +0.027 A 
ATOM     13  C   UNL     1       2.533   0.108  -0.022  0.00  0.00    +0.060 A 
ATOM     14  N   UNL     1       3.569  -0.680  -0.036  0.00  0.00    -0.363 N 
ATOM     15  C   UNL     1       3.071  -2.062  -0.039  0.00  0.00    +0.185 C 
ATOM     16  N   UNL     1       1.606  -1.974  -0.024  0.00  0.00    -0.363 N 
ATOM     17  C   UNL     1       1.290  -0.712  -0.014  0.00  0.00    +0.060 A 
ATOM     18  C   UNL     1       0.002  -0.004   0.002  0.00  0.00    +0.027 A 
ATOM     19  H   UNL     1       4.499  -0.405  -0.045  0.00  0.00    +0.162 HD
ATOM     20  H   UNL     1       0.987  -2.721  -0.022  0.00  0.00    +0.162 HD
ENDBRANCH   1  15
BRANCH   9  21
ATOM     21  N   UNL     1       2.780  -4.722   0.067  0.00  0.00    -0.318 NA
ATOM     22  H   UNL     1       2.406  -5.659   0.060  0.00  0.00    +0.119 HD
ATOM     23  H   UNL     1       3.642  -4.680   0.589  0.00  0.00    +0.119 HD
ENDBRANCH   9  21
BRANCH   6  24
ATOM     24  C   UNL     1       8.002  -0.808  -0.644  0.00  0.00    +0.122 C 
ATOM     25  N   UNL     1       8.662   0.058  -0.319  0.00  0.00    -0.189 NA
ENDBRANCH   6  24
BRANCH   5  26
ATOM     26  C   UNL     1       9.180  -3.193  -1.656  0.00  0.00    +0.122 C 
ATOM     27  N   UNL     1      10.309  -3.285  -1.743  0.00  0.00    -0.189 NA
ENDBRANCH   5  26
TORSDOF 4
