REMARK  Name = ZINC05455637
REMARK  11 active torsions:
REMARK  status: ('A' for Active; 'I' for Inactive)
REMARK    1  A    between atoms: C_1  and  C_2
REMARK    2  A    between atoms: C_2  and  C_3
REMARK    3  A    between atoms: C_4  and  C_31
REMARK    4  A    between atoms: C_5  and  C_29
REMARK    5  A    between atoms: C_15  and  N_16
REMARK    6  A    between atoms: N_16  and  N_17
REMARK    7  A    between atoms: C_18  and  C_19
REMARK    8  A    between atoms: C_22  and  O_28
REMARK    9  A    between atoms: C_23  and  O_25
REMARK   10  A    between atoms: O_25  and  C_26
REMARK   11  A    between atoms: C_26  and  C_27
REMARK                            x       y       z     vdW  Elec       q    Type
REMARK                         _______ _______ _______ _____ _____    ______ ____
ROOT
ATOM      1  C   UNL     1      -3.725  -4.837  -0.152  0.00  0.00    -0.003 A 
ATOM      2  C   UNL     1      -3.729  -6.224  -0.187  0.00  0.00    -0.023 A 
ATOM      3  C   UNL     1      -2.558  -6.922   0.111  0.00  0.00    +0.098 A 
ATOM      4  C   UNL     1      -1.350  -6.160   0.449  0.00  0.00    +0.158 A 
ATOM      5  N   UNL     1      -0.129  -6.550   0.767  0.00  0.00    -0.226 NA
ATOM      6  C   UNL     1       0.649  -5.466   0.997  0.00  0.00    +0.090 A 
ATOM      7  C   UNL     1       1.992  -5.308   1.359  0.00  0.00    +0.030 A 
ATOM      8  C   UNL     1       2.511  -4.056   1.523  0.00  0.00    +0.002 A 
ATOM      9  C   UNL     1       1.719  -2.931   1.334  0.00  0.00    +0.002 A 
ATOM     10  C   UNL     1       0.393  -3.062   0.978  0.00  0.00    +0.028 A 
ATOM     11  C   UNL     1      -0.152  -4.326   0.806  0.00  0.00    +0.075 A 
ATOM     12  N   UNL     1      -1.411  -4.788   0.461  0.00  0.00    -0.278 N 
ATOM     13  C   UNL     1      -2.578  -4.142   0.162  0.00  0.00    +0.128 A 
ATOM     14  C   UNL     1      -4.989  -6.972  -0.539  0.00  0.00    +0.045 C 
ENDROOT
BRANCH   1  16
ATOM     15  C   UNL     1      -5.127  -3.927  -1.984  0.00  0.00    +0.009 C 
ATOM     16  C   UNL     1      -4.990  -4.082  -0.468  0.00  0.00    +0.035 C 
ENDBRANCH   1  16
BRANCH  13  17
ATOM     17  N   UNL     1      -2.610  -2.769   0.182  0.00  0.00    -0.222 N 
ATOM     18  H   UNL     1      -2.090  -2.281   0.840  0.00  0.00    +0.176 HD
BRANCH  17  19
ATOM     19  N   UNL     1      -3.393  -2.073  -0.748  0.00  0.00    -0.189 NA
ATOM     20  C   UNL     1      -3.354  -0.775  -0.788  0.00  0.00    +0.138 C 
BRANCH  20  21
ATOM     21  C   UNL     1      -4.238  -0.040  -1.710  0.00  0.00    -0.002 A 
ATOM     22  C   UNL     1      -5.024  -0.736  -2.632  0.00  0.00    +0.013 A 
ATOM     23  C   UNL     1      -5.850  -0.045  -3.493  0.00  0.00    +0.050 A 
ATOM     24  C   UNL     1      -5.904   1.340  -3.447  0.00  0.00    +0.158 A 
ATOM     25  C   UNL     1      -5.124   2.041  -2.529  0.00  0.00    +0.162 A 
ATOM     26  C   UNL     1      -4.293   1.356  -1.663  0.00  0.00    +0.059 A 
BRANCH  24  27
ATOM     27  O   UNL     1      -6.721   2.016  -4.298  0.00  0.00    -0.503 OA
ATOM     28  H   UNL     1      -7.611   2.166  -3.953  0.00  0.00    +0.292 HD
ENDBRANCH  24  27
BRANCH  25  29
ATOM     29  O   UNL     1      -5.180   3.399  -2.486  0.00  0.00    -0.489 OA
BRANCH  29  30
ATOM     30  C   UNL     1      -4.354   4.053  -1.521  0.00  0.00    +0.226 C 
ATOM     31  C   UNL     1      -4.551   5.566  -1.622  0.00  0.00    +0.048 C 
ENDBRANCH  29  30
ENDBRANCH  25  29
ENDBRANCH  20  21
ENDBRANCH  17  19
ENDBRANCH  13  17
BRANCH   3  32
ATOM     32  C   UNL     1      -2.535  -8.353   0.088  0.00  0.00    +0.103 C 
ATOM     33  N   UNL     1      -2.517  -9.489   0.070  0.00  0.00    -0.191 NA
ENDBRANCH   3  32
TORSDOF 8
