REMARK  Name = ZINC61785883
REMARK  6 active torsions:
REMARK  status: ('A' for Active; 'I' for Inactive)
REMARK    1  A    between atoms: C_1  and  C_2
REMARK    2  A    between atoms: C_2  and  N_3
REMARK    3  A    between atoms: C_4  and  C_6
REMARK    4  A    between atoms: N_14  and  C_15
REMARK    5  A    between atoms: C_20  and  S_21
REMARK    6  A    between atoms: S_21  and  C_22
REMARK                            x       y       z     vdW  Elec       q    Type
REMARK                         _______ _______ _______ _____ _____    ______ ____
ROOT
ATOM      1  C   UNL     1       2.148  -2.467   2.548  0.00  0.00    +0.092 C 
ATOM      2  C   UNL     1       1.914  -3.978   2.611  0.00  0.00    +0.016 C 
ATOM      3  C   UNL     1       2.433  -4.521   3.945  0.00  0.00    +0.020 C 
ATOM      4  C   UNL     1       1.661  -3.865   5.093  0.00  0.00    +0.109 C 
ATOM      5  N   UNL     1       1.760  -2.405   4.956  0.00  0.00    -0.285 N 
ATOM      6  C   UNL     1       1.373  -1.787   3.681  0.00  0.00    +0.122 C 
ATOM      7  C   UNL     1       2.198  -1.647   5.981  0.00  0.00    +0.306 C 
ATOM      8  O   UNL     1       2.365  -0.453   5.827  0.00  0.00    -0.252 OA
ATOM      9  N   UNL     1       2.452  -2.214   7.178  0.00  0.00    -0.268 N 
ATOM     10  H   UNL     1       2.382  -3.175   7.284  0.00  0.00    +0.156 HD
ENDROOT
BRANCH   9  11
ATOM     11  C   UNL     1       2.816  -1.413   8.269  0.00  0.00    +0.050 A 
ATOM     12  C   UNL     1       2.566  -0.050   8.245  0.00  0.00    +0.044 A 
ATOM     13  C   UNL     1       2.926   0.739   9.324  0.00  0.00    +0.043 A 
ATOM     14  C   UNL     1       3.538   0.170  10.427  0.00  0.00    +0.021 A 
ATOM     15  C   UNL     1       3.791  -1.188  10.459  0.00  0.00    +0.018 A 
ATOM     16  C   UNL     1       3.427  -1.987   9.384  0.00  0.00    +0.029 A 
ATOM     17 CL   UNL     1       2.612   2.446   9.291  0.00  0.00    -0.083 Cl
BRANCH  16  18
ATOM     18  S   UNL     1       3.742  -3.720   9.425  0.00  0.00    -0.127 S 
ATOM     19  C   UNL     1       4.528  -3.985  11.038  0.00  0.00    +0.090 C 
ENDBRANCH  16  18
ENDBRANCH   9  11
BRANCH   1  21
ATOM     20  N   UNL     1       1.770  -0.624   0.942  0.00  0.00    -0.315 N 
ATOM     21  C   UNL     1       1.667  -1.939   1.221  0.00  0.00    +0.218 C 
ATOM     22  O   UNL     1       1.187  -2.696   0.405  0.00  0.00    -0.275 OA
ATOM     23  H   UNL     1       2.154  -0.018   1.595  0.00  0.00    +0.149 HD
BRANCH  20  25
ATOM     24  C   UNL     1       1.532   1.401  -0.408  0.00  0.00    +0.024 C 
ATOM     25  C   UNL     1       1.302  -0.111  -0.348  0.00  0.00    +0.101 C 
ENDBRANCH  20  25
ENDBRANCH   1  21
TORSDOF 4
