REMARK  Name = ZINC32121726
REMARK  8 active torsions:
REMARK  status: ('A' for Active; 'I' for Inactive)
REMARK    1  A    between atoms: C_4  and  O_34
REMARK    2  A    between atoms: C_5  and  C_7
REMARK    3  A    between atoms: N_9  and  N_10
REMARK    4  A    between atoms: C_11  and  C_12
REMARK    5  A    between atoms: C_15  and  S_21
REMARK    6  A    between atoms: C_16  and  N_18
REMARK    7  A    between atoms: S_21  and  C_22
REMARK    8  A    between atoms: C_27  and  N_31
REMARK                            x       y       z     vdW  Elec       q    Type
REMARK                         _______ _______ _______ _____ _____    ______ ____
ROOT
ATOM      1  C   UNL     1      -0.125  -2.115   5.995  0.00  0.00    -0.003 A 
ATOM      2  C   UNL     1       0.058  -2.804   4.792  0.00  0.00    +0.011 A 
ATOM      3  C   UNL     1       0.082  -4.181   4.787  0.00  0.00    +0.018 A 
ATOM      4  C   UNL     1      -0.087  -4.886   5.974  0.00  0.00    +0.045 A 
ATOM      5  C   UNL     1      -0.274  -4.204   7.172  0.00  0.00    +0.141 A 
ATOM      6  C   UNL     1      -0.294  -2.827   7.186  0.00  0.00    +0.043 A 
ENDROOT
BRANCH   5   7
ATOM      7  N   UNL     1      -0.452  -4.959   8.433  0.00  0.00    +0.058 N 
ATOM      8  O   UNL     1      -0.616  -4.362   9.482  0.00  0.00    -0.126 OA
ATOM      9  O   UNL     1      -0.435  -6.177   8.421  0.00  0.00    -0.126 OA
ENDBRANCH   5   7
BRANCH   1  11
ATOM     10  N   UNL     1      -0.420   0.012   4.919  0.00  0.00    -0.187 NA
ATOM     11  C   UNL     1      -0.145  -0.642   6.006  0.00  0.00    +0.138 C 
BRANCH  10  14
ATOM     12  C   UNL     1      -1.161  -0.012   2.656  0.00  0.00    +0.267 C 
ATOM     13  O   UNL     1      -0.699   1.104   2.506  0.00  0.00    -0.268 OA
ATOM     14  N   UNL     1      -1.012  -0.649   3.835  0.00  0.00    -0.203 N 
ATOM     15  H   UNL     1      -1.357  -1.688   3.946  0.00  0.00    +0.178 HD
BRANCH  12  20
ATOM     16  C   UNL     1      -2.989  -2.596   0.640  0.00  0.00    +0.001 A 
ATOM     17  C   UNL     1      -3.238  -1.901  -0.532  0.00  0.00    +0.004 A 
ATOM     18  C   UNL     1      -2.819  -0.593  -0.671  0.00  0.00    +0.046 A 
ATOM     19  C   UNL     1      -2.135   0.032   0.361  0.00  0.00    +0.129 A 
ATOM     20  C   UNL     1      -1.882  -0.667   1.549  0.00  0.00    +0.080 A 
ATOM     21  C   UNL     1      -2.316  -1.989   1.679  0.00  0.00    +0.017 A 
BRANCH  19  22
ATOM     22  O   UNL     1      -1.719   1.316   0.224  0.00  0.00    -0.506 OA
ATOM     23  H   UNL     1      -1.177   1.809   1.045  0.00  0.00    +0.292 HD
ENDBRANCH  19  22
ENDBRANCH  12  20
ENDBRANCH  10  14
ENDBRANCH   1  11
BRANCH   4  24
ATOM     24  S   UNL     1      -0.062  -6.648   5.961  0.00  0.00    -0.060 S 
BRANCH  24  25
ATOM     25  C   UNL     1       1.521  -6.938   6.678  0.00  0.00    +0.140 A 
ATOM     26  N   UNL     1       2.376  -6.068   7.167  0.00  0.00    -0.232 NA
ATOM     27  C   UNL     1       3.563  -6.436   7.695  0.00  0.00    +0.080 A 
ATOM     28  C   UNL     1       4.564  -5.608   8.255  0.00  0.00    +0.031 A 
ATOM     29  C   UNL     1       5.725  -6.147   8.744  0.00  0.00    +0.035 A 
ATOM     30  C   UNL     1       5.961  -7.514   8.711  0.00  0.00    +0.127 A 
ATOM     31  C   UNL     1       5.004  -8.353   8.170  0.00  0.00    +0.050 A 
ATOM     32  C   UNL     1       3.838  -7.822   7.677  0.00  0.00    +0.042 A 
ATOM     33  S   UNL     1       2.377  -8.489   6.917  0.00  0.00    -0.061 S 
BRANCH  30  34
ATOM     34  N   UNL     1       7.224  -8.068   9.248  0.00  0.00    +0.056 N 
ATOM     35  O   UNL     1       7.424  -9.269   9.215  0.00  0.00    -0.126 OA
ATOM     36  O   UNL     1       8.063  -7.323   9.722  0.00  0.00    -0.126 OA
ENDBRANCH  30  34
ENDBRANCH  24  25
ENDBRANCH   4  24
TORSDOF 8
