REMARK  Name = ZINC66925660
REMARK  8 active torsions:
REMARK  status: ('A' for Active; 'I' for Inactive)
REMARK    1  A    between atoms: C_1  and  C_2
REMARK    2  A    between atoms: C_2  and  N_3
REMARK    3  A    between atoms: C_11  and  C_12
REMARK    4  A    between atoms: C_12  and  C_14
REMARK    5  A    between atoms: C_12  and  N_15
REMARK    6  A    between atoms: N_18  and  C_19
REMARK    7  A    between atoms: C_19  and  C_20
REMARK    8  A    between atoms: C_20  and  O_30
REMARK                            x       y       z     vdW  Elec       q    Type
REMARK                         _______ _______ _______ _____ _____    ______ ____
ROOT
ATOM      1  N   UNL     1      -1.287   0.368   3.917  0.00  0.00    -0.290 N 
ATOM      2  C   UNL     1      -2.479   0.891   4.263  0.00  0.00    +0.300 C 
ATOM      3  O   UNL     1      -3.415   0.837   3.489  0.00  0.00    -0.253 OA
ATOM      4  N   UNL     1      -2.635   1.474   5.468  0.00  0.00    -0.296 N 
ATOM      5  H   UNL     1      -0.540   0.411   4.535  0.00  0.00    +0.151 HD
ATOM      6  H   UNL     1      -1.889   1.517   6.087  0.00  0.00    +0.150 HD
ENDROOT
BRANCH   1   7
ATOM      7  C   UNL     1      -1.117  -0.266   2.607  0.00  0.00    +0.138 C 
ATOM      8  C   UNL     1      -1.570  -1.725   2.684  0.00  0.00    +0.036 C 
BRANCH   7  17
ATOM      9  N   UNL     1       0.789   0.141   0.973  0.00  0.00    -0.326 N 
ATOM     10  C   UNL     1       2.168   0.075   1.010  0.00  0.00    +0.069 A 
ATOM     11  C   UNL     1       3.173   0.317   0.083  0.00  0.00    +0.028 A 
ATOM     12  C   UNL     1       4.492   0.153   0.448  0.00  0.00    +0.002 A 
ATOM     13  C   UNL     1       4.821  -0.252   1.734  0.00  0.00    +0.002 A 
ATOM     14  C   UNL     1       3.846  -0.496   2.659  0.00  0.00    +0.030 A 
ATOM     15  C   UNL     1       2.502  -0.335   2.312  0.00  0.00    +0.089 A 
ATOM     16  N   UNL     1       1.335  -0.495   2.988  0.00  0.00    -0.230 NA
ATOM     17  C   UNL     1       0.334  -0.210   2.206  0.00  0.00    +0.131 A 
BRANCH   9  19
ATOM     18  C   UNL     1      -0.255   2.038  -0.164  0.00  0.00    +0.027 C 
ATOM     19  C   UNL     1      -0.031   0.524  -0.178  0.00  0.00    +0.120 C 
ENDBRANCH   9  19
ENDBRANCH   7  17
ENDBRANCH   1   7
BRANCH   4  20
ATOM     20  C   UNL     1      -3.932   2.042   5.845  0.00  0.00    +0.145 C 
BRANCH  20  21
ATOM     21  C   UNL     1      -3.877   2.519   7.298  0.00  0.00    +0.107 C 
ATOM     22  C   UNL     1      -3.479   1.350   8.197  0.00  0.00    +0.041 C 
ATOM     23  C   UNL     1      -3.641   1.786   9.658  0.00  0.00    +0.008 C 
ATOM     24  C   UNL     1      -5.133   1.926   9.956  0.00  0.00    +0.035 C 
ATOM     25  C   UNL     1      -5.801   2.788   8.917  0.00  0.00    -0.041 A 
ATOM     26  C   UNL     1      -5.226   3.058   7.695  0.00  0.00    -0.011 A 
ATOM     27  C   UNL     1      -5.900   3.855   6.779  0.00  0.00    +0.007 A 
ATOM     28  C   UNL     1      -7.137   4.383   7.085  0.00  0.00    +0.000 A 
ATOM     29  C   UNL     1      -7.713   4.116   8.313  0.00  0.00    +0.000 A 
ATOM     30  C   UNL     1      -7.046   3.322   9.224  0.00  0.00    +0.004 A 
BRANCH  21  31
ATOM     31  O   UNL     1      -2.902   3.557   7.417  0.00  0.00    -0.382 OA
ATOM     32  H   UNL     1      -3.083   4.331   6.867  0.00  0.00    +0.211 HD
ENDBRANCH  21  31
ENDBRANCH  20  21
ENDBRANCH   4  20
TORSDOF 6
