REMARK  Name = ZINC65062060
REMARK  9 active torsions:
REMARK  status: ('A' for Active; 'I' for Inactive)
REMARK    1  A    between atoms: C_1  and  C_2
REMARK    2  A    between atoms: C_2  and  C_4
REMARK    3  A    between atoms: C_2  and  N_25
REMARK    4  A    between atoms: C_4  and  C_5
REMARK    5  A    between atoms: C_5  and  N_6
REMARK    6  A    between atoms: C_7  and  C_9
REMARK    7  A    between atoms: C_9  and  C_10
REMARK    8  A    between atoms: N_13  and  S_16
REMARK    9  A    between atoms: S_16  and  C_19
REMARK                            x       y       z     vdW  Elec       q    Type
REMARK                         _______ _______ _______ _____ _____    ______ ____
ROOT
ATOM      1  N   UNL     1       0.965  -3.100  -1.930  0.00  0.00    -0.315 N 
ATOM      2  C   UNL     1       1.003  -4.445  -1.843  0.00  0.00    +0.213 C 
ATOM      3  O   UNL     1       0.673  -4.995  -0.814  0.00  0.00    -0.276 OA
ATOM      4  H   UNL     1       1.229  -2.660  -2.753  0.00  0.00    +0.149 HD
ENDROOT
BRANCH   1   5
ATOM      5  C   UNL     1       0.524  -2.304  -0.782  0.00  0.00    +0.102 C 
BRANCH   5   6
ATOM      6  C   UNL     1       0.574  -0.818  -1.143  0.00  0.00    +0.003 C 
BRANCH   6   8
ATOM      7  C   UNL     1       0.307   1.505  -0.263  0.00  0.00    -0.013 C 
ATOM      8  C   UNL     1       0.242   0.019   0.094  0.00  0.00    -0.070 C 
BRANCH   8   9
ATOM      9  N   UNL     1      -1.109  -0.314   0.562  0.00  0.00    +0.381 N 
ATOM     10  C   UNL     1      -2.079   0.057  -0.487  0.00  0.00    -0.078 C 
ATOM     11  C   UNL     1      -3.315  -0.788  -0.310  0.00  0.00    -0.019 C 
ATOM     12  C   UNL     1      -4.394  -0.046   0.501  0.00  0.00    -0.002 C 
ATOM     13  C   UNL     1      -3.784   0.737   1.681  0.00  0.00    -0.002 C 
ATOM     14  C   UNL     1      -2.702  -0.038   2.388  0.00  0.00    -0.019 C 
ATOM     15  C   UNL     1      -1.335   0.335   1.778  0.00  0.00    -0.078 C 
ATOM     16  H   UNL     1      -1.163  -1.310   0.713  0.00  0.00    -0.081 HD
ENDBRANCH   8   9
ENDBRANCH   6   8
ENDBRANCH   5   6
ENDBRANCH   1   5
BRANCH   2  17
ATOM     17  C   UNL     1       1.456  -5.264  -3.023  0.00  0.00    +0.099 C 
BRANCH  17  18
ATOM     18  C   UNL     1       1.407  -6.750  -2.663  0.00  0.00    +0.000 C 
ATOM     19  C   UNL     1       2.421  -7.039  -1.554  0.00  0.00    +0.021 C 
ATOM     20  C   UNL     1       2.344  -8.521  -1.171  0.00  0.00    +0.110 C 
ATOM     21  N   UNL     1       2.526  -9.332  -2.382  0.00  0.00    -0.176 NA
ATOM     22  C   UNL     1       1.662  -9.074  -3.542  0.00  0.00    +0.110 C 
ATOM     23  C   UNL     1       1.746  -7.586  -3.898  0.00  0.00    +0.021 C 
BRANCH  21  24
ATOM     24  S   UNL     1       3.683 -10.515  -2.439  0.00  0.00    +0.067 S 
ATOM     25  O   UNL     1       3.996 -10.712  -3.811  0.00  0.00    -0.152 OA
ATOM     26  O   UNL     1       4.668 -10.166  -1.476  0.00  0.00    -0.152 OA
BRANCH  24  27
ATOM     27  C   UNL     1       2.933 -12.006  -1.875  0.00  0.00    +0.144 A 
ATOM     28  C   UNL     1       2.290 -12.961  -2.590  0.00  0.00    +0.038 A 
ATOM     29  C   UNL     1       1.774 -14.060  -1.928  0.00  0.00    +0.030 A 
ATOM     30  C   UNL     1       1.926 -14.149  -0.583  0.00  0.00    +0.080 A 
ATOM     31  S   UNL     1       2.829 -12.654  -0.214  0.00  0.00    -0.057 S 
ATOM     32 CL   UNL     1       1.389 -15.397   0.498  0.00  0.00    -0.076 Cl
ENDBRANCH  24  27
ENDBRANCH  21  24
ENDBRANCH  17  18
ENDBRANCH   2  17
TORSDOF 8
