REMARK  Name = ZINC50292421
REMARK  4 active torsions:
REMARK  status: ('A' for Active; 'I' for Inactive)
REMARK    1  A    between atoms: C_1  and  C_2
REMARK    2  A    between atoms: C_6  and  C_19
REMARK    3  A    between atoms: C_10  and  C_12
REMARK    4  A    between atoms: C_12  and  C_16
REMARK                            x       y       z     vdW  Elec       q    Type
REMARK                         _______ _______ _______ _____ _____    ______ ____
ROOT
ATOM      1  C   UNL     1       2.225   0.393  -1.439  0.00  0.00    +0.028 C 
ATOM      2  C   UNL     1       1.512  -0.094  -0.176  0.00  0.00    +0.073 C 
ATOM      3  C   UNL     1       0.023  -0.294  -0.472  0.00  0.00    +0.023 C 
ATOM      4  C   UNL     1      -0.658  -0.912   0.752  0.00  0.00    +0.016 C 
ATOM      5  C   UNL     1      -0.036  -2.279   1.048  0.00  0.00    +0.092 C 
ATOM      6  C   UNL     1       1.453  -2.102   1.361  0.00  0.00    +0.120 C 
ATOM      7  N   UNL     1       2.089  -1.376   0.252  0.00  0.00    -0.297 N 
ATOM      8  C   UNL     1       3.178  -1.879  -0.363  0.00  0.00    +0.233 C 
ATOM      9  O   UNL     1       3.697  -1.267  -1.272  0.00  0.00    -0.274 OA
ENDROOT
BRANCH   5  10
ATOM     10  C   UNL     1      -0.195  -3.174  -0.154  0.00  0.00    +0.215 C 
ATOM     11  O   UNL     1       0.203  -2.808  -1.240  0.00  0.00    -0.276 OA
ATOM     12  N   UNL     1      -0.779  -4.382  -0.023  0.00  0.00    -0.329 N 
ATOM     13  H   UNL     1      -1.097  -4.674   0.846  0.00  0.00    +0.145 HD
ATOM     14  H   UNL     1      -0.881  -4.958  -0.796  0.00  0.00    +0.145 HD
ENDBRANCH   5  10
BRANCH   8  15
ATOM     15  C   UNL     1       3.750  -3.201   0.079  0.00  0.00    +0.148 C 
ATOM     16  C   UNL     1       4.602  -3.108   1.356  0.00  0.00    +0.028 C 
ATOM     17  C   UNL     1       5.565  -4.106   0.692  0.00  0.00    +0.003 C 
ATOM     18  C   UNL     1       5.041  -3.592  -0.660  0.00  0.00    +0.028 C 
BRANCH  15  19
ATOM     19  C   UNL     1       2.720  -4.301   0.117  0.00  0.00    +0.371 C 
ATOM     20  O   UNL     1       2.003  -4.498  -0.849  0.00  0.00    -0.245 OA
ATOM     21  O   UNL     1       2.604  -4.993   1.114  0.00  0.00    -0.245 OA
ENDBRANCH  15  19
ENDBRANCH   8  15
TORSDOF 3
