REMARK  Name = ZINC04729513
REMARK  5 active torsions:
REMARK  status: ('A' for Active; 'I' for Inactive)
REMARK    1  A    between atoms: C_14  and  N_15
REMARK    2  A    between atoms: N_15  and  N_16
REMARK    3  A    between atoms: C_17  and  C_18
REMARK    4  A    between atoms: C_21  and  O_25
REMARK    5  A    between atoms: C_22  and  O_24
REMARK                            x       y       z     vdW  Elec       q    Type
REMARK                         _______ _______ _______ _____ _____    ______ ____
ROOT
ATOM      1  C   UNL     1       1.164   2.078   0.002  0.00  0.00    +0.001 A 
ATOM      2  C   UNL     1       2.380   1.406  -0.013  0.00  0.00    +0.001 A 
ATOM      3  C   UNL     1       2.428   0.040  -0.021  0.00  0.00    +0.012 A 
ATOM      4  C   UNL     1       1.238  -0.690  -0.013  0.00  0.00    +0.024 A 
ATOM      5  C   UNL     1       0.002  -0.004   0.002  0.00  0.00    -0.005 A 
ATOM      6  C   UNL     1      -0.017   1.389   0.010  0.00  0.00    +0.009 A 
ATOM      7  C   UNL     1      -1.225  -0.809   0.010  0.00  0.00    +0.008 A 
ATOM      8  C   UNL     1      -2.485  -0.211   0.025  0.00  0.00    +0.010 A 
ATOM      9  C   UNL     1      -3.606  -0.992   0.031  0.00  0.00    +0.001 A 
ATOM     10  C   UNL     1      -3.503  -2.377   0.023  0.00  0.00    +0.002 A 
ATOM     11  C   UNL     1      -2.285  -2.989   0.008  0.00  0.00    +0.028 A 
ATOM     12  C   UNL     1      -1.112  -2.217   0.001  0.00  0.00    +0.074 A 
ATOM     13  N   UNL     1       0.091  -2.815  -0.013  0.00  0.00    -0.230 NA
ATOM     14  C   UNL     1       1.225  -2.154  -0.021  0.00  0.00    +0.146 A 
ENDROOT
BRANCH  14  15
ATOM     15  N   UNL     1       2.419  -2.847  -0.036  0.00  0.00    -0.220 N 
ATOM     16  H   UNL     1       3.260  -2.364  -0.042  0.00  0.00    +0.176 HD
BRANCH  15  17
ATOM     17  N   UNL     1       2.416  -4.248  -0.043  0.00  0.00    -0.189 NA
ATOM     18  C   UNL     1       3.539  -4.900  -0.057  0.00  0.00    +0.138 C 
BRANCH  18  19
ATOM     19  C   UNL     1       3.535  -6.374  -0.064  0.00  0.00    -0.002 A 
ATOM     20  C   UNL     1       2.325  -7.072  -0.050  0.00  0.00    +0.013 A 
ATOM     21  C   UNL     1       2.324  -8.451  -0.062  0.00  0.00    +0.050 A 
ATOM     22  C   UNL     1       3.523  -9.148  -0.077  0.00  0.00    +0.158 A 
ATOM     23  C   UNL     1       4.734  -8.459  -0.086  0.00  0.00    +0.159 A 
ATOM     24  C   UNL     1       4.743  -7.077  -0.080  0.00  0.00    +0.058 A 
BRANCH  23  25
ATOM     25  O   UNL     1       5.907  -9.147  -0.102  0.00  0.00    -0.503 OA
ATOM     26  H   UNL     1       6.255  -9.350   0.777  0.00  0.00    +0.292 HD
ENDBRANCH  23  25
BRANCH  22  27
ATOM     27  O   UNL     1       3.516 -10.508  -0.083  0.00  0.00    -0.503 OA
ATOM     28  H   UNL     1       3.523 -10.905   0.798  0.00  0.00    +0.292 HD
ENDBRANCH  22  27
ENDBRANCH  18  19
ENDBRANCH  15  17
ENDBRANCH  14  15
TORSDOF 5
