REMARK  Name = ZINC45658205
REMARK  10 active torsions:
REMARK  status: ('A' for Active; 'I' for Inactive)
REMARK    1  A    between atoms: C_1  and  C_2
REMARK    2  A    between atoms: C_2  and  C_4
REMARK    3  A    between atoms: C_2  and  N_11
REMARK    4  A    between atoms: N_11  and  C_12
REMARK    5  A    between atoms: N_15  and  C_16
REMARK    6  A    between atoms: C_16  and  C_17
REMARK    7  A    between atoms: C_17  and  C_19
REMARK    8  A    between atoms: C_17  and  N_24
REMARK    9  A    between atoms: N_24  and  C_25
REMARK   10  A    between atoms: N_24  and  C_26
REMARK                            x       y       z     vdW  Elec       q    Type
REMARK                         _______ _______ _______ _____ _____    ______ ____
ROOT
ATOM      1  N   UNL     1       0.696  -0.253   1.178  0.00  0.00    -0.282 N 
ATOM      2  C   UNL     1       2.022   0.296   1.470  0.00  0.00    +0.134 C 
ATOM      3  C   UNL     1       0.163  -1.192   1.984  0.00  0.00    +0.302 C 
ATOM      4  O   UNL     1      -0.938  -1.648   1.742  0.00  0.00    -0.253 OA
ATOM      5  N   UNL     1       0.850  -1.627   3.059  0.00  0.00    -0.300 N 
ATOM      6  H   UNL     1       1.729  -1.264   3.252  0.00  0.00    +0.150 HD
ENDROOT
BRANCH   1   8
ATOM      7  C   UNL     1      -0.183   1.743   0.071  0.00  0.00    +0.033 C 
ATOM      8  C   UNL     1      -0.052   0.220   0.010  0.00  0.00    +0.104 C 
BRANCH   8   9
ATOM      9  C   UNL     1       0.681  -0.172  -1.247  0.00  0.00    -0.027 A 
ATOM     10  C   UNL     1       1.443  -1.325  -1.272  0.00  0.00    +0.008 A 
ATOM     11  C   UNL     1       2.115  -1.685  -2.424  0.00  0.00    +0.038 A 
ATOM     12  C   UNL     1       2.025  -0.891  -3.554  0.00  0.00    +0.123 A 
ATOM     13  C   UNL     1       1.262   0.264  -3.529  0.00  0.00    +0.038 A 
ATOM     14  C   UNL     1       0.586   0.620  -2.376  0.00  0.00    +0.008 A 
ATOM     15  F   UNL     1       2.682  -1.242  -4.682  0.00  0.00    -0.205 F 
ENDBRANCH   8   9
ENDBRANCH   1   8
BRANCH   5  16
ATOM     16  C   UNL     1       0.271  -2.648   3.935  0.00  0.00    +0.095 C 
BRANCH  16  17
ATOM     17  C   UNL     1       1.298  -3.053   4.995  0.00  0.00    -0.020 C 
BRANCH  17  18
ATOM     18  C   UNL     1       2.490  -3.684   4.324  0.00  0.00    -0.052 A 
ATOM     19  C   UNL     1       3.644  -2.953   4.112  0.00  0.00    +0.009 A 
ATOM     20  C   UNL     1       4.699  -3.551   3.505  0.00  0.00    +0.045 A 
ATOM     21  S   UNL     1       4.073  -5.197   3.214  0.00  0.00    -0.105 S 
ATOM     22  C   UNL     1       2.450  -4.979   3.925  0.00  0.00    +0.047 A 
ENDBRANCH  17  18
BRANCH  17  23
ATOM     23  N   UNL     1       0.691  -4.017   5.922  0.00  0.00    +0.382 N 
ATOM     24  C   UNL     1       1.641  -4.327   6.998  0.00  0.00    -0.096 C 
ATOM     25  C   UNL     1      -0.531  -3.439   6.499  0.00  0.00    -0.096 C 
ATOM     26  H   UNL     1       0.459  -4.863   5.424  0.00  0.00    -0.082 HD
ENDBRANCH  17  23
ENDBRANCH  16  17
ENDBRANCH   5  16
TORSDOF 6
