REMARK  Name = ZINC39590293
REMARK  3 active torsions:
REMARK  status: ('A' for Active; 'I' for Inactive)
REMARK    1  A    between atoms: C_13  and  C_15
REMARK    2  A    between atoms: C_18  and  N_22
REMARK    3  A    between atoms: C_23  and  C_25
REMARK                            x       y       z     vdW  Elec       q    Type
REMARK                         _______ _______ _______ _____ _____    ______ ____
ROOT
ATOM      1  C   UNL     1       0.072  -6.615   1.173  0.00  0.00    +0.086 C 
ATOM      2  C   UNL     1       0.097  -7.961   1.261  0.00  0.00    +0.021 C 
ATOM      3  N   UNL     1      -1.038  -8.690   1.261  0.00  0.00    -0.320 N 
ATOM      4  C   UNL     1      -0.927 -10.100   0.826  0.00  0.00    +0.219 C 
ATOM      5  S   UNL     1       0.807 -10.471   1.336  0.00  0.00    -0.114 S 
ATOM      6  C   UNL     1       1.407  -8.728   1.359  0.00  0.00    +0.123 C 
ATOM      7  H   UNL     1      -1.887  -8.308   1.534  0.00  0.00    +0.148 HD
ENDROOT
BRANCH   1  20
ATOM      8  C   UNL     1       0.079   1.341   2.502  0.00  0.00    +0.005 A 
ATOM      9  C   UNL     1       1.293   2.015   2.491  0.00  0.00    +0.018 A 
ATOM     10  C   UNL     1       2.468   1.291   2.458  0.00  0.00    +0.084 A 
ATOM     11  N   UNL     1       2.450  -0.028   2.436  0.00  0.00    -0.350 N 
ATOM     12  C   UNL     1       1.313  -0.707   2.446  0.00  0.00    +0.099 A 
ATOM     13  C   UNL     1       0.091  -0.042   2.479  0.00  0.00    +0.042 A 
ATOM     14  N   UNL     1       1.340  -2.097   2.422  0.00  0.00    -0.314 N 
ATOM     15  C   UNL     1       0.098  -2.871   2.548  0.00  0.00    +0.125 C 
ATOM     16  C   UNL     1      -0.015  -3.816   1.345  0.00  0.00    +0.127 C 
ATOM     17  N   UNL     1       1.257  -4.537   1.194  0.00  0.00    -0.295 N 
ATOM     18  C   UNL     1       2.499  -3.762   1.068  0.00  0.00    +0.127 C 
ATOM     19  C   UNL     1       2.611  -2.817   2.265  0.00  0.00    +0.125 C 
ATOM     20  C   UNL     1       1.283  -5.884   1.171  0.00  0.00    +0.241 C 
ATOM     21  O   UNL     1       2.349  -6.472   1.148  0.00  0.00    -0.271 OA
ATOM     22  H   UNL     1       3.290  -0.513   2.413  0.00  0.00    +0.166 HD
ENDBRANCH   1  20
BRANCH   4  23
ATOM     23  N   UNL     1      -1.884 -10.952   1.537  0.00  0.00    -0.284 N 
ATOM     24  C   UNL     1      -2.152 -12.191   1.080  0.00  0.00    +0.251 C 
ATOM     25  O   UNL     1      -1.672 -12.568   0.028  0.00  0.00    -0.270 OA
ATOM     26  H   UNL     1      -2.324 -10.624   2.337  0.00  0.00    +0.152 HD
BRANCH  24  27
ATOM     27  C   UNL     1      -3.026 -13.086   1.853  0.00  0.00    +0.101 A 
ATOM     28  C   UNL     1      -3.222 -14.406   1.451  0.00  0.00    +0.020 A 
ATOM     29  C   UNL     1      -4.057 -15.226   2.210  0.00  0.00    +0.018 A 
ATOM     30  C   UNL     1      -4.666 -14.737   3.320  0.00  0.00    +0.086 A 
ATOM     31  N   UNL     1      -4.481 -13.455   3.716  0.00  0.00    -0.328 N 
ATOM     32  C   UNL     1      -3.680 -12.623   3.024  0.00  0.00    +0.261 A 
ATOM     33  O   UNL     1      -3.521 -11.475   3.399  0.00  0.00    -0.267 OA
ATOM     34  H   UNL     1      -4.929 -13.133   4.514  0.00  0.00    +0.168 HD
ENDBRANCH  24  27
ENDBRANCH   4  23
TORSDOF 3
