REMARK  Name = ZINC57151284
REMARK  4 active torsions:
REMARK  status: ('A' for Active; 'I' for Inactive)
REMARK    1  A    between atoms: C_6  and  N_7
REMARK    2  A    between atoms: C_10  and  C_13
REMARK    3  A    between atoms: C_13  and  N_14
REMARK    4  A    between atoms: N_14  and  C_15
REMARK                            x       y       z     vdW  Elec       q    Type
REMARK                         _______ _______ _______ _____ _____    ______ ____
ROOT
ATOM      1  N   UNL     1      -1.198  -0.721   0.010  0.00  0.00    -0.330 N 
ATOM      2  C   UNL     1      -2.546  -0.134   0.020  0.00  0.00    +0.105 C 
ATOM      3  C   UNL     1      -3.555  -1.302  -0.002  0.00  0.00    +0.025 C 
ATOM      4  C   UNL     1      -2.722  -2.469  -0.594  0.00  0.00    +0.025 C 
ATOM      5  C   UNL     1      -1.323  -2.190   0.003  0.00  0.00    +0.110 C 
ENDROOT
BRANCH   1  11
ATOM      6  C   UNL     1      -0.017   1.385   0.010  0.00  0.00    +0.026 A 
ATOM      7  C   UNL     1       1.171   2.090   0.002  0.00  0.00    +0.040 A 
ATOM      8  C   UNL     1       2.379   1.414  -0.013  0.00  0.00    +0.124 A 
ATOM      9  C   UNL     1       2.400   0.030  -0.021  0.00  0.00    +0.040 A 
ATOM     10  C   UNL     1       1.215  -0.680  -0.014  0.00  0.00    +0.026 A 
ATOM     11  C   UNL     1       0.002  -0.004   0.002  0.00  0.00    +0.030 A 
ATOM     12  F   UNL     1       3.539   2.107  -0.020  0.00  0.00    -0.205 F 
ENDBRANCH   1  11
BRANCH   4  13
ATOM     13  C   UNL     1      -3.262  -3.822  -0.125  0.00  0.00    +0.106 C 
BRANCH  13  14
ATOM     14  N   UNL     1      -4.597  -4.037  -0.688  0.00  0.00    -0.341 N 
ATOM     15  H   UNL     1      -4.995  -3.364  -1.262  0.00  0.00    +0.146 HD
BRANCH  14  16
ATOM     16  C   UNL     1      -5.290  -5.200  -0.401  0.00  0.00    +0.071 A 
ATOM     17  C   UNL     1      -4.720  -6.181   0.438  0.00  0.00    +0.157 A 
ATOM     18  N   UNL     1      -5.370  -7.277   0.709  0.00  0.00    -0.177 NA
ATOM     19  N   UNL     1      -6.644  -7.510   0.179  0.00  0.00    -0.242 N 
ATOM     20  H   UNL     1      -7.111  -8.332   0.394  0.00  0.00    +0.192 HD
ATOM     21  C   UNL     1      -7.227  -6.601  -0.626  0.00  0.00    +0.285 A 
ATOM     22  O   UNL     1      -8.340  -6.810  -1.085  0.00  0.00    -0.265 OA
ATOM     23  C   UNL     1      -6.551  -5.410  -0.930  0.00  0.00    +0.129 A 
ATOM     24 CL   UNL     1      -7.283  -4.219  -1.960  0.00  0.00    -0.076 Cl
ENDBRANCH  14  16
ENDBRANCH  13  14
ENDBRANCH   4  13
TORSDOF 4
