REMARK  Name = ZINC13433441
REMARK  5 active torsions:
REMARK  status: ('A' for Active; 'I' for Inactive)
REMARK    1  A    between atoms: C_1  and  S_2
REMARK    2  A    between atoms: S_2  and  C_3
REMARK    3  A    between atoms: C_6  and  C_9
REMARK    4  A    between atoms: C_10  and  C_11
REMARK    5  A    between atoms: C_15  and  C_24
REMARK                            x       y       z     vdW  Elec       q    Type
REMARK                         _______ _______ _______ _____ _____    ______ ____
ROOT
ATOM      1  C   UNL     1       2.372   5.220  -0.276  0.00  0.00    +0.244 C 
ATOM      2  O   UNL     1       3.443   5.791  -0.374  0.00  0.00    -0.270 OA
ATOM      3  N   UNL     1       2.322   3.958   0.194  0.00  0.00    -0.261 N 
ATOM      4  C   UNL     1       1.034   3.288   0.445  0.00  0.00    +0.170 C 
ATOM      5  C   UNL     1       1.157   2.528   1.773  0.00  0.00    +0.303 C 
ATOM      6  O   UNL     1       2.239   1.599   1.674  0.00  0.00    -0.474 OA
ATOM      7  C   UNL     1       3.430   2.061   1.208  0.00  0.00    +0.143 A 
ATOM      8  C   UNL     1       3.497   3.236   0.463  0.00  0.00    +0.079 A 
ATOM      9  C   UNL     1       4.716   3.692  -0.010  0.00  0.00    +0.027 A 
ATOM     10  C   UNL     1       5.870   2.979   0.261  0.00  0.00    +0.002 A 
ATOM     11  C   UNL     1       5.808   1.817   1.007  0.00  0.00    +0.004 A 
ATOM     12  C   UNL     1       4.592   1.354   1.475  0.00  0.00    +0.047 A 
ENDROOT
BRANCH   5  13
ATOM     13  C   UNL     1      -0.123   1.784   2.053  0.00  0.00    +0.397 C 
ATOM     14  O   UNL     1      -0.129   0.576   2.067  0.00  0.00    -0.242 OA
ATOM     15  O   UNL     1      -1.257   2.464   2.286  0.00  0.00    -0.242 OA
ENDBRANCH   5  13
BRANCH   1  17
ATOM     16  C   UNL     1       1.177   7.202  -1.036  0.00  0.00    +0.013 C 
ATOM     17  C   UNL     1       1.141   5.903  -0.668  0.00  0.00    +0.068 C 
BRANCH  16  21
ATOM     18  C   UNL     1      -2.387   9.179  -2.173  0.00  0.00    +0.008 A 
ATOM     19  C   UNL     1      -1.177   9.870  -2.179  0.00  0.00    +0.015 A 
ATOM     20  C   UNL     1      -0.025   9.236  -1.813  0.00  0.00    +0.009 A 
ATOM     21  C   UNL     1      -0.060   7.888  -1.431  0.00  0.00    -0.025 A 
ATOM     22  C   UNL     1      -1.277   7.196  -1.431  0.00  0.00    +0.009 A 
ATOM     23  C   UNL     1      -2.426   7.839  -1.794  0.00  0.00    +0.015 A 
BRANCH  18  25
ATOM     24  C   UNL     1      -5.151   8.727  -2.483  0.00  0.00    +0.090 C 
ATOM     25  S   UNL     1      -3.871  10.002  -2.646  0.00  0.00    -0.129 S 
ENDBRANCH  18  25
ENDBRANCH  16  21
ENDBRANCH   1  17
TORSDOF 4
