REMARK  Name = ZINC43407803
REMARK  8 active torsions:
REMARK  status: ('A' for Active; 'I' for Inactive)
REMARK    1  A    between atoms: C_1  and  C_2
REMARK    2  A    between atoms: C_2  and  C_4
REMARK    3  A    between atoms: C_2  and  N_7
REMARK    4  A    between atoms: C_4  and  O_5
REMARK    5  A    between atoms: O_5  and  C_6
REMARK    6  A    between atoms: N_7  and  C_8
REMARK    7  A    between atoms: C_10  and  C_18
REMARK    8  A    between atoms: N_19  and  O_20
REMARK                            x       y       z     vdW  Elec       q    Type
REMARK                         _______ _______ _______ _____ _____    ______ ____
ROOT
ATOM      1  N   UNL     1      -1.462   0.146  -0.040  0.00  0.00    -0.314 N 
ATOM      2  C   UNL     1      -1.004  -0.315   1.272  0.00  0.00    +0.131 C 
ATOM      3  C   UNL     1      -1.617  -0.759  -1.077  0.00  0.00    +0.110 A 
ATOM      4  C   UNL     1      -2.807  -1.497  -1.187  0.00  0.00    +0.056 A 
ATOM      5  C   UNL     1      -2.937  -2.403  -2.242  0.00  0.00    +0.020 A 
ATOM      6  C   UNL     1      -1.886  -2.535  -3.137  0.00  0.00    -0.027 A 
ATOM      7  C   UNL     1      -0.744  -1.775  -2.967  0.00  0.00    +0.021 A 
ATOM      8  N   UNL     1      -0.647  -0.919  -1.960  0.00  0.00    -0.346 N 
ATOM      9  C   UNL     1       0.249  -2.098  -4.065  0.00  0.00    +0.054 C 
ATOM     10  C   UNL     1      -0.228  -3.441  -4.659  0.00  0.00    +0.011 C 
ATOM     11  C   UNL     1      -1.741  -3.419  -4.355  0.00  0.00    +0.037 C 
ATOM     12  H   UNL     1       0.164  -0.395  -1.866  0.00  0.00    +0.167 HD
ENDROOT
BRANCH   4  13
ATOM     13  C   UNL     1      -3.898  -1.319  -0.206  0.00  0.00    +0.166 C 
ATOM     14  N   UNL     1      -3.721  -0.556   0.833  0.00  0.00    -0.071 NA
ATOM     15  N   UNL     1      -5.109  -1.965  -0.393  0.00  0.00    -0.340 N 
ATOM     16  H   UNL     1      -5.241  -2.534  -1.167  0.00  0.00    +0.144 HD
ATOM     17  H   UNL     1      -5.825  -1.848   0.251  0.00  0.00    +0.144 HD
BRANCH  14  18
ATOM     18  O   UNL     1      -4.723  -0.474   1.830  0.00  0.00    -0.408 OA
ATOM     19  H   UNL     1      -4.501   0.118   2.563  0.00  0.00    +0.328 HD
ENDBRANCH  14  18
ENDBRANCH   4  13
BRANCH   1  21
ATOM     20  C   UNL     1      -2.793   2.032   0.767  0.00  0.00    +0.030 C 
ATOM     21  C   UNL     1      -1.756   1.565  -0.256  0.00  0.00    +0.097 C 
BRANCH  21  22
ATOM     22  C   UNL     1      -0.473   2.383  -0.092  0.00  0.00    +0.181 C 
BRANCH  22  23
ATOM     23  O   UNL     1      -0.028   2.303   1.263  0.00  0.00    -0.381 OA
ATOM     24  C   UNL     1       1.170   3.037   1.525  0.00  0.00    +0.194 C 
ENDBRANCH  22  23
ENDBRANCH  21  22
ENDBRANCH   1  21
TORSDOF 5
