REMARK  Name = ZINC59311303
REMARK  8 active torsions:
REMARK  status: ('A' for Active; 'I' for Inactive)
REMARK    1  A    between atoms: C_1  and  C_2
REMARK    2  A    between atoms: C_2  and  C_23
REMARK    3  A    between atoms: N_3  and  N_4
REMARK    4  A    between atoms: C_7  and  S_10
REMARK    5  A    between atoms: S_10  and  C_11
REMARK    6  A    between atoms: C_11  and  C_12
REMARK    7  A    between atoms: N_14  and  C_15
REMARK    8  A    between atoms: C_26  and  N_29
REMARK                            x       y       z     vdW  Elec       q    Type
REMARK                         _______ _______ _______ _____ _____    ______ ____
ROOT
ATOM      1  N   UNL     1       0.088   0.033   2.337  0.00  0.00    -0.205 N 
ATOM      2  C   UNL     1       0.099  -0.664   3.531  0.00  0.00    +0.232 A 
ATOM      3  N   UNL     1       0.115  -1.974   3.663  0.00  0.00    -0.186 NA
ATOM      4  C   UNL     1       0.122  -2.296   4.960  0.00  0.00    +0.211 A 
ATOM      5  N   UNL     1       0.112  -1.195   5.673  0.00  0.00    -0.144 NA
ATOM      6  N   UNL     1       0.102  -0.122   4.768  0.00  0.00    -0.245 N 
ATOM      7  H   UNL     1       0.082   1.003   2.342  0.00  0.00    +0.177 HD
ATOM      8  H   UNL     1       0.096   0.823   4.987  0.00  0.00    +0.192 HD
ENDROOT
BRANCH   1  11
ATOM      9  C   UNL     1       0.066   1.500   0.007  0.00  0.00    +0.068 C 
ATOM     10  C   UNL     1       0.077  -0.007  -0.000  0.00  0.00    +0.063 C 
ATOM     11  N   UNL     1       0.087  -0.661   1.121  0.00  0.00    -0.184 NA
BRANCH  10  12
ATOM     12  C   UNL     1       0.075  -0.737  -1.281  0.00  0.00    -0.002 A 
ATOM     13  C   UNL     1       0.070  -0.036  -2.489  0.00  0.00    +0.012 A 
ATOM     14  C   UNL     1       0.069  -0.726  -3.683  0.00  0.00    +0.033 A 
ATOM     15  C   UNL     1       0.072  -2.110  -3.687  0.00  0.00    +0.126 A 
ATOM     16  C   UNL     1       0.077  -2.811  -2.494  0.00  0.00    +0.033 A 
ATOM     17  C   UNL     1       0.085  -2.134  -1.292  0.00  0.00    +0.012 A 
BRANCH  15  18
ATOM     18  N   UNL     1       0.070  -2.844  -4.973  0.00  0.00    +0.056 N 
ATOM     19  O   UNL     1       0.066  -2.234  -6.017  0.00  0.00    -0.126 OA
ATOM     20  O   UNL     1       0.073  -4.053  -4.979  0.00  0.00    -0.126 OA
ENDBRANCH  15  18
ENDBRANCH  10  12
ENDBRANCH   1  11
BRANCH   4  21
ATOM     21  S   UNL     1       0.143  -3.935   5.608  0.00  0.00    -0.075 S 
BRANCH  21  22
ATOM     22  C   UNL     1       0.145  -3.696   7.407  0.00  0.00    +0.173 C 
BRANCH  22  23
ATOM     23  C   UNL     1       0.162  -5.038   8.092  0.00  0.00    +0.228 C 
ATOM     24  O   UNL     1       0.172  -6.055   7.432  0.00  0.00    -0.275 OA
ATOM     25  N   UNL     1       0.167  -5.107   9.438  0.00  0.00    -0.284 N 
ATOM     26  H   UNL     1       0.225  -4.295   9.965  0.00  0.00    +0.155 HD
BRANCH  25  27
ATOM     27  C   UNL     1       0.088  -6.351  10.075  0.00  0.00    +0.053 A 
ATOM     28  C   UNL     1       0.695  -7.463   9.507  0.00  0.00    +0.044 A 
ATOM     29  C   UNL     1       0.616  -8.690  10.139  0.00  0.00    +0.043 A 
ATOM     30  C   UNL     1      -0.068  -8.810  11.336  0.00  0.00    +0.021 A 
ATOM     31  C   UNL     1      -0.673  -7.705  11.904  0.00  0.00    +0.023 A 
ATOM     32  C   UNL     1      -0.593  -6.474  11.280  0.00  0.00    +0.062 A 
ATOM     33 CL   UNL     1      -1.348  -5.085  11.997  0.00  0.00    -0.082 Cl
ATOM     34 CL   UNL     1       1.374 -10.081   9.430  0.00  0.00    -0.083 Cl
ENDBRANCH  25  27
ENDBRANCH  22  23
ENDBRANCH  21  22
ENDBRANCH   4  21
TORSDOF 7
