REMARK  Name = ZINC19733965
REMARK  4 active torsions:
REMARK  status: ('A' for Active; 'I' for Inactive)
REMARK    1  A    between atoms: C_1  and  C_2
REMARK    2  A    between atoms: C_3  and  C_12
REMARK    3  A    between atoms: C_10  and  N_11
REMARK    4  A    between atoms: C_21  and  C_24
REMARK                            x       y       z     vdW  Elec       q    Type
REMARK                         _______ _______ _______ _____ _____    ______ ____
ROOT
ATOM      1  C   UNL     1      -1.738  -0.959  -1.454  0.00  0.00    +0.066 C 
ATOM      2  C   UNL     1      -2.729  -0.188  -0.621  0.00  0.00    +0.048 A 
ATOM      3  C   UNL     1      -2.504   0.995   0.018  0.00  0.00    +0.093 A 
ATOM      4  N   UNL     1      -3.631   1.350   0.654  0.00  0.00    -0.226 NA
ATOM      5  C   UNL     1      -4.562   0.435   0.430  0.00  0.00    +0.159 A 
ATOM      6  N   UNL     1      -4.024  -0.542  -0.364  0.00  0.00    -0.302 N 
ATOM      7  C   UNL     1      -4.777  -1.619  -0.746  0.00  0.00    +0.093 A 
ATOM      8  C   UNL     1      -6.061  -1.738  -0.348  0.00  0.00    +0.020 A 
ATOM      9  C   UNL     1      -6.646  -0.756   0.466  0.00  0.00    +0.028 A 
ATOM     10  C   UNL     1      -5.908   0.326   0.856  0.00  0.00    +0.068 A 
ENDROOT
BRANCH   3  11
ATOM     11  C   UNL     1      -1.230   1.755   0.017  0.00  0.00    +0.004 A 
ATOM     12  C   UNL     1      -0.013   1.076   0.008  0.00  0.00    +0.014 A 
ATOM     13  C   UNL     1       1.175   1.781   0.000  0.00  0.00    +0.048 A 
ATOM     14  C   UNL     1       1.158   3.166   0.008  0.00  0.00    +0.143 A 
ATOM     15  C   UNL     1      -0.057   3.850   0.024  0.00  0.00    +0.076 A 
ATOM     16  C   UNL     1      -1.249   3.148   0.031  0.00  0.00    +0.037 A 
ATOM     17  N   UNL     1      -0.054   5.253   0.033  0.00  0.00    -0.280 N 
ATOM     18  C   UNL     1       1.083   5.907  -0.290  0.00  0.00    +0.258 C 
ATOM     19  O   UNL     1       1.117   7.119  -0.259  0.00  0.00    -0.271 OA
ATOM     20  C   UNL     1       2.308   5.125  -0.687  0.00  0.00    +0.256 C 
ATOM     21  O   UNL     1       2.322   3.871  -0.001  0.00  0.00    -0.478 OA
ATOM     22  C   UNL     1       3.562   5.921  -0.319  0.00  0.00    +0.062 C 
ATOM     23  H   UNL     1      -0.968   5.803   0.300  0.00  0.00    +0.155 HD
ENDBRANCH   3  11
BRANCH  10  24
ATOM     24  N   UNL     1      -6.475   1.313   1.666  0.00  0.00    -0.355 N 
ATOM     25  H   UNL     1      -7.521   1.222   1.994  0.00  0.00    +0.142 HD
ATOM     26  H   UNL     1      -5.875   2.181   1.977  0.00  0.00    +0.142 HD
ENDBRANCH  10  24
TORSDOF 2
