REMARK  Name = ZINC14159741
REMARK  6 active torsions:
REMARK  status: ('A' for Active; 'I' for Inactive)
REMARK    1  A    between atoms: C_1  and  C_2
REMARK    2  A    between atoms: C_4  and  C_33
REMARK    3  A    between atoms: C_6  and  N_8
REMARK    4  A    between atoms: N_10  and  C_11
REMARK    5  A    between atoms: C_11  and  N_13
REMARK    6  A    between atoms: N_13  and  C_14
REMARK                            x       y       z     vdW  Elec       q    Type
REMARK                         _______ _______ _______ _____ _____    ______ ____
ROOT
ATOM      1  N   UNL     1      -0.137  -2.667   3.027  0.00  0.00    -0.181 NA
ATOM      2  C   UNL     1       0.140  -1.907   4.064  0.00  0.00    +0.192 C 
ATOM      3  N   UNL     1       0.593  -2.476   5.231  0.00  0.00    -0.269 N 
ATOM      4  N   UNL     1      -0.021  -0.551   3.982  0.00  0.00    -0.300 N 
ATOM      5  C   UNL     1      -1.315   0.069   4.300  0.00  0.00    +0.126 C 
ATOM      6  C   UNL     1      -1.096   1.132   5.384  0.00  0.00    +0.125 C 
ATOM      7  N   UNL     1       0.021   1.995   4.975  0.00  0.00    -0.314 N 
ATOM      8  C   UNL     1       1.315   1.375   4.657  0.00  0.00    +0.125 C 
ATOM      9  C   UNL     1       1.097   0.313   3.579  0.00  0.00    +0.126 C 
ATOM     10  C   UNL     1      -0.143   3.373   4.891  0.00  0.00    +0.099 A 
ATOM     11  C   UNL     1      -1.327   3.954   5.335  0.00  0.00    +0.042 A 
ATOM     12  C   UNL     1      -1.477   5.326   5.245  0.00  0.00    +0.005 A 
ATOM     13  C   UNL     1      -0.434   6.074   4.714  0.00  0.00    +0.018 A 
ATOM     14  C   UNL     1       0.713   5.431   4.293  0.00  0.00    +0.084 A 
ATOM     15  N   UNL     1       0.831   4.121   4.395  0.00  0.00    -0.350 N 
ATOM     16  H   UNL     1       1.649   3.695   4.096  0.00  0.00    +0.166 HD
ATOM     17  H   UNL     1       0.871  -1.912   5.969  0.00  0.00    +0.156 HD
ENDROOT
BRANCH   1  23
ATOM     18  C   UNL     1      -1.161   1.300   0.571  0.00  0.00    +0.066 C 
ATOM     19  C   UNL     1      -1.081  -0.202   0.667  0.00  0.00    +0.044 A 
ATOM     20  C   UNL     1      -1.453  -0.995  -0.408  0.00  0.00    +0.046 A 
ATOM     21  C   UNL     1      -1.365  -2.373  -0.281  0.00  0.00    +0.044 A 
ATOM     22  N   UNL     1      -0.930  -2.890   0.855  0.00  0.00    -0.216 NA
ATOM     23  C   UNL     1      -0.581  -2.104   1.869  0.00  0.00    +0.253 A 
ATOM     24  N   UNL     1      -0.650  -0.779   1.776  0.00  0.00    -0.216 NA
ATOM     25  C   UNL     1      -1.759  -3.271  -1.425  0.00  0.00    +0.066 C 
ENDBRANCH   1  23
BRANCH   3  26
ATOM     26  C   UNL     1       0.650  -3.817   5.349  0.00  0.00    +0.141 C 
ATOM     27  S   UNL     1       0.160  -4.813   4.046  0.00  0.00    -0.018 S 
BRANCH  26  28
ATOM     28  N   UNL     1       1.094  -4.375   6.493  0.00  0.00    -0.295 N 
ATOM     29  H   UNL     1       1.304  -3.814   7.256  0.00  0.00    +0.154 HD
BRANCH  28  30
ATOM     30  C   UNL     1       1.252  -5.762   6.580  0.00  0.00    +0.051 A 
ATOM     31  C   UNL     1       1.826  -6.464   5.528  0.00  0.00    +0.025 A 
ATOM     32  C   UNL     1       1.982  -7.834   5.617  0.00  0.00    +0.002 A 
ATOM     33  C   UNL     1       1.567  -8.507   6.752  0.00  0.00    +0.002 A 
ATOM     34  C   UNL     1       0.994  -7.811   7.801  0.00  0.00    +0.022 A 
ATOM     35  C   UNL     1       0.841  -6.440   7.721  0.00  0.00    +0.062 A 
ATOM     36 CL   UNL     1       0.129  -5.566   9.042  0.00  0.00    -0.082 Cl
ENDBRANCH  28  30
ENDBRANCH  26  28
ENDBRANCH   3  26
TORSDOF 4
