REMARK  Name = ZINC12497954
REMARK  9 active torsions:
REMARK  status: ('A' for Active; 'I' for Inactive)
REMARK    1  A    between atoms: C_1  and  C_2
REMARK    2  A    between atoms: N_11  and  C_12
REMARK    3  A    between atoms: C_12  and  C_13
REMARK    4  A    between atoms: C_13  and  N_49
REMARK    5  A    between atoms: C_14  and  N_49
REMARK    6  A    between atoms: C_15  and  N_49
REMARK    7  A    between atoms: C_16  and  C_18
REMARK    8  A    between atoms: C_18  and  S_19
REMARK    9  A    between atoms: S_19  and  C_20
REMARK                            x       y       z     vdW  Elec       q    Type
REMARK                         _______ _______ _______ _____ _____    ______ ____
ROOT
ATOM      1  C   UNL     1       3.202  -2.042  -0.040  0.00  0.00    +0.046 C 
ATOM      2  C   UNL     1       1.746  -1.654  -0.024  0.00  0.00    -0.024 A 
ATOM      3  C   UNL     1       0.784  -2.631  -0.020  0.00  0.00    +0.007 A 
ATOM      4  C   UNL     1      -0.567  -2.318  -0.005  0.00  0.00    +0.021 A 
ATOM      5  C   UNL     1      -0.955  -0.989   0.006  0.00  0.00    +0.057 A 
ATOM      6  C   UNL     1       0.002  -0.004   0.002  0.00  0.00    +0.059 A 
ATOM      7  C   UNL     1       1.387  -0.286  -0.013  0.00  0.00    +0.085 A 
ATOM      8  N   UNL     1       2.203   0.790  -0.015  0.00  0.00    -0.224 NA
ATOM      9  C   UNL     1       1.748   2.021  -0.004  0.00  0.00    +0.168 A 
ATOM     10  S   UNL     1      -0.022   1.772   0.012  0.00  0.00    -0.050 S 
ATOM     11  N   UNL     1       2.458   3.210  -0.004  0.00  0.00    -0.252 N 
ATOM     12  C   UNL     1       3.806   3.190  -0.018  0.00  0.00    +0.231 C 
ATOM     13  O   UNL     1       4.396   2.131  -0.029  0.00  0.00    -0.274 OA
ATOM     14 CL   UNL     1      -2.639  -0.570   0.024  0.00  0.00    -0.082 Cl
ENDROOT
BRANCH  11  15
ATOM     15  C   UNL     1       1.745   4.490   0.010  0.00  0.00    +0.097 C 
BRANCH  15  16
ATOM     16  C   UNL     1       1.511   4.927   1.457  0.00  0.00    -0.060 C 
BRANCH  16  19
ATOM     17  C   UNL     1       0.344   6.546   2.829  0.00  0.00    -0.097 C 
ATOM     18  C   UNL     1       1.628   7.283   0.913  0.00  0.00    -0.097 C 
ATOM     19  N   UNL     1       0.772   6.207   1.455  0.00  0.00    +0.377 N 
ATOM     20  H   UNL     1      -0.060   6.111   0.861  0.00  0.00    -0.083 HD
ENDBRANCH  16  19
ENDBRANCH  15  16
ENDBRANCH  11  15
BRANCH  12  21
ATOM     21  C   UNL     1       4.579   4.484  -0.018  0.00  0.00    +0.170 C 
BRANCH  21  22
ATOM     22  S   UNL     1       6.357   4.126  -0.038  0.00  0.00    -0.116 S 
BRANCH  22  23
ATOM     23  C   UNL     1       7.112   5.718  -0.036  0.00  0.00    +0.008 A 
ATOM     24  C   UNL     1       6.324   6.863  -0.028  0.00  0.00    +0.016 A 
ATOM     25  C   UNL     1       6.919   8.109  -0.021  0.00  0.00    +0.021 A 
ATOM     26  C   UNL     1       8.299   8.219  -0.035  0.00  0.00    +0.041 A 
ATOM     27  C   UNL     1       9.086   7.081  -0.049  0.00  0.00    +0.021 A 
ATOM     28  C   UNL     1       8.497   5.832  -0.049  0.00  0.00    +0.016 A 
ATOM     29 CL   UNL     1       9.043   9.787  -0.033  0.00  0.00    -0.084 Cl
ENDBRANCH  22  23
ENDBRANCH  21  22
ENDBRANCH  12  21
TORSDOF 6
