REMARK  Name = ZINC57835099
REMARK  3 active torsions:
REMARK  status: ('A' for Active; 'I' for Inactive)
REMARK    1  A    between atoms: C_3  and  C_6
REMARK    2  A    between atoms: C_6  and  C_7
REMARK    3  A    between atoms: C_16  and  N_18
REMARK                            x       y       z     vdW  Elec       q    Type
REMARK                         _______ _______ _______ _____ _____    ______ ____
ROOT
ATOM      1  C   UNL     1       4.247   2.008   1.393  0.00  0.00    +0.225 C 
ATOM      2  O   UNL     1       3.515   1.737   2.320  0.00  0.00    -0.275 OA
ATOM      3  N   UNL     1       5.497   2.455   1.629  0.00  0.00    -0.271 N 
ATOM      4  C   UNL     1       6.082   2.648   2.958  0.00  0.00    +0.118 C 
ATOM      5  C   UNL     1       7.507   3.164   2.700  0.00  0.00    +0.056 C 
ATOM      6  C   UNL     1       7.623   3.226   1.194  0.00  0.00    -0.022 A 
ATOM      7  C   UNL     1       6.426   2.797   0.642  0.00  0.00    +0.040 A 
ATOM      8  C   UNL     1       6.294   2.762  -0.748  0.00  0.00    +0.026 A 
ATOM      9  C   UNL     1       7.344   3.146  -1.555  0.00  0.00    +0.034 A 
ATOM     10  C   UNL     1       8.535   3.568  -0.995  0.00  0.00    +0.127 A 
ATOM     11  C   UNL     1       8.670   3.614   0.381  0.00  0.00    +0.038 A 
ENDROOT
BRANCH  10  12
ATOM     12  N   UNL     1       9.660   3.980  -1.865  0.00  0.00    +0.056 N 
ATOM     13  O   UNL     1       9.537   3.947  -3.067  0.00  0.00    -0.126 OA
ATOM     14  O   UNL     1      10.701   4.349  -1.373  0.00  0.00    -0.126 OA
ENDBRANCH  10  12
BRANCH   1  15
ATOM     15  C   UNL     1       3.761   1.845  -0.024  0.00  0.00    +0.138 C 
BRANCH  15  18
ATOM     16  C   UNL     1      -0.016   1.351   0.009  0.00  0.00    +0.008 A 
ATOM     17  C   UNL     1       1.183   2.038   0.002  0.00  0.00    +0.011 A 
ATOM     18  C   UNL     1       2.343   1.336  -0.013  0.00  0.00    -0.001 A 
ATOM     19  S   UNL     1       1.754  -0.349  -0.017  0.00  0.00    -0.101 S 
ATOM     20  C   UNL     1       0.002  -0.004   0.002  0.00  0.00    +0.045 A 
ENDBRANCH  15  18
ENDBRANCH   1  15
TORSDOF 3
