REMARK  Name = ZINC39388738
REMARK  6 active torsions:
REMARK  status: ('A' for Active; 'I' for Inactive)
REMARK    1  A    between atoms: C_1  and  O_2
REMARK    2  A    between atoms: O_2  and  C_3
REMARK    3  A    between atoms: C_7  and  C_11
REMARK    4  A    between atoms: C_8  and  O_9
REMARK    5  A    between atoms: O_9  and  C_10
REMARK    6  A    between atoms: N_12  and  N_13
REMARK                            x       y       z     vdW  Elec       q    Type
REMARK                         _______ _______ _______ _____ _____    ______ ____
ROOT
ATOM      1  N   UNL     1       0.932  -6.219   1.358  0.00  0.00    -0.206 N 
ATOM      2  C   UNL     1       0.362  -6.982   0.359  0.00  0.00    +0.227 C 
ATOM      3  N   UNL     1      -0.229  -6.361  -0.633  0.00  0.00    -0.220 NA
ATOM      4  C   UNL     1      -0.898  -7.176  -1.644  0.00  0.00    +0.253 C 
ATOM      5  C   UNL     1      -0.161  -8.508  -1.677  0.00  0.00    +0.115 C 
ATOM      6  C   UNL     1       0.094  -8.752  -2.992  0.00  0.00    +0.025 A 
ATOM      7  C   UNL     1       0.650  -9.870  -3.662  0.00  0.00    +0.012 A 
ATOM      8  C   UNL     1       0.786  -9.786  -5.012  0.00  0.00    +0.001 A 
ATOM      9  C   UNL     1       0.415  -8.673  -5.772  0.00  0.00    +0.002 A 
ATOM     10  C   UNL     1      -0.134  -7.550  -5.238  0.00  0.00    +0.026 A 
ATOM     11  C   UNL     1      -0.327  -7.552  -3.778  0.00  0.00    +0.046 A 
ATOM     12  N   UNL     1      -0.836  -6.647  -2.999  0.00  0.00    -0.358 N 
ATOM     13  N   UNL     1       0.221  -9.116  -0.549  0.00  0.00    -0.171 NA
ATOM     14  N   UNL     1       0.449  -8.331   0.458  0.00  0.00    -0.247 N 
ATOM     15  H   UNL     1       1.379  -6.650   2.103  0.00  0.00    +0.177 HD
ATOM     16  H   UNL     1       0.687  -8.724   1.312  0.00  0.00    +0.192 HD
ATOM     17  H   UNL     1      -1.127  -5.763  -3.274  0.00  0.00    +0.162 HD
ENDROOT
BRANCH   1  19
ATOM     18  C   UNL     1       1.401  -4.103   2.235  0.00  0.00    +0.142 C 
ATOM     19  N   UNL     1       0.865  -4.821   1.295  0.00  0.00    -0.187 NA
BRANCH  18  24
ATOM     20  C   UNL     1       0.626  -0.619   1.042  0.00  0.00    +0.162 A 
ATOM     21  C   UNL     1       1.202   0.139   2.051  0.00  0.00    +0.049 A 
ATOM     22  C   UNL     1       1.839  -0.480   3.112  0.00  0.00    +0.004 A 
ATOM     23  C   UNL     1       1.907  -1.856   3.178  0.00  0.00    +0.013 A 
ATOM     24  C   UNL     1       1.331  -2.632   2.169  0.00  0.00    +0.040 A 
ATOM     25  C   UNL     1       0.682  -2.006   1.097  0.00  0.00    +0.170 A 
BRANCH  20  27
ATOM     26  C   UNL     1      -0.017   1.425   0.010  0.00  0.00    +0.277 C 
ATOM     27  O   UNL     1       0.002  -0.004   0.002  0.00  0.00    -0.491 OA
ENDBRANCH  20  27
BRANCH  25  28
ATOM     28  O   UNL     1       0.114  -2.752   0.113  0.00  0.00    -0.491 OA
ATOM     29  C   UNL     1       0.939  -3.089  -1.004  0.00  0.00    +0.277 C 
ENDBRANCH  25  28
ENDBRANCH  18  24
ENDBRANCH   1  19
TORSDOF 4
