REMARK  Name = ZINC39498906
REMARK  6 active torsions:
REMARK  status: ('A' for Active; 'I' for Inactive)
REMARK    1  A    between atoms: C_4  and  C_7
REMARK    2  A    between atoms: C_7  and  N_8
REMARK    3  A    between atoms: C_12  and  C_25
REMARK    4  A    between atoms: C_13  and  O_24
REMARK    5  A    between atoms: C_17  and  C_18
REMARK    6  A    between atoms: C_30  and  O_31
REMARK                            x       y       z     vdW  Elec       q    Type
REMARK                         _______ _______ _______ _____ _____    ______ ____
ROOT
ATOM      1  N   UNL     1       4.130  -1.099   1.202  0.00  0.00    -0.386 NA
ATOM      2  C   UNL     1       3.271  -1.820   2.154  0.00  0.00    +0.121 C 
ATOM      3  C   UNL     1       4.191  -2.626   3.036  0.00  0.00    -0.022 A 
ATOM      4  C   UNL     1       3.954  -3.480   4.087  0.00  0.00    +0.018 A 
ATOM      5  C   UNL     1       5.021  -4.103   4.735  0.00  0.00    +0.027 A 
ATOM      6  C   UNL     1       6.333  -3.858   4.313  0.00  0.00    +0.125 A 
ATOM      7  C   UNL     1       6.571  -3.001   3.257  0.00  0.00    +0.056 A 
ATOM      8  C   UNL     1       5.500  -2.376   2.609  0.00  0.00    +0.003 A 
ATOM      9  C   UNL     1       5.456  -1.435   1.479  0.00  0.00    +0.022 C 
ATOM     10  C   UNL     1       6.528  -0.970   0.816  0.00  0.00    +0.030 C 
ATOM     11  H   UNL     1       4.000  -0.104   1.311  0.00  0.00    +0.127 HD
ENDROOT
BRANCH  10  12
ATOM     12  C   UNL     1       7.834  -1.636   0.968  0.00  0.00    -0.023 A 
ATOM     13  C   UNL     1       7.918  -3.030   0.941  0.00  0.00    +0.008 A 
ATOM     14  C   UNL     1       9.144  -3.646   1.084  0.00  0.00    +0.001 A 
ATOM     15  C   UNL     1      10.288  -2.887   1.254  0.00  0.00    +0.000 A 
ATOM     16  C   UNL     1      10.212  -1.505   1.282  0.00  0.00    +0.001 A 
ATOM     17  C   UNL     1       8.994  -0.875   1.135  0.00  0.00    +0.008 A 
ENDBRANCH  10  12
BRANCH   5  18
ATOM     18  C   UNL     1       4.765  -5.023   5.868  0.00  0.00    +0.027 A 
ATOM     19  C   UNL     1       4.081  -6.219   5.659  0.00  0.00    +0.012 A 
ATOM     20  C   UNL     1       3.846  -7.072   6.718  0.00  0.00    +0.001 A 
ATOM     21  C   UNL     1       4.286  -6.744   7.988  0.00  0.00    +0.004 A 
ATOM     22  C   UNL     1       4.965  -5.561   8.207  0.00  0.00    +0.046 A 
ATOM     23  C   UNL     1       5.214  -4.698   7.153  0.00  0.00    +0.125 A 
BRANCH  23  24
ATOM     24  O   UNL     1       5.887  -3.537   7.366  0.00  0.00    -0.506 OA
ATOM     25  H   UNL     1       5.318  -2.788   7.590  0.00  0.00    +0.292 HD
ENDBRANCH  23  24
ENDBRANCH   5  18
BRANCH   6  26
ATOM     26  O   UNL     1       7.373  -4.465   4.943  0.00  0.00    -0.506 OA
ATOM     27  H   UNL     1       7.620  -5.318   4.562  0.00  0.00    +0.292 HD
ENDBRANCH   6  26
BRANCH   1  28
ATOM     28  C   UNL     1       3.793  -1.496  -0.172  0.00  0.00    +0.121 C 
BRANCH  28  32
ATOM     29  C   UNL     1      -0.148  -0.151  -1.121  0.00  0.00    +0.000 A 
ATOM     30  C   UNL     1       0.940   0.663  -1.375  0.00  0.00    +0.000 A 
ATOM     31  C   UNL     1       2.215   0.228  -1.068  0.00  0.00    +0.005 A 
ATOM     32  C   UNL     1       2.402  -1.021  -0.506  0.00  0.00    -0.032 A 
ATOM     33  C   UNL     1       1.314  -1.835  -0.250  0.00  0.00    +0.005 A 
ATOM     34  C   UNL     1       0.039  -1.400  -0.559  0.00  0.00    +0.000 A 
ENDBRANCH  28  32
ENDBRANCH   1  28
TORSDOF 6
