REMARK  Name = ZINC39712080
REMARK  6 active torsions:
REMARK  status: ('A' for Active; 'I' for Inactive)
REMARK    1  A    between atoms: C_1  and  C_2
REMARK    2  A    between atoms: C_7  and  C_14
REMARK    3  A    between atoms: C_14  and  N_15
REMARK    4  A    between atoms: N_15  and  C_16
REMARK    5  A    between atoms: C_16  and  C_17
REMARK    6  A    between atoms: C_23  and  C_25
REMARK                            x       y       z     vdW  Elec       q    Type
REMARK                         _______ _______ _______ _____ _____    ______ ____
ROOT
ATOM      1  N   UNL     1      -1.444  -6.899   2.368  0.00  0.00    -0.292 N 
ATOM      2  C   UNL     1      -0.438  -7.794   2.434  0.00  0.00    +0.248 C 
ATOM      3  O   UNL     1      -0.056  -8.200   3.515  0.00  0.00    -0.270 OA
ENDROOT
BRANCH   2   4
ATOM      4  C   UNL     1       0.200  -8.282   1.194  0.00  0.00    +0.055 A 
ATOM      5  C   UNL     1       0.211  -7.482   0.050  0.00  0.00    +0.014 A 
ATOM      6  C   UNL     1       0.808  -7.943  -1.105  0.00  0.00    +0.001 A 
ATOM      7  C   UNL     1       1.396  -9.196  -1.132  0.00  0.00    +0.001 A 
ATOM      8  C   UNL     1       1.389  -9.994  -0.003  0.00  0.00    +0.021 A 
ATOM      9  C   UNL     1       0.799  -9.543   1.162  0.00  0.00    +0.053 A 
ATOM     10 CL   UNL     1       0.798 -10.543   2.581  0.00  0.00    -0.083 Cl
ENDBRANCH   2   4
BRANCH   1  11
ATOM     11  C   UNL     1      -1.794  -6.284   1.085  0.00  0.00    +0.125 C 
BRANCH  11  18
ATOM     12  C   UNL     1      -3.780   0.785  -0.430  0.00  0.00    +0.044 C 
ATOM     13  C   UNL     1      -3.151  -0.585  -0.409  0.00  0.00    -0.049 A 
ATOM     14  C   UNL     1      -2.938  -1.242  -1.621  0.00  0.00    +0.004 A 
ATOM     15  C   UNL     1      -2.376  -2.477  -1.666  0.00  0.00    +0.010 A 
ATOM     16  C   UNL     1      -1.989  -3.123  -0.411  0.00  0.00    -0.007 A 
ATOM     17  C   UNL     1      -1.421  -4.362  -0.408  0.00  0.00    -0.003 C 
ATOM     18  C   UNL     1      -1.052  -4.954   0.938  0.00  0.00    +0.116 C 
ATOM     19  C   UNL     1      -1.344  -4.122   2.167  0.00  0.00    +0.226 C 
ATOM     20  O   UNL     1      -1.068  -4.548   3.272  0.00  0.00    -0.275 OA
ATOM     21  N   UNL     1      -1.900  -2.930   2.035  0.00  0.00    -0.284 N 
ATOM     22  C   UNL     1      -2.226  -2.405   0.854  0.00  0.00    +0.041 A 
ATOM     23  C   UNL     1      -2.811  -1.127   0.789  0.00  0.00    +0.027 A 
ATOM     24  H   UNL     1      -2.079  -2.412   2.836  0.00  0.00    +0.155 HD
ENDBRANCH  11  18
ENDBRANCH   1  11
BRANCH   1  25
ATOM     25  C   UNL     1      -2.187  -6.541   3.579  0.00  0.00    +0.143 C 
BRANCH  25  26
ATOM     26  C   UNL     1      -3.261  -7.567   3.830  0.00  0.00    -0.030 A 
ATOM     27  C   UNL     1      -4.485  -7.457   3.196  0.00  0.00    +0.005 A 
ATOM     28  C   UNL     1      -5.470  -8.398   3.426  0.00  0.00    +0.000 A 
ATOM     29  C   UNL     1      -5.233  -9.450   4.291  0.00  0.00    +0.000 A 
ATOM     30  C   UNL     1      -4.009  -9.561   4.925  0.00  0.00    +0.000 A 
ATOM     31  C   UNL     1      -3.022  -8.622   4.691  0.00  0.00    +0.005 A 
ENDBRANCH  25  26
ENDBRANCH   1  25
TORSDOF 5
