REMARK  Name = ZINC02520771
REMARK  6 active torsions:
REMARK  status: ('A' for Active; 'I' for Inactive)
REMARK    1  A    between atoms: C_3  and  O_31
REMARK    2  A    between atoms: C_4  and  C_8
REMARK    3  A    between atoms: N_9  and  N_10
REMARK    4  A    between atoms: C_11  and  C_13
REMARK    5  A    between atoms: C_14  and  C_24
REMARK    6  A    between atoms: C_24  and  N_25
REMARK                            x       y       z     vdW  Elec       q    Type
REMARK                         _______ _______ _______ _____ _____    ______ ____
ROOT
ATOM      1  C   UNL     1      -0.513   5.403  -0.050  0.00  0.00    +0.154 A 
ATOM      2  C   UNL     1       0.761   5.909  -0.056  0.00  0.00    +0.079 A 
ATOM      3  N   UNL     1       1.581   4.864   0.072  0.00  0.00    -0.135 NA
ATOM      4  N   UNL     1       0.889   3.785   0.158  0.00  0.00    -0.058 NA
ATOM      5  N   UNL     1      -0.370   4.045   0.095  0.00  0.00    -0.183 N 
ATOM      6  C   UNL     1      -1.407   3.110   0.156  0.00  0.00    +0.241 A 
ATOM      7  C   UNL     1      -1.248   1.653   0.190  0.00  0.00    +0.206 A 
ATOM      8  N   UNL     1      -2.434   1.112   0.252  0.00  0.00    -0.032 NA
ATOM      9  O   UNL     1      -3.389   2.159   0.255  0.00  0.00    -0.239 OA
ATOM     10  N   UNL     1      -2.681   3.384   0.190  0.00  0.00    -0.027 NA
ATOM     11  N   UNL     1      -0.041   0.965   0.166  0.00  0.00    -0.337 N 
ATOM     12  H   UNL     1      -0.033  -0.135   0.195  0.00  0.00    +0.144 HD
ATOM     13  H   UNL     1       0.908   1.520   0.118  0.00  0.00    +0.144 HD
ENDROOT
BRANCH   1  15
ATOM     14  N   UNL     1      -2.417   6.569   0.938  0.00  0.00    -0.202 N 
ATOM     15  C   UNL     1      -1.770   6.157  -0.170  0.00  0.00    +0.284 C 
ATOM     16  O   UNL     1      -2.226   6.409  -1.270  0.00  0.00    -0.267 OA
ATOM     17  H   UNL     1      -1.964   6.417   1.929  0.00  0.00    +0.178 HD
BRANCH  14  19
ATOM     18  C   UNL     1      -4.291   7.588   1.897  0.00  0.00    +0.142 C 
ATOM     19  N   UNL     1      -3.667   7.192   0.829  0.00  0.00    -0.187 NA
BRANCH  18  23
ATOM     20  C   UNL     1      -8.082   9.475   1.565  0.00  0.00    +0.019 A 
ATOM     21  C   UNL     1      -7.424   9.055   0.424  0.00  0.00    +0.047 A 
ATOM     22  C   UNL     1      -6.185   8.445   0.521  0.00  0.00    +0.126 A 
ATOM     23  C   UNL     1      -5.606   8.243   1.781  0.00  0.00    +0.037 A 
ATOM     24  C   UNL     1      -6.280   8.671   2.927  0.00  0.00    +0.028 A 
ATOM     25  C   UNL     1      -7.511   9.284   2.812  0.00  0.00    +0.019 A 
ATOM     26 BR   UNL     1      -8.423   9.864   4.364  0.00  0.00    -0.050 Br
BRANCH  22  27
ATOM     27  O   UNL     1      -5.536   8.037  -0.601  0.00  0.00    -0.506 OA
ATOM     28  H   UNL     1      -4.552   7.552  -0.521  0.00  0.00    +0.292 HD
ENDBRANCH  22  27
ENDBRANCH  18  23
ENDBRANCH  14  19
ENDBRANCH   1  15
BRANCH   2  29
ATOM     29  C   UNL     1       1.157   7.357  -0.187  0.00  0.00    -0.018 C 
BRANCH  29  30
ATOM     30  N   UNL     1       1.327   7.691  -1.607  0.00  0.00    +0.383 N 
ATOM     31  C   UNL     1       2.459   6.960  -2.189  0.00  0.00    -0.078 C 
ATOM     32  C   UNL     1       2.516   7.219  -3.696  0.00  0.00    -0.019 C 
ATOM     33  C   UNL     1       2.673   8.722  -3.945  0.00  0.00    -0.004 C 
ATOM     34  C   UNL     1       1.507   9.465  -3.288  0.00  0.00    -0.019 C 
ATOM     35  C   UNL     1       1.479   9.140  -1.792  0.00  0.00    -0.078 C 
ATOM     36  H   UNL     1       0.417   7.379  -2.141  0.00  0.00    -0.081 HD
ENDBRANCH  29  30
ENDBRANCH   2  29
TORSDOF 6
