REMARK  Name = ZINC14729258
REMARK  6 active torsions:
REMARK  status: ('A' for Active; 'I' for Inactive)
REMARK    1  A    between atoms: C_4  and  C_7
REMARK    2  A    between atoms: C_7  and  C_9
REMARK    3  A    between atoms: C_14  and  C_15
REMARK    4  A    between atoms: C_14  and  N_57
REMARK    5  A    between atoms: C_18  and  C_28
REMARK    6  A    between atoms: C_21  and  C_23
REMARK                            x       y       z     vdW  Elec       q    Type
REMARK                         _______ _______ _______ _____ _____    ______ ____
ROOT
ATOM      1  C   UNL     1      -0.648   1.562   1.289  0.00  0.00    +0.219 C 
ATOM      2  O   UNL     1      -1.689   2.184   1.255  0.00  0.00    -0.276 OA
ATOM      3  N   UNL     1      -0.061   1.296   2.472  0.00  0.00    -0.186 N 
ATOM      4  C   UNL     1      -0.569   1.705   3.791  0.00  0.00    +0.143 C 
ATOM      5  C   UNL     1       0.477   1.143   4.774  0.00  0.00    +0.088 C 
ATOM      6  C   UNL     1       1.492   0.468   3.879  0.00  0.00    +0.075 C 
ATOM      7  N   UNL     1       1.130   0.594   2.646  0.00  0.00    -0.180 NA
ENDROOT
BRANCH   6   8
ATOM      8  C   UNL     1       2.700  -0.224   4.340  0.00  0.00    +0.035 A 
ATOM      9  C   UNL     1       3.673  -0.870   3.597  0.00  0.00    +0.017 A 
ATOM     10  C   UNL     1       4.728  -1.448   4.264  0.00  0.00    +0.008 A 
ATOM     11  C   UNL     1       4.777  -1.378   5.620  0.00  0.00    +0.046 A 
ATOM     12  S   UNL     1       3.295  -0.460   6.007  0.00  0.00    -0.095 S 
ENDBRANCH   6   8
BRANCH   4  13
ATOM     13  C   UNL     1      -0.639   3.207   3.889  0.00  0.00    +0.013 A 
ATOM     14  C   UNL     1      -1.584   3.981   4.476  0.00  0.00    +0.013 A 
ATOM     15  C   UNL     1      -1.439   5.355   4.447  0.00  0.00    +0.008 A 
ATOM     16  C   UNL     1      -0.360   5.889   3.823  0.00  0.00    +0.045 A 
ATOM     17  S   UNL     1       0.498   4.429   3.257  0.00  0.00    -0.100 S 
ENDBRANCH   4  13
BRANCH   1  18
ATOM     18  C   UNL     1      -0.013   1.086   0.008  0.00  0.00    +0.021 C 
BRANCH  18  24
ATOM     19  C   UNL     1      -2.446   0.785  -3.495  0.00  0.00    +0.057 C 
ATOM     20  C   UNL     1      -3.110   0.990  -2.131  0.00  0.00    -0.007 C 
ATOM     21  C   UNL     1      -2.139   0.567  -1.027  0.00  0.00    -0.077 C 
ATOM     22  C   UNL     1      -0.231   1.151  -2.402  0.00  0.00    -0.077 C 
ATOM     23  C   UNL     1      -1.146   1.592  -3.547  0.00  0.00    -0.007 C 
ATOM     24  N   UNL     1      -0.919   1.397  -1.117  0.00  0.00    +0.385 N 
ATOM     25  H   UNL     1      -1.186   2.387  -1.066  0.00  0.00    -0.081 HD
BRANCH  19  26
ATOM     26  C   UNL     1      -3.375   1.256  -4.584  0.00  0.00    +0.166 C 
ATOM     27  O   UNL     1      -4.157   2.156  -4.365  0.00  0.00    -0.292 OA
BRANCH  26  31
ATOM     28  C   UNL     1      -3.254  -0.567  -8.412  0.00  0.00    +0.000 A 
ATOM     29  C   UNL     1      -4.149   0.461  -8.167  0.00  0.00    +0.001 A 
ATOM     30  C   UNL     1      -4.194   1.058  -6.925  0.00  0.00    +0.011 A 
ATOM     31  C   UNL     1      -3.333   0.623  -5.912  0.00  0.00    +0.018 A 
ATOM     32  C   UNL     1      -2.429  -0.411  -6.169  0.00  0.00    +0.011 A 
ATOM     33  C   UNL     1      -2.399  -1.003  -7.415  0.00  0.00    +0.001 A 
ENDBRANCH  26  31
ENDBRANCH  19  26
ENDBRANCH  18  24
ENDBRANCH   1  18
TORSDOF 6
