REMARK  Name = ZINC30345542
REMARK  10 active torsions:
REMARK  status: ('A' for Active; 'I' for Inactive)
REMARK    1  A    between atoms: C_1  and  C_2
REMARK    2  A    between atoms: C_2  and  C_3
REMARK    3  A    between atoms: C_2  and  C_4
REMARK    4  A    between atoms: C_4  and  C_5
REMARK    5  A    between atoms: C_4  and  C_6
REMARK    6  A    between atoms: C_4  and  N_8
REMARK    7  A    between atoms: C_9  and  C_11
REMARK    8  A    between atoms: C_11  and  N_12
REMARK    9  A    between atoms: C_15  and  C_19
REMARK   10  A    between atoms: C_15  and  C_20
REMARK                            x       y       z     vdW  Elec       q    Type
REMARK                         _______ _______ _______ _____ _____    ______ ____
ROOT
ATOM      1  N   UNL     1      -3.608   1.789   0.029  0.00  0.00    -0.215 N 
ATOM      2  C   UNL     1      -4.189   2.263   1.149  0.00  0.00    +0.254 C 
ATOM      3  O   UNL     1      -3.888   2.005   2.295  0.00  0.00    -0.272 OA
ATOM      4  C   UNL     1      -5.293   3.188   0.679  0.00  0.00    +0.168 C 
ATOM      5  N   UNL     1      -5.204   3.116  -0.790  0.00  0.00    -0.279 N 
ATOM      6  C   UNL     1      -4.192   2.276  -1.073  0.00  0.00    +0.310 C 
ATOM      7  O   UNL     1      -3.846   1.990  -2.202  0.00  0.00    -0.252 OA
ATOM      8  C   UNL     1      -6.656   2.686   1.160  0.00  0.00    +0.050 C 
ATOM      9  H   UNL     1      -5.901   3.696  -1.413  0.00  0.00    +0.152 HD
ENDROOT
BRANCH   4  10
ATOM     10  C   UNL     1      -5.050   4.597   1.156  0.00  0.00    +0.138 A 
ATOM     11  C   UNL     1      -5.365   5.704   0.470  0.00  0.00    +0.056 A 
ATOM     12  C   UNL     1      -4.955   6.836   1.310  0.00  0.00    +0.020 A 
ATOM     13  C   UNL     1      -5.009   8.222   1.172  0.00  0.00    +0.011 A 
ATOM     14  C   UNL     1      -4.521   9.022   2.168  0.00  0.00    +0.001 A 
ATOM     15  C   UNL     1      -3.973   8.463   3.313  0.00  0.00    +0.004 A 
ATOM     16  C   UNL     1      -3.911   7.094   3.467  0.00  0.00    +0.047 A 
ATOM     17  C   UNL     1      -4.401   6.263   2.467  0.00  0.00    +0.135 A 
ATOM     18  O   UNL     1      -4.481   4.925   2.329  0.00  0.00    -0.457 OA
ENDBRANCH   4  10
BRANCH   1  19
ATOM     19  C   UNL     1      -2.482   0.853   0.018  0.00  0.00    +0.213 C 
BRANCH  19  21
ATOM     20  N   UNL     1      -0.011   0.966   0.007  0.00  0.00    -0.296 N 
ATOM     21  C   UNL     1      -1.187   1.624   0.017  0.00  0.00    +0.232 C 
ATOM     22  O   UNL     1      -1.204   2.837   0.023  0.00  0.00    -0.274 OA
ATOM     23  H   UNL     1       0.004  -0.134   0.006  0.00  0.00    +0.150 HD
BRANCH  20  24
ATOM     24  C   UNL     1       1.248   1.716  -0.001  0.00  0.00    +0.121 C 
ATOM     25  C   UNL     1       1.305   2.603  -1.246  0.00  0.00    +0.048 C 
BRANCH  24  27
ATOM     26  C   UNL     1       3.733   1.517  -0.151  0.00  0.00    +0.010 C 
ATOM     27  C   UNL     1       2.424   0.737  -0.017  0.00  0.00    +0.020 C 
ATOM     28  C   UNL     1       2.438  -0.065   1.286  0.00  0.00    +0.010 C 
ENDBRANCH  24  27
BRANCH  24  29
ATOM     29  C   UNL     1       1.325   2.556   1.205  0.00  0.00    +0.088 C 
ATOM     30  N   UNL     1       1.386   3.205   2.136  0.00  0.00    -0.194 NA
ENDBRANCH  24  29
ENDBRANCH  20  24
ENDBRANCH  19  21
ENDBRANCH   1  19
TORSDOF 6
