REMARK  Name = ZINC00936942
REMARK  9 active torsions:
REMARK  status: ('A' for Active; 'I' for Inactive)
REMARK    1  A    between atoms: C_1  and  C_2
REMARK    2  A    between atoms: C_3  and  C_21
REMARK    3  A    between atoms: C_4  and  C_12
REMARK    4  A    between atoms: C_17  and  O_18
REMARK    5  A    between atoms: O_18  and  C_19
REMARK    6  A    between atoms: C_21  and  O_23
REMARK    7  A    between atoms: O_23  and  C_24
REMARK    8  A    between atoms: C_24  and  C_25
REMARK    9  A    between atoms: C_24  and  C_26
REMARK                            x       y       z     vdW  Elec       q    Type
REMARK                         _______ _______ _______ _____ _____    ______ ____
ROOT
ATOM      1  C   UNL     1      -0.018   1.503   0.010  0.00  0.00    +0.061 C 
ATOM      2  C   UNL     1       0.002  -0.004   0.002  0.00  0.00    +0.020 C 
ATOM      3  C   UNL     1      -1.165  -0.668   0.004  0.00  0.00    +0.082 C 
ATOM      4  C   UNL     1      -1.255  -2.171   0.008  0.00  0.00    +0.184 C 
ATOM      5  N   UNL     1       0.058  -2.736  -0.277  0.00  0.00    -0.201 N 
ATOM      6  C   UNL     1       1.208  -2.011  -0.275  0.00  0.00    +0.240 A 
ATOM      7  N   UNL     1       2.180  -2.829  -0.561  0.00  0.00    -0.092 NA
ATOM      8  N   UNL     1       1.723  -4.020  -0.747  0.00  0.00    -0.021 NA
ATOM      9  N   UNL     1       0.438  -4.039  -0.592  0.00  0.00    -0.042 NA
ATOM     10  N   UNL     1       1.213  -0.650  -0.013  0.00  0.00    -0.286 N 
ATOM     11  H   UNL     1       2.041  -0.174   0.157  0.00  0.00    +0.155 HD
ENDROOT
BRANCH   4  12
ATOM     12  C   UNL     1      -1.723  -2.643   1.360  0.00  0.00    +0.024 A 
ATOM     13  C   UNL     1      -0.985  -2.346   2.490  0.00  0.00    +0.025 A 
ATOM     14  C   UNL     1      -1.414  -2.779   3.731  0.00  0.00    +0.018 A 
ATOM     15  C   UNL     1      -2.583  -3.510   3.845  0.00  0.00    +0.019 A 
ATOM     16  C   UNL     1      -3.325  -3.808   2.719  0.00  0.00    +0.047 A 
ATOM     17  C   UNL     1      -2.899  -3.371   1.473  0.00  0.00    +0.126 A 
ATOM     18 BR   UNL     1      -0.401  -2.372   5.275  0.00  0.00    -0.050 Br
BRANCH  17  19
ATOM     19  O   UNL     1      -3.630  -3.659   0.364  0.00  0.00    -0.495 OA
ATOM     20  C   UNL     1      -4.829  -4.412   0.555  0.00  0.00    +0.277 C 
ENDBRANCH  17  19
ENDBRANCH   4  12
BRANCH   3  21
ATOM     21  C   UNL     1      -2.364   0.079   0.003  0.00  0.00    +0.339 C 
ATOM     22  O   UNL     1      -2.323   1.295   0.001  0.00  0.00    -0.245 OA
BRANCH  21  23
ATOM     23  O   UNL     1      -3.554  -0.556   0.005  0.00  0.00    -0.459 OA
BRANCH  23  24
ATOM     24  C   UNL     1      -4.726   0.262   0.004  0.00  0.00    +0.171 C 
ATOM     25  C   UNL     1      -5.145   0.550  -1.439  0.00  0.00    +0.052 C 
ATOM     26  C   UNL     1      -5.859  -0.469   0.728  0.00  0.00    +0.052 C 
ENDBRANCH  23  24
ENDBRANCH  21  23
ENDBRANCH   3  21
TORSDOF 5
