REMARK  Name = ZINC23878184
REMARK  9 active torsions:
REMARK  status: ('A' for Active; 'I' for Inactive)
REMARK    1  A    between atoms: C_1  and  C_2
REMARK    2  A    between atoms: C_2  and  N_3
REMARK    3  A    between atoms: C_13  and  S_16
REMARK    4  A    between atoms: S_16  and  C_17
REMARK    5  A    between atoms: C_17  and  C_19
REMARK    6  A    between atoms: C_17  and  C_20
REMARK    7  A    between atoms: N_22  and  C_23
REMARK    8  A    between atoms: C_23  and  C_25
REMARK    9  A    between atoms: C_23  and  C_26
REMARK                            x       y       z     vdW  Elec       q    Type
REMARK                         _______ _______ _______ _____ _____    ______ ____
ROOT
ATOM      1  S   UNL     1      -7.028   0.687  -2.320  0.00  0.00    -0.072 S 
ENDROOT
BRANCH   1  12
ATOM      2  N   UNL     1     -11.338   2.177  -4.722  0.00  0.00    -0.324 N 
ATOM      3  C   UNL     1     -11.644   3.290  -5.489  0.00  0.00    +0.053 A 
ATOM      4  C   UNL     1     -12.809   3.689  -6.136  0.00  0.00    +0.026 A 
ATOM      5  C   UNL     1     -12.835   4.872  -6.845  0.00  0.00    +0.002 A 
ATOM      6  C   UNL     1     -11.705   5.672  -6.922  0.00  0.00    +0.001 A 
ATOM      7  C   UNL     1     -10.541   5.293  -6.289  0.00  0.00    +0.012 A 
ATOM      8  C   UNL     1     -10.502   4.101  -5.569  0.00  0.00    +0.029 A 
ATOM      9  C   UNL     1      -9.452   3.417  -4.794  0.00  0.00    +0.138 A 
ATOM     10  C   UNL     1     -10.034   2.233  -4.296  0.00  0.00    +0.165 A 
ATOM     11  N   UNL     1      -9.284   1.425  -3.553  0.00  0.00    -0.201 NA
ATOM     12  C   UNL     1      -8.024   1.756  -3.305  0.00  0.00    +0.212 A 
ATOM     13  N   UNL     1      -7.499   2.880  -3.781  0.00  0.00    -0.122 NA
ATOM     14  N   UNL     1      -8.187   3.690  -4.511  0.00  0.00    -0.143 NA
BRANCH   2  16
ATOM     15  C   UNL     1     -13.018   1.421  -3.113  0.00  0.00    +0.027 C 
ATOM     16  C   UNL     1     -12.274   1.094  -4.410  0.00  0.00    +0.120 C 
ENDBRANCH   2  16
ENDBRANCH   1  12
BRANCH   1  17
ATOM     17  C   UNL     1      -5.473   1.614  -2.323  0.00  0.00    +0.137 C 
ATOM     18  C   UNL     1      -4.914   1.667  -3.746  0.00  0.00    +0.029 C 
BRANCH  17  19
ATOM     19  C   UNL     1      -4.480   0.932  -1.418  0.00  0.00    +0.227 C 
ATOM     20  O   UNL     1      -4.581  -0.255  -1.192  0.00  0.00    -0.275 OA
ATOM     21  N   UNL     1      -3.479   1.641  -0.860  0.00  0.00    -0.308 N 
ATOM     22  H   UNL     1      -3.388   2.718  -1.065  0.00  0.00    +0.149 HD
BRANCH  21  23
ATOM     23  C   UNL     1      -2.513   0.978   0.020  0.00  0.00    +0.100 C 
ATOM     24  C   UNL     1      -3.073   0.925   1.443  0.00  0.00    +0.033 C 
BRANCH  23  25
ATOM     25  C   UNL     1      -1.219   1.750   0.017  0.00  0.00    -0.027 A 
ATOM     26  C   UNL     1      -0.013   1.076   0.008  0.00  0.00    +0.008 A 
ATOM     27  C   UNL     1       1.175   1.783   0.000  0.00  0.00    +0.038 A 
ATOM     28  C   UNL     1       1.156   3.167   0.008  0.00  0.00    +0.123 A 
ATOM     29  C   UNL     1      -0.053   3.842   0.022  0.00  0.00    +0.038 A 
ATOM     30  C   UNL     1      -1.240   3.133   0.030  0.00  0.00    +0.008 A 
ATOM     31  F   UNL     1       2.316   3.859  -0.000  0.00  0.00    -0.205 F 
ENDBRANCH  23  25
ENDBRANCH  21  23
ENDBRANCH  17  19
ENDBRANCH   1  17
TORSDOF 6
