REMARK  Name = ZINC33350019
REMARK  10 active torsions:
REMARK  status: ('A' for Active; 'I' for Inactive)
REMARK    1  A    between atoms: C_1  and  N_2
REMARK    2  A    between atoms: N_2  and  C_3
REMARK    3  A    between atoms: N_2  and  S_4
REMARK    4  A    between atoms: S_4  and  C_7
REMARK    5  A    between atoms: C_11  and  C_13
REMARK    6  A    between atoms: C_14  and  C_24
REMARK    7  A    between atoms: N_16  and  C_18
REMARK    8  A    between atoms: C_25  and  C_26
REMARK    9  A    between atoms: C_25  and  S_28
REMARK   10  A    between atoms: S_28  and  C_31
REMARK                            x       y       z     vdW  Elec       q    Type
REMARK                         _______ _______ _______ _____ _____    ______ ____
ROOT
ATOM      1  C   UNL     1      -0.005   1.655  -0.289  0.00  0.00    +0.100 A 
ATOM      2  C   UNL     1      -1.229   2.354   0.119  0.00  0.00    +0.023 A 
ATOM      3  C   UNL     1      -0.826   3.556   0.667  0.00  0.00    +0.123 A 
ATOM      4  N   UNL     1       0.518   3.610   0.599  0.00  0.00    -0.239 N 
ATOM      5  N   UNL     1       1.005   2.439   0.012  0.00  0.00    -0.166 NA
ENDROOT
BRANCH   1  10
ATOM      6  C   UNL     1       1.126  -1.188  -2.472  0.00  0.00    +0.106 A 
ATOM      7  C   UNL     1       0.227  -2.177  -2.115  0.00  0.00    +0.028 A 
ATOM      8  C   UNL     1      -0.747  -1.924  -1.166  0.00  0.00    +0.003 A 
ATOM      9  C   UNL     1      -0.828  -0.682  -0.570  0.00  0.00    +0.010 A 
ATOM     10  C   UNL     1       0.076   0.319  -0.925  0.00  0.00    +0.005 A 
ATOM     11  C   UNL     1       1.052   0.059  -1.887  0.00  0.00    +0.038 A 
BRANCH   6  12
ATOM     12  S   UNL     1       2.364  -1.520  -3.681  0.00  0.00    +0.060 S 
ATOM     13  O   UNL     1       3.422  -0.602  -3.442  0.00  0.00    -0.153 OA
ATOM     14  O   UNL     1       2.562  -2.927  -3.684  0.00  0.00    -0.153 OA
BRANCH  12  16
ATOM     15  C   UNL     1       1.878   0.228  -5.687  0.00  0.00    +0.131 C 
ATOM     16  N   UNL     1       1.723  -1.129  -5.157  0.00  0.00    -0.183 NA
ATOM     17  C   UNL     1       1.002  -2.140  -5.934  0.00  0.00    +0.131 C 
ENDBRANCH  12  16
ENDBRANCH   6  12
ENDBRANCH   1  10
BRANCH   4  18
ATOM     18  C   UNL     1       1.306   4.677   1.048  0.00  0.00    +0.065 A 
ATOM     19  C   UNL     1       0.707   5.796   1.611  0.00  0.00    +0.028 A 
ATOM     20  C   UNL     1       1.488   6.844   2.058  0.00  0.00    +0.002 A 
ATOM     21  C   UNL     1       2.864   6.785   1.934  0.00  0.00    +0.000 A 
ATOM     22  C   UNL     1       3.463   5.675   1.369  0.00  0.00    +0.002 A 
ATOM     23  C   UNL     1       2.688   4.621   0.925  0.00  0.00    +0.028 A 
ENDBRANCH   4  18
BRANCH   2  24
ATOM     24  C   UNL     1      -2.608   1.870  -0.023  0.00  0.00    +0.050 C 
ATOM     25  C   UNL     1      -3.575   2.705  -0.461  0.00  0.00    +0.170 C 
BRANCH  25  26
ATOM     26  S   UNL     1      -3.141   4.238  -1.214  0.00  0.00    +0.035 S 
ATOM     27  O   UNL     1      -3.887   5.245  -0.544  0.00  0.00    -0.164 OA
ATOM     28  O   UNL     1      -1.723   4.265  -1.292  0.00  0.00    -0.164 OA
BRANCH  26  29
ATOM     29  C   UNL     1      -3.736   4.190  -2.872  0.00  0.00    +0.094 A 
ATOM     30  C   UNL     1      -2.927   3.706  -3.883  0.00  0.00    +0.027 A 
ATOM     31  C   UNL     1      -3.395   3.664  -5.183  0.00  0.00    +0.002 A 
ATOM     32  C   UNL     1      -4.669   4.117  -5.473  0.00  0.00    +0.000 A 
ATOM     33  C   UNL     1      -5.476   4.606  -4.463  0.00  0.00    +0.002 A 
ATOM     34  C   UNL     1      -5.009   4.643  -3.163  0.00  0.00    +0.027 A 
ENDBRANCH  26  29
ENDBRANCH  25  26
BRANCH  25  35
ATOM     35  C   UNL     1      -4.954   2.345  -0.313  0.00  0.00    +0.119 C 
ATOM     36  N   UNL     1      -6.047   2.059  -0.195  0.00  0.00    -0.189 NA
ENDBRANCH  25  35
ENDBRANCH   2  24
TORSDOF 8
