REMARK  Name = ZINC46768896
REMARK  7 active torsions:
REMARK  status: ('A' for Active; 'I' for Inactive)
REMARK    1  A    between atoms: C_1  and  C_2
REMARK    2  A    between atoms: C_2  and  C_4
REMARK    3  A    between atoms: C_2  and  N_12
REMARK    4  A    between atoms: C_13  and  C_15
REMARK    5  A    between atoms: C_18  and  S_21
REMARK    6  A    between atoms: S_21  and  N_24
REMARK    7  A    between atoms: N_24  and  C_25
REMARK                            x       y       z     vdW  Elec       q    Type
REMARK                         _______ _______ _______ _____ _____    ______ ____
ROOT
ATOM      1  C   UNL     1      -1.407  -3.574  -4.160  0.00  0.00    +0.037 A 
ATOM      2  C   UNL     1      -0.181  -3.129  -3.663  0.00  0.00    +0.015 A 
ATOM      3  C   UNL     1       0.863  -2.883  -4.530  0.00  0.00    +0.029 A 
ATOM      4  C   UNL     1       0.697  -3.076  -5.890  0.00  0.00    +0.109 A 
ATOM      5  C   UNL     1      -0.515  -3.517  -6.389  0.00  0.00    +0.029 A 
ATOM      6  C   UNL     1      -1.566  -3.772  -5.533  0.00  0.00    +0.015 A 
ENDROOT
BRANCH   1   8
ATOM      7  N   UNL     1      -2.374  -3.648  -1.912  0.00  0.00    -0.305 N 
ATOM      8  C   UNL     1      -2.530  -3.840  -3.237  0.00  0.00    +0.245 C 
ATOM      9  O   UNL     1      -3.595  -4.233  -3.672  0.00  0.00    -0.270 OA
ATOM     10  H   UNL     1      -1.524  -3.334  -1.564  0.00  0.00    +0.150 HD
BRANCH   7  12
ATOM     11  C   UNL     1      -4.388  -2.677  -0.921  0.00  0.00    +0.033 C 
ATOM     12  C   UNL     1      -3.487  -3.912  -0.997  0.00  0.00    +0.103 C 
BRANCH  12  13
ATOM     13  C   UNL     1      -2.946  -4.224   0.375  0.00  0.00    +0.010 A 
ATOM     14  C   UNL     1      -1.708  -3.743   0.755  0.00  0.00    +0.046 A 
ATOM     15  C   UNL     1      -1.211  -4.030   2.015  0.00  0.00    +0.124 A 
ATOM     16  C   UNL     1      -1.956  -4.798   2.895  0.00  0.00    +0.041 A 
ATOM     17  C   UNL     1      -3.194  -5.278   2.514  0.00  0.00    +0.041 A 
ATOM     18  C   UNL     1      -3.693  -4.987   1.256  0.00  0.00    +0.128 A 
ATOM     19  F   UNL     1      -4.906  -5.453   0.886  0.00  0.00    -0.205 F 
ATOM     20  F   UNL     1      -0.000  -3.560   2.387  0.00  0.00    -0.205 F 
ENDBRANCH  12  13
ENDBRANCH   7  12
ENDBRANCH   1   8
BRANCH   4  21
ATOM     21  S   UNL     1       2.036  -2.759  -6.991  0.00  0.00    +0.072 S 
ATOM     22  O   UNL     1       1.460  -2.369  -8.230  0.00  0.00    -0.150 OA
ATOM     23  O   UNL     1       2.955  -1.935  -6.286  0.00  0.00    -0.150 OA
BRANCH  21  24
ATOM     24  N   UNL     1       2.803  -4.202  -7.258  0.00  0.00    -0.216 N 
ATOM     25  H   UNL     1       2.830  -4.578  -8.152  0.00  0.00    +0.174 HD
BRANCH  24  26
ATOM     26  C   UNL     1       3.409  -4.878  -6.197  0.00  0.00    +0.048 A 
ATOM     27  C   UNL     1       4.615  -4.424  -5.681  0.00  0.00    +0.024 A 
ATOM     28  C   UNL     1       5.212  -5.094  -4.631  0.00  0.00    +0.002 A 
ATOM     29  C   UNL     1       4.609  -6.218  -4.095  0.00  0.00    +0.000 A 
ATOM     30  C   UNL     1       3.408  -6.673  -4.607  0.00  0.00    +0.002 A 
ATOM     31  C   UNL     1       2.803  -6.004  -5.652  0.00  0.00    +0.024 A 
ENDBRANCH  24  26
ENDBRANCH  21  24
ENDBRANCH   4  21
TORSDOF 6
