REMARK  Name = ZINC25316912
REMARK  16 active torsions:
REMARK  status: ('A' for Active; 'I' for Inactive)
REMARK    1  A    between atoms: C_1  and  C_2
REMARK    2  A    between atoms: C_2  and  N_3
REMARK    3  A    between atoms: N_3  and  C_4
REMARK    4  A    between atoms: C_4  and  C_5
REMARK    5  A    between atoms: C_6  and  C_8
REMARK    6  A    between atoms: C_8  and  S_9
REMARK    7  A    between atoms: S_9  and  C_10
REMARK    8  A    between atoms: C_13  and  S_15
REMARK    9  A    between atoms: S_15  and  C_16
REMARK   10  A    between atoms: C_16  and  C_17
REMARK   11  A    between atoms: N_19  and  C_20
REMARK   12  A    between atoms: C_20  and  C_21
REMARK   13  A    between atoms: C_21  and  C_23
REMARK   14  A    between atoms: C_21  and  N_29
REMARK   15  A    between atoms: N_29  and  C_30
REMARK   16  A    between atoms: N_29  and  C_31
REMARK                            x       y       z     vdW  Elec       q    Type
REMARK                         _______ _______ _______ _____ _____    ______ ____
ROOT
ATOM      1  C   UNL     1       2.610   7.182   3.152  0.00  0.00    +0.172 C 
ENDROOT
BRANCH   1   2
ATOM      2  C   UNL     1       2.248   5.733   2.951  0.00  0.00    +0.223 C 
ATOM      3  O   UNL     1       2.280   4.964   3.888  0.00  0.00    -0.275 OA
ATOM      4  N   UNL     1       1.888   5.292   1.729  0.00  0.00    -0.316 N 
ATOM      5  H   UNL     1       1.858   5.989   0.879  0.00  0.00    +0.149 HD
BRANCH   4   6
ATOM      6  C   UNL     1       1.536   3.883   1.533  0.00  0.00    +0.093 C 
BRANCH   6   7
ATOM      7  C   UNL     1       1.169   3.648   0.067  0.00  0.00    -0.021 C 
BRANCH   7   8
ATOM      8  C   UNL     1       0.926   2.178  -0.161  0.00  0.00    -0.059 A 
ATOM      9  C   UNL     1      -0.233   1.758  -0.786  0.00  0.00    +0.002 A 
ATOM     10  C   UNL     1      -0.455   0.410  -0.996  0.00  0.00    +0.000 A 
ATOM     11  C   UNL     1       0.482  -0.518  -0.580  0.00  0.00    +0.000 A 
ATOM     12  C   UNL     1       1.641  -0.098   0.045  0.00  0.00    +0.000 A 
ATOM     13  C   UNL     1       1.863   1.251   0.255  0.00  0.00    +0.002 A 
ENDBRANCH   7   8
BRANCH   7  14
ATOM     14  N   UNL     1       2.271   4.101  -0.792  0.00  0.00    +0.382 N 
ATOM     15  C   UNL     1       3.511   3.378  -0.483  0.00  0.00    -0.096 C 
ATOM     16  C   UNL     1       1.921   3.965  -2.213  0.00  0.00    -0.096 C 
ATOM     17  H   UNL     1       2.442   5.169  -0.588  0.00  0.00    -0.082 HD
ENDBRANCH   7  14
ENDBRANCH   6   7
ENDBRANCH   4   6
ENDBRANCH   1   2
BRANCH   1  18
ATOM     18  S   UNL     1       3.045   7.461   4.891  0.00  0.00    -0.088 S 
BRANCH  18  22
ATOM     19  C   UNL     1       4.113  11.722   5.503  0.00  0.00    +0.160 A 
ATOM     20  N   UNL     1       3.773  11.380   4.275  0.00  0.00    -0.134 NA
ATOM     21  N   UNL     1       3.428  10.077   3.998  0.00  0.00    -0.134 NA
ATOM     22  C   UNL     1       3.438   9.177   4.962  0.00  0.00    +0.160 A 
ATOM     23  S   UNL     1       3.948  10.164   6.361  0.00  0.00    -0.033 S 
BRANCH  19  24
ATOM     24  S   UNL     1       4.593  13.297   6.131  0.00  0.00    -0.088 S 
BRANCH  24  25
ATOM     25  C   UNL     1       4.521  14.387   4.683  0.00  0.00    +0.172 C 
BRANCH  25  27
ATOM     26  N   UNL     1       4.934  16.771   4.168  0.00  0.00    -0.301 N 
ATOM     27  C   UNL     1       4.915  15.785   5.087  0.00  0.00    +0.226 C 
ATOM     28  O   UNL     1       5.214  16.022   6.238  0.00  0.00    -0.275 OA
BRANCH  26  30
ATOM     29  C   UNL     1       6.829  18.300   4.401  0.00  0.00    +0.024 C 
ATOM     30  C   UNL     1       5.316  18.130   4.561  0.00  0.00    +0.104 C 
ENDBRANCH  26  30
BRANCH  26  31
ATOM     31  C   UNL     1       4.572  16.485   2.778  0.00  0.00    +0.104 C 
ATOM     32  C   UNL     1       3.067  16.687   2.590  0.00  0.00    +0.024 C 
ENDBRANCH  26  31
ENDBRANCH  25  27
ENDBRANCH  24  25
ENDBRANCH  19  24
ENDBRANCH  18  22
ENDBRANCH   1  18
TORSDOF 12
