REMARK  Name = ZINC21140464
REMARK  5 active torsions:
REMARK  status: ('A' for Active; 'I' for Inactive)
REMARK    1  A    between atoms: C_1  and  C_2
REMARK    2  A    between atoms: C_7  and  N_8
REMARK    3  A    between atoms: C_11  and  C_16
REMARK    4  A    between atoms: C_16  and  S_17
REMARK    5  A    between atoms: S_17  and  C_18
REMARK                            x       y       z     vdW  Elec       q    Type
REMARK                         _______ _______ _______ _____ _____    ______ ____
ROOT
ATOM      1  N   UNL     1      -1.088   9.588   2.413  0.00  0.00    -0.283 N 
ATOM      2  C   UNL     1      -0.696   9.038   1.208  0.00  0.00    +0.224 A 
ATOM      3  N   UNL     1       0.094   7.966   1.191  0.00  0.00    -0.198 NA
ATOM      4  C   UNL     1       0.469   7.439   0.039  0.00  0.00    +0.146 A 
ATOM      5  N   UNL     1       0.067   7.975  -1.100  0.00  0.00    -0.199 NA
ATOM      6  C   UNL     1      -0.728   9.043  -1.091  0.00  0.00    +0.217 A 
ATOM      7  N   UNL     1      -1.107   9.576   0.066  0.00  0.00    -0.181 NA
ATOM      8  N   UNL     1      -1.152   9.599  -2.280  0.00  0.00    -0.327 N 
ATOM      9  H   UNL     1      -0.829   9.087   3.357  0.00  0.00    +0.155 HD
ATOM     10  H   UNL     1      -1.809  10.481  -2.272  0.00  0.00    +0.145 HD
ATOM     11  H   UNL     1      -0.834   9.159  -3.237  0.00  0.00    +0.145 HD
ENDROOT
BRANCH   1  18
ATOM     12  C   UNL     1      -2.740  10.119   4.668  0.00  0.00    +0.045 C 
ATOM     13  C   UNL     1      -2.634  11.082   3.513  0.00  0.00    -0.029 A 
ATOM     14  C   UNL     1      -3.351  12.262   3.529  0.00  0.00    +0.005 A 
ATOM     15  C   UNL     1      -3.254  13.146   2.470  0.00  0.00    +0.000 A 
ATOM     16  C   UNL     1      -2.439  12.851   1.392  0.00  0.00    +0.002 A 
ATOM     17  C   UNL     1      -1.716  11.675   1.372  0.00  0.00    +0.023 A 
ATOM     18  C   UNL     1      -1.815  10.783   2.432  0.00  0.00    +0.036 A 
ENDBRANCH   1  18
BRANCH   4  19
ATOM     19  C   UNL     1       1.364   6.226   0.024  0.00  0.00    +0.153 C 
BRANCH  19  20
ATOM     20  S   UNL     1       0.346   4.724   0.034  0.00  0.00    -0.078 S 
BRANCH  20  21
ATOM     21  C   UNL     1       1.523   3.412   0.015  0.00  0.00    +0.196 A 
ATOM     22  N   UNL     1       2.831   3.539  -0.003  0.00  0.00    -0.122 NA
ATOM     23  N   UNL     1       3.391   2.381  -0.013  0.00  0.00    -0.127 NA
ATOM     24  C   UNL     1       2.466   1.440  -0.003  0.00  0.00    +0.180 A 
ATOM     25  N   UNL     1       1.244   2.078   0.015  0.00  0.00    -0.275 N 
ATOM     26  C   UNL     1       0.084   1.353   0.029  0.00  0.00    +0.115 A 
ATOM     27  C   UNL     1       0.120   0.004   0.026  0.00  0.00    +0.059 A 
ATOM     28  C   UNL     1       1.353  -0.676   0.008  0.00  0.00    +0.045 A 
ATOM     29  C   UNL     1       2.516   0.030  -0.006  0.00  0.00    +0.087 A 
ATOM     30 CL   UNL     1       4.043  -0.795  -0.029  0.00  0.00    -0.080 Cl
ATOM     31 CL   UNL     1      -1.362  -0.898   0.044  0.00  0.00    -0.082 Cl
ENDBRANCH  20  21
ENDBRANCH  19  20
ENDBRANCH   4  19
TORSDOF 4
