REMARK  Name = ZINC66272475
REMARK  9 active torsions:
REMARK  status: ('A' for Active; 'I' for Inactive)
REMARK    1  A    between atoms: C_1  and  C_2
REMARK    2  A    between atoms: C_2  and  C_4
REMARK    3  A    between atoms: C_2  and  N_21
REMARK    4  A    between atoms: C_4  and  C_5
REMARK    5  A    between atoms: N_7  and  C_8
REMARK    6  A    between atoms: C_8  and  C_9
REMARK    7  A    between atoms: C_9  and  C_11
REMARK    8  A    between atoms: C_9  and  N_16
REMARK    9  A    between atoms: C_22  and  C_24
REMARK                            x       y       z     vdW  Elec       q    Type
REMARK                         _______ _______ _______ _____ _____    ______ ____
ROOT
ATOM      1  C   UNL     1       0.435  -1.980  -1.448  0.00  0.00    +0.215 C 
ATOM      2  O   UNL     1      -0.341  -2.565  -0.723  0.00  0.00    -0.276 OA
ATOM      3  N   UNL     1       1.122  -2.660  -2.388  0.00  0.00    -0.316 N 
ATOM      4  H   UNL     1       1.743  -2.193  -2.969  0.00  0.00    +0.149 HD
ENDROOT
BRANCH   1   5
ATOM      5  C   UNL     1       0.632  -0.494  -1.300  0.00  0.00    +0.117 C 
BRANCH   5   7
ATOM      6  C   UNL     1      -0.153   1.553  -0.101  0.00  0.00    +0.028 C 
ATOM      7  C   UNL     1      -0.259   0.028  -0.170  0.00  0.00    +0.079 C 
BRANCH   7   8
ATOM      8  N   UNL     1       0.178  -0.550   1.103  0.00  0.00    -0.312 N 
ATOM      9  C   UNL     1      -0.693  -0.666   2.125  0.00  0.00    +0.216 C 
ATOM     10  O   UNL     1      -1.838  -0.291   1.990  0.00  0.00    -0.276 OA
ATOM     11  H   UNL     1       1.095  -0.850   1.211  0.00  0.00    +0.149 HD
BRANCH   9  12
ATOM     12  C   UNL     1      -0.243  -1.261   3.435  0.00  0.00    +0.075 C 
ATOM     13  C   UNL     1       0.247  -2.691   3.203  0.00  0.00    +0.013 C 
ATOM     14  C   UNL     1       0.703  -3.295   4.533  0.00  0.00    +0.001 C 
ATOM     15  C   UNL     1      -0.470  -3.311   5.515  0.00  0.00    +0.000 C 
ATOM     16  C   UNL     1      -0.960  -1.880   5.747  0.00  0.00    +0.001 C 
ATOM     17  C   UNL     1      -1.416  -1.276   4.417  0.00  0.00    +0.013 C 
ENDBRANCH   9  12
ENDBRANCH   7   8
ENDBRANCH   5   7
ENDBRANCH   1   5
BRANCH   3  18
ATOM     18  C   UNL     1       0.931  -4.106  -2.533  0.00  0.00    +0.096 C 
BRANCH  18  19
ATOM     19  C   UNL     1       1.718  -4.605  -3.746  0.00  0.00    +0.016 C 
BRANCH  19  20
ATOM     20  N   UNL     1       1.633  -6.070  -3.815  0.00  0.00    +0.387 N 
ATOM     21  C   UNL     1       2.398  -6.573  -4.985  0.00  0.00    -0.078 C 
ATOM     22  C   UNL     1       2.688  -8.049  -4.612  0.00  0.00    -0.020 C 
ATOM     23  C   UNL     1       2.954  -7.975  -3.091  0.00  0.00    -0.020 C 
ATOM     24  C   UNL     1       2.272  -6.674  -2.626  0.00  0.00    -0.078 C 
ATOM     25  H   UNL     1       0.669  -6.361  -3.877  0.00  0.00    -0.081 HD
ENDBRANCH  19  20
BRANCH  19  26
ATOM     26  C   UNL     1       1.137  -4.009  -5.002  0.00  0.00    +0.093 A 
ATOM     27  C   UNL     1       1.634  -2.956  -5.676  0.00  0.00    +0.043 A 
ATOM     28  C   UNL     1       0.781  -2.739  -6.783  0.00  0.00    +0.041 A 
ATOM     29  C   UNL     1      -0.185  -3.672  -6.719  0.00  0.00    +0.195 A 
ATOM     30  O   UNL     1       0.038  -4.442  -5.642  0.00  0.00    -0.469 OA
ENDBRANCH  19  26
ENDBRANCH  18  19
ENDBRANCH   3  18
TORSDOF 8
