REMARK  Name = ZINC67093754
REMARK  8 active torsions:
REMARK  status: ('A' for Active; 'I' for Inactive)
REMARK    1  A    between atoms: C_1  and  C_2
REMARK    2  A    between atoms: C_4  and  C_26
REMARK    3  A    between atoms: C_8  and  C_25
REMARK    4  A    between atoms: C_9  and  C_11
REMARK    5  A    between atoms: N_13  and  C_14
REMARK    6  A    between atoms: C_14  and  C_15
REMARK    7  A    between atoms: C_15  and  C_16
REMARK    8  A    between atoms: N_20  and  C_21
REMARK                            x       y       z     vdW  Elec       q    Type
REMARK                         _______ _______ _______ _____ _____    ______ ____
ROOT
ATOM      1  C   UNL     1       0.845  -1.028   6.734  0.00  0.00    +0.251 C 
ATOM      2  O   UNL     1       0.908   0.135   7.085  0.00  0.00    -0.270 OA
ATOM      3  N   UNL     1       1.184  -2.011   7.593  0.00  0.00    -0.310 N 
ATOM      4  H   UNL     1       1.134  -2.938   7.313  0.00  0.00    +0.149 HD
ENDROOT
BRANCH   1  13
ATOM      5  C   UNL     1      -0.875   1.165   1.980  0.00  0.00    +0.044 C 
ATOM      6  C   UNL     1      -0.803  -0.340   1.976  0.00  0.00    -0.039 A 
ATOM      7  C   UNL     1      -1.143  -1.046   0.859  0.00  0.00    +0.027 A 
ATOM      8  C   UNL     1      -1.078  -2.432   0.851  0.00  0.00    +0.040 A 
ATOM      9  N   UNL     1      -0.687  -3.088   1.926  0.00  0.00    -0.245 NA
ATOM     10  C   UNL     1      -0.349  -2.455   3.026  0.00  0.00    +0.110 A 
ATOM     11  C   UNL     1      -0.377  -1.042   3.133  0.00  0.00    +0.014 A 
ATOM     12  C   UNL     1       0.020  -0.521   4.377  0.00  0.00    -0.022 A 
ATOM     13  C   UNL     1       0.399  -1.363   5.374  0.00  0.00    +0.079 A 
ATOM     14  S   UNL     1       0.212  -2.973   4.630  0.00  0.00    -0.064 S 
ATOM     15  C   UNL     1       0.025   0.969   4.604  0.00  0.00    +0.046 C 
ATOM     16  C   UNL     1      -1.457  -3.192  -0.394  0.00  0.00    +0.065 C 
ENDBRANCH   1  13
BRANCH   3  17
ATOM     17  C   UNL     1       1.628  -1.677   8.948  0.00  0.00    +0.112 C 
BRANCH  17  18
ATOM     18  C   UNL     1       1.949  -2.965   9.710  0.00  0.00    +0.095 C 
BRANCH  18  19
ATOM     19  C   UNL     1       2.406  -2.622  11.105  0.00  0.00    +0.134 A 
ATOM     20  N   UNL     1       2.508  -1.427  11.592  0.00  0.00    -0.158 NA
ATOM     21  N   UNL     1       2.964  -1.532  12.913  0.00  0.00    -0.254 N 
ATOM     22  C   UNL     1       3.125  -2.845  13.179  0.00  0.00    +0.176 A 
ATOM     23  N   UNL     1       2.777  -3.527  12.069  0.00  0.00    -0.304 N 
ATOM     24  S   UNL     1       3.665  -3.522  14.656  0.00  0.00    -0.011 S 
ATOM     25  H   UNL     1       3.132  -0.797  13.524  0.00  0.00    +0.191 HD
BRANCH  23  26
ATOM     26  C   UNL     1       2.796  -4.984  11.916  0.00  0.00    +0.091 C 
ATOM     27  C   UNL     1       2.881  -5.827  13.190  0.00  0.00    +0.027 C 
ATOM     28  C   UNL     1       4.094  -5.714  12.264  0.00  0.00    +0.027 C 
ENDBRANCH  23  26
ENDBRANCH  18  19
ENDBRANCH  17  18
ENDBRANCH   3  17
TORSDOF 5
