REMARK  Name = ZINC12428716
REMARK  3 active torsions:
REMARK  status: ('A' for Active; 'I' for Inactive)
REMARK    1  A    between atoms: C_3  and  N_8
REMARK    2  A    between atoms: C_12  and  N_13
REMARK    3  A    between atoms: C_17  and  C_19
REMARK                            x       y       z     vdW  Elec       q    Type
REMARK                         _______ _______ _______ _____ _____    ______ ____
ROOT
ATOM      1  N   UNL     1       3.584   2.129   0.047  0.00  0.00    -0.190 N 
ATOM      2  C   UNL     1       4.751   1.458   0.122  0.00  0.00    +0.265 C 
ATOM      3  O   UNL     1       4.770   0.247   0.236  0.00  0.00    -0.269 OA
ATOM      4  C   UNL     1       6.004   2.231   0.061  0.00  0.00    +0.113 C 
ATOM      5  C   UNL     1       7.239   1.612   0.131  0.00  0.00    +0.092 C 
ATOM      6  C   UNL     1       5.884   3.694  -0.079  0.00  0.00    +0.258 C 
ATOM      7  O   UNL     1       6.874   4.399  -0.136  0.00  0.00    -0.270 OA
ATOM      8  N   UNL     1       4.648   4.229  -0.141  0.00  0.00    -0.235 N 
ATOM      9  C   UNL     1       3.549   3.463  -0.085  0.00  0.00    +0.320 C 
ATOM     10  O   UNL     1       2.464   4.006  -0.152  0.00  0.00    -0.251 OA
ATOM     11  H   UNL     1       4.551   5.190  -0.233  0.00  0.00    +0.159 HD
ENDROOT
BRANCH   1  14
ATOM     12  C   UNL     1       0.392   0.609  -0.971  0.00  0.00    +0.003 A 
ATOM     13  C   UNL     1       1.579   1.313  -1.028  0.00  0.00    +0.024 A 
ATOM     14  C   UNL     1       2.379   1.415   0.102  0.00  0.00    +0.047 A 
ATOM     15  C   UNL     1       1.984   0.808   1.287  0.00  0.00    +0.044 A 
ATOM     16  C   UNL     1       0.795   0.105   1.338  0.00  0.00    +0.043 A 
ATOM     17  C   UNL     1       0.000   0.005   0.210  0.00  0.00    +0.020 A 
ATOM     18 CL   UNL     1       0.300  -0.655   2.818  0.00  0.00    -0.083 Cl
ENDBRANCH   1  14
BRANCH   5  19
ATOM     19  N   UNL     1       7.319   0.264   0.120  0.00  0.00    -0.298 N 
ATOM     20  C   UNL     1       8.545  -0.359   0.305  0.00  0.00    +0.186 A 
ATOM     21  N   UNL     1       9.746   0.167   0.512  0.00  0.00    -0.125 NA
ATOM     22  N   UNL     1      10.772  -0.552   0.663  0.00  0.00    -0.140 NA
ATOM     23  C   UNL     1      10.710  -1.878   0.623  0.00  0.00    +0.135 A 
ATOM     24  S   UNL     1       8.956  -2.101   0.341  0.00  0.00    -0.030 S 
ATOM     25  H   UNL     1       6.520  -0.268  -0.017  0.00  0.00    +0.154 HD
BRANCH  23  26
ATOM     26  C   UNL     1      11.783  -2.884   0.775  0.00  0.00    +0.027 A 
ATOM     27  C   UNL     1      11.485  -4.245   0.690  0.00  0.00    +0.013 A 
ATOM     28  C   UNL     1      12.490  -5.178   0.833  0.00  0.00    +0.021 A 
ATOM     29  C   UNL     1      13.794  -4.768   1.061  0.00  0.00    +0.042 A 
ATOM     30  C   UNL     1      14.096  -3.420   1.147  0.00  0.00    +0.040 A 
ATOM     31  C   UNL     1      13.100  -2.475   0.999  0.00  0.00    +0.052 A 
ATOM     32 CL   UNL     1      13.482  -0.785   1.099  0.00  0.00    -0.083 Cl
ATOM     33 CL   UNL     1      15.053  -5.950   1.240  0.00  0.00    -0.083 Cl
ENDBRANCH  23  26
ENDBRANCH   5  19
TORSDOF 3
