REMARK  Name = ZINC15673602
REMARK  9 active torsions:
REMARK  status: ('A' for Active; 'I' for Inactive)
REMARK    1  A    between atoms: C_4  and  C_7
REMARK    2  A    between atoms: C_7  and  C_8
REMARK    3  A    between atoms: C_14  and  C_16
REMARK    4  A    between atoms: C_16  and  C_17
REMARK    5  A    between atoms: C_22  and  C_24
REMARK    6  A    between atoms: C_24  and  C_25
REMARK    7  A    between atoms: C_27  and  C_30
REMARK    8  A    between atoms: C_30  and  O_31
REMARK    9  A    between atoms: O_31  and  C_32
REMARK                            x       y       z     vdW  Elec       q    Type
REMARK                         _______ _______ _______ _____ _____    ______ ____
ROOT
ATOM      1  C   UNL     1       4.840  -5.718  -5.693  0.00  0.00    -0.002 C 
ATOM      2  C   UNL     1       5.803  -5.266  -6.794  0.00  0.00    -0.015 C 
ATOM      3  C   UNL     1       5.021  -4.507  -7.869  0.00  0.00    -0.082 C 
ATOM      4  C   UNL     1       3.020  -5.791  -7.401  0.00  0.00    -0.079 C 
ATOM      5  C   UNL     1       3.742  -6.588  -6.312  0.00  0.00    -0.019 C 
ATOM      6  N   UNL     1       3.983  -5.385  -8.442  0.00  0.00    +0.379 N 
ATOM      7  H   UNL     1       4.428  -6.223  -8.836  0.00  0.00    -0.086 HD
ATOM      8  H   UNL     1       3.486  -4.881  -9.185  0.00  0.00    -0.086 HD
ENDROOT
BRANCH   1   9
ATOM      9  C   UNL     1       4.208  -4.492  -5.031  0.00  0.00    +0.099 C 
BRANCH   9  16
ATOM     10  C   UNL     1       4.142  -0.948  -1.487  0.00  0.00    -0.004 C 
ATOM     11  C   UNL     1       3.143  -1.888  -2.166  0.00  0.00    +0.023 C 
ATOM     12  C   UNL     1       3.558  -2.099  -3.626  0.00  0.00    +0.108 C 
ATOM     13  N   UNL     1       4.948  -2.572  -3.658  0.00  0.00    -0.301 N 
ATOM     14  C   UNL     1       5.977  -1.791  -2.958  0.00  0.00    +0.108 C 
ATOM     15  C   UNL     1       5.535  -1.583  -1.506  0.00  0.00    +0.023 C 
ATOM     16  C   UNL     1       5.275  -3.701  -4.317  0.00  0.00    +0.216 C 
ATOM     17  O   UNL     1       6.426  -4.081  -4.337  0.00  0.00    -0.276 OA
BRANCH  10  18
ATOM     18  C   UNL     1       3.711  -0.707  -0.039  0.00  0.00    +0.038 C 
BRANCH  18  22
ATOM     19  C   UNL     1      -0.017   1.378   0.010  0.00  0.00    +0.000 A 
ATOM     20  C   UNL     1       1.171   2.086   0.002  0.00  0.00    +0.000 A 
ATOM     21  C   UNL     1       2.377   1.411  -0.014  0.00  0.00    +0.003 A 
ATOM     22  C   UNL     1       2.396   0.029  -0.022  0.00  0.00    -0.047 A 
ATOM     23  C   UNL     1       1.208  -0.679  -0.014  0.00  0.00    +0.003 A 
ATOM     24  C   UNL     1       0.002  -0.004   0.002  0.00  0.00    +0.000 A 
ENDBRANCH  18  22
ENDBRANCH  10  18
ENDBRANCH   9  16
ENDBRANCH   1   9
BRANCH   5  25
ATOM     25  C   UNL     1       2.742  -6.996  -5.228  0.00  0.00    +0.061 C 
BRANCH  25  26
ATOM     26  C   UNL     1       1.732  -7.950  -5.811  0.00  0.00    +0.084 A 
ATOM     27  C   UNL     1       1.414  -9.243  -5.334  0.00  0.00    +0.074 A 
ATOM     28  C   UNL     1       0.459  -9.682  -6.188  0.00  0.00    +0.175 A 
ATOM     29  O   UNL     1       0.269  -8.701  -7.081  0.00  0.00    -0.356 OA
ATOM     30  N   UNL     1       0.982  -7.750  -6.856  0.00  0.00    -0.083 NA
BRANCH  28  31
ATOM     31  C   UNL     1      -0.246 -11.013  -6.146  0.00  0.00    +0.306 C 
BRANCH  31  32
ATOM     32  O   UNL     1      -1.425 -10.903  -5.346  0.00  0.00    -0.484 OA
BRANCH  32  33
ATOM     33  C   UNL     1      -2.181 -12.023  -5.205  0.00  0.00    +0.121 A 
ATOM     34  C   UNL     1      -1.800 -13.202  -5.829  0.00  0.00    +0.045 A 
ATOM     35  C   UNL     1      -2.567 -14.341  -5.678  0.00  0.00    +0.004 A 
ATOM     36  C   UNL     1      -3.721 -14.303  -4.918  0.00  0.00    +0.000 A 
ATOM     37  C   UNL     1      -4.106 -13.128  -4.300  0.00  0.00    +0.004 A 
ATOM     38  C   UNL     1      -3.339 -11.988  -4.442  0.00  0.00    +0.045 A 
ENDBRANCH  32  33
ENDBRANCH  31  32
ENDBRANCH  28  31
ENDBRANCH  25  26
ENDBRANCH   5  25
TORSDOF 9
