REMARK  Name = ZINC63755447
REMARK  8 active torsions:
REMARK  status: ('A' for Active; 'I' for Inactive)
REMARK    1  A    between atoms: C_4  and  C_7
REMARK    2  A    between atoms: C_9  and  S_17
REMARK    3  A    between atoms: S_17  and  C_18
REMARK    4  A    between atoms: C_18  and  C_19
REMARK    5  A    between atoms: C_19  and  N_20
REMARK    6  A    between atoms: C_21  and  C_23
REMARK    7  A    between atoms: C_23  and  O_24
REMARK    8  A    between atoms: O_24  and  C_25
REMARK                            x       y       z     vdW  Elec       q    Type
REMARK                         _______ _______ _______ _____ _____    ______ ____
ROOT
ATOM      1  C   UNL     1       3.745  -0.701  -0.030  0.00  0.00    +0.147 C 
ATOM      2  C   UNL     1       4.040  -1.187  -1.433  0.00  0.00    +0.021 C 
ATOM      3  C   UNL     1       4.124  -2.573  -1.340  0.00  0.00    +0.010 A 
ATOM      4  C   UNL     1       4.375  -3.578  -2.300  0.00  0.00    +0.011 A 
ATOM      5  C   UNL     1       4.400  -4.881  -1.920  0.00  0.00    +0.001 A 
ATOM      6  C   UNL     1       4.182  -5.260  -0.594  0.00  0.00    +0.002 A 
ATOM      7  C   UNL     1       3.936  -4.347   0.379  0.00  0.00    +0.026 A 
ATOM      8  C   UNL     1       3.894  -2.967   0.058  0.00  0.00    +0.044 A 
ATOM      9  N   UNL     1       3.679  -1.901   0.809  0.00  0.00    -0.373 N 
ATOM     10  H   UNL     1       3.504  -1.911   1.763  0.00  0.00    +0.161 HD
ENDROOT
BRANCH   1  14
ATOM     11  C   UNL     1       0.007   1.364   0.053  0.00  0.00    +0.000 A 
ATOM     12  C   UNL     1       1.191   2.078   0.030  0.00  0.00    +0.000 A 
ATOM     13  C   UNL     1       2.401   1.409   0.003  0.00  0.00    +0.006 A 
ATOM     14  C   UNL     1       2.427   0.027  -0.000  0.00  0.00    -0.020 A 
ATOM     15  C   UNL     1       1.243  -0.686   0.024  0.00  0.00    +0.006 A 
ATOM     16  C   UNL     1       0.033  -0.018   0.050  0.00  0.00    +0.000 A 
ENDBRANCH   1  14
BRANCH   2  17
ATOM     17  S   UNL     1       4.224  -0.260  -2.797  0.00  0.00    -0.125 S 
BRANCH  17  18
ATOM     18  C   UNL     1       4.712  -1.452  -4.075  0.00  0.00    +0.093 C 
BRANCH  18  19
ATOM     19  C   UNL     1       5.057  -0.704  -5.364  0.00  0.00    +0.115 C 
BRANCH  19  20
ATOM     20  N   UNL     1       5.451  -1.666  -6.396  0.00  0.00    -0.312 N 
ATOM     21  C   UNL     1       5.800  -1.233  -7.624  0.00  0.00    +0.251 C 
ATOM     22  O   UNL     1       5.787  -0.046  -7.874  0.00  0.00    -0.272 OA
ATOM     23  H   UNL     1       5.461  -2.615  -6.196  0.00  0.00    +0.149 HD
BRANCH  21  24
ATOM     24  C   UNL     1       6.206  -2.223  -8.685  0.00  0.00    +0.324 C 
BRANCH  24  25
ATOM     25  O   UNL     1       6.527  -1.524  -9.890  0.00  0.00    -0.483 OA
BRANCH  25  26
ATOM     26  C   UNL     1       6.916  -2.276 -10.954  0.00  0.00    +0.121 A 
ATOM     27  C   UNL     1       6.981  -3.657 -10.842  0.00  0.00    +0.047 A 
ATOM     28  C   UNL     1       7.376  -4.419 -11.924  0.00  0.00    +0.023 A 
ATOM     29  C   UNL     1       7.707  -3.805 -13.119  0.00  0.00    +0.041 A 
ATOM     30  C   UNL     1       7.644  -2.428 -13.233  0.00  0.00    +0.023 A 
ATOM     31  C   UNL     1       7.243  -1.663 -12.154  0.00  0.00    +0.047 A 
ATOM     32 CL   UNL     1       8.204  -4.765 -14.478  0.00  0.00    -0.084 Cl
ENDBRANCH  25  26
ENDBRANCH  24  25
ENDBRANCH  21  24
ENDBRANCH  19  20
ENDBRANCH  18  19
ENDBRANCH  17  18
ENDBRANCH   2  17
TORSDOF 8
