REMARK  Name = ZINC52334956
REMARK  8 active torsions:
REMARK  status: ('A' for Active; 'I' for Inactive)
REMARK    1  A    between atoms: C_1  and  C_2
REMARK    2  A    between atoms: C_2  and  C_3
REMARK    3  A    between atoms: C_3  and  C_5
REMARK    4  A    between atoms: C_3  and  N_11
REMARK    5  A    between atoms: N_11  and  C_12
REMARK    6  A    between atoms: C_15  and  S_19
REMARK    7  A    between atoms: C_17  and  N_18
REMARK    8  A    between atoms: S_19  and  N_22
REMARK                            x       y       z     vdW  Elec       q    Type
REMARK                         _______ _______ _______ _____ _____    ______ ____
ROOT
ATOM      1  C   UNL     1       2.533   1.164   1.625  0.00  0.00    +0.048 A 
ATOM      2  C   UNL     1       1.586   2.033   2.146  0.00  0.00    +0.027 A 
ATOM      3  C   UNL     1       1.969   3.284   2.594  0.00  0.00    +0.030 A 
ATOM      4  C   UNL     1       3.294   3.672   2.524  0.00  0.00    +0.107 A 
ATOM      5  C   UNL     1       4.245   2.812   2.006  0.00  0.00    +0.053 A 
ATOM      6  C   UNL     1       3.870   1.553   1.559  0.00  0.00    +0.048 A 
ENDROOT
BRANCH   6   7
ATOM      7  N   UNL     1       4.832   0.678   1.040  0.00  0.00    -0.356 N 
ATOM      8  H   UNL     1       4.568  -0.201   0.724  0.00  0.00    +0.142 HD
ATOM      9  H   UNL     1       5.762   0.951   0.995  0.00  0.00    +0.142 HD
ENDBRANCH   6   7
BRANCH   4  10
ATOM     10  S   UNL     1       3.773   5.268   3.096  0.00  0.00    +0.056 S 
ATOM     11  O   UNL     1       4.979   5.597   2.419  0.00  0.00    -0.153 OA
ATOM     12  O   UNL     1       2.615   6.088   3.029  0.00  0.00    -0.153 OA
BRANCH  10  13
ATOM     13  N   UNL     1       4.156   5.119   4.700  0.00  0.00    -0.204 NA
ATOM     14  H   UNL     1       4.090   4.255   5.136  0.00  0.00    +0.144 HD
ATOM     15  H   UNL     1       4.447   5.895   5.203  0.00  0.00    +0.144 HD
ENDBRANCH  10  13
ENDBRANCH   4  10
BRANCH   1  16
ATOM     16  N   UNL     1       2.148  -0.104   1.172  0.00  0.00    -0.339 N 
ATOM     17  H   UNL     1       2.812  -0.712   0.811  0.00  0.00    +0.146 HD
BRANCH  16  18
ATOM     18  C   UNL     1       0.742  -0.511   1.242  0.00  0.00    +0.073 C 
BRANCH  18  19
ATOM     19  C   UNL     1       0.655  -2.037   1.299  0.00  0.00    +0.009 C 
ATOM     20  C   UNL     1      -0.812  -2.462   1.372  0.00  0.00    +0.005 C 
ATOM     21  C   UNL     1      -0.899  -3.989   1.429  0.00  0.00    +0.000 C 
ATOM     22  C   UNL     1      -0.159  -4.496   2.668  0.00  0.00    +0.000 C 
ATOM     23  C   UNL     1       1.309  -4.071   2.595  0.00  0.00    +0.000 C 
ATOM     24  C   UNL     1       1.395  -2.544   2.538  0.00  0.00    +0.005 C 
ENDBRANCH  18  19
BRANCH  18  26
ATOM     25  C   UNL     1      -0.019   1.526   0.010  0.00  0.00    +0.006 C 
ATOM     26  C   UNL     1       0.002  -0.004   0.002  0.00  0.00    +0.019 C 
ENDBRANCH  18  26
ENDBRANCH  16  18
ENDBRANCH   1  16
TORSDOF 7
