REMARK  Name = ZINC10211127
REMARK  8 active torsions:
REMARK  status: ('A' for Active; 'I' for Inactive)
REMARK    1  A    between atoms: C_1  and  C_2
REMARK    2  A    between atoms: C_6  and  N_9
REMARK    3  A    between atoms: C_7  and  C_8
REMARK    4  A    between atoms: C_13  and  S_15
REMARK    5  A    between atoms: S_15  and  C_16
REMARK    6  A    between atoms: C_16  and  C_17
REMARK    7  A    between atoms: N_19  and  N_20
REMARK    8  A    between atoms: C_21  and  C_23
REMARK                            x       y       z     vdW  Elec       q    Type
REMARK                         _______ _______ _______ _____ _____    ______ ____
ROOT
ATOM      1  N   UNL     1     -12.249   5.842   0.099  0.00  0.00    -0.292 N 
ATOM      2  C   UNL     1     -10.992   5.252   0.168  0.00  0.00    +0.187 A 
ATOM      3  N   UNL     1      -9.825   5.802   0.440  0.00  0.00    -0.125 NA
ATOM      4  N   UNL     1      -8.690   5.024   0.462  0.00  0.00    -0.133 NA
ATOM      5  C   UNL     1      -8.774   3.734   0.201  0.00  0.00    +0.160 A 
ATOM      6  S   UNL     1     -10.527   3.546  -0.087  0.00  0.00    -0.024 S 
ATOM      7  H   UNL     1     -13.037   5.291  -0.029  0.00  0.00    +0.154 HD
ENDROOT
BRANCH   1  13
ATOM      8  C   UNL     1     -15.124   9.800   0.577  0.00  0.00    +0.044 C 
ATOM      9  C   UNL     1     -13.759   9.175   0.446  0.00  0.00    -0.046 A 
ATOM     10  C   UNL     1     -12.631   9.975   0.438  0.00  0.00    +0.004 A 
ATOM     11  C   UNL     1     -11.376   9.406   0.318  0.00  0.00    +0.002 A 
ATOM     12  C   UNL     1     -11.246   8.035   0.211  0.00  0.00    +0.023 A 
ATOM     13  C   UNL     1     -12.377   7.229   0.213  0.00  0.00    +0.036 A 
ATOM     14  C   UNL     1     -13.636   7.804   0.334  0.00  0.00    -0.026 A 
ATOM     15  C   UNL     1     -14.866   6.934   0.341  0.00  0.00    +0.046 C 
ENDBRANCH   1  13
BRANCH   5  16
ATOM     16  S   UNL     1      -7.499   2.518   0.156  0.00  0.00    -0.088 S 
BRANCH  16  17
ATOM     17  C   UNL     1      -5.992   3.449   0.549  0.00  0.00    +0.173 C 
BRANCH  17  18
ATOM     18  C   UNL     1      -4.809   2.514   0.543  0.00  0.00    +0.239 C 
ATOM     19  O   UNL     1      -4.968   1.337   0.298  0.00  0.00    -0.273 OA
ATOM     20  N   UNL     1      -3.576   2.987   0.810  0.00  0.00    -0.233 N 
ATOM     21  H   UNL     1      -3.449   3.929   1.006  0.00  0.00    +0.173 HD
BRANCH  20  22
ATOM     22  N   UNL     1      -2.477   2.119   0.805  0.00  0.00    -0.230 N 
ATOM     23  C   UNL     1      -1.243   2.592   1.073  0.00  0.00    +0.267 C 
ATOM     24  O   UNL     1      -1.084   3.773   1.318  0.00  0.00    -0.268 OA
ATOM     25  H   UNL     1      -2.603   1.177   0.610  0.00  0.00    +0.173 HD
BRANCH  23  26
ATOM     26  C   UNL     1      -0.093   1.683   1.067  0.00  0.00    +0.075 A 
ATOM     27  C   UNL     1       1.243   1.964   1.307  0.00  0.00    +0.021 A 
ATOM     28  C   UNL     1       2.126   0.915   1.233  0.00  0.00    +0.008 A 
ATOM     29  C   UNL     1       1.658  -0.325   0.933  0.00  0.00    +0.046 A 
ATOM     30  S   UNL     1      -0.046  -0.070   0.743  0.00  0.00    -0.092 S 
ENDBRANCH  23  26
ENDBRANCH  20  22
ENDBRANCH  17  18
ENDBRANCH  16  17
ENDBRANCH   5  16
TORSDOF 6
