REMARK  Name = ZINC02337732
REMARK  5 active torsions:
REMARK  status: ('A' for Active; 'I' for Inactive)
REMARK    1  A    between atoms: C_4  and  N_7
REMARK    2  A    between atoms: C_10  and  C_20
REMARK    3  A    between atoms: C_14  and  C_15
REMARK    4  A    between atoms: C_14  and  C_17
REMARK    5  A    between atoms: C_20  and  C_21
REMARK                            x       y       z     vdW  Elec       q    Type
REMARK                         _______ _______ _______ _____ _____    ______ ____
ROOT
ATOM      1  N   UNL     1      -4.152  -1.333   1.881  0.00  0.00    -0.232 N 
ATOM      2  C   UNL     1      -3.992  -0.352   1.009  0.00  0.00    +0.238 C 
ATOM      3  O   UNL     1      -4.763  -0.173   0.091  0.00  0.00    -0.274 OA
ATOM      4  C   UNL     1      -2.779   0.537   1.231  0.00  0.00    +0.143 C 
ATOM      5  S   UNL     1      -2.065  -0.248   2.730  0.00  0.00    -0.095 S 
ATOM      6  C   UNL     1      -3.283  -1.542   2.924  0.00  0.00    +0.098 C 
ATOM      7  C   UNL     1      -3.339  -2.533   3.905  0.00  0.00    +0.141 C 
ENDROOT
BRANCH   1  11
ATOM      8  C   UNL     1      -7.419  -3.884   1.448  0.00  0.00    +0.000 A 
ATOM      9  C   UNL     1      -6.211  -4.204   0.856  0.00  0.00    +0.002 A 
ATOM     10  C   UNL     1      -5.127  -3.360   0.998  0.00  0.00    +0.024 A 
ATOM     11  C   UNL     1      -5.250  -2.191   1.736  0.00  0.00    +0.042 A 
ATOM     12  C   UNL     1      -6.463  -1.875   2.334  0.00  0.00    +0.024 A 
ATOM     13  C   UNL     1      -7.546  -2.720   2.184  0.00  0.00    +0.002 A 
ENDBRANCH   1  11
BRANCH   7  14
ATOM     14  C   UNL     1      -2.245  -2.673   4.866  0.00  0.00    +0.254 C 
ATOM     15  O   UNL     1      -1.286  -1.925   4.809  0.00  0.00    -0.270 OA
ATOM     16  N   UNL     1      -2.298  -3.630   5.814  0.00  0.00    -0.325 N 
ATOM     17  H   UNL     1      -3.062  -4.226   5.859  0.00  0.00    +0.145 HD
ATOM     18  H   UNL     1      -1.573  -3.722   6.451  0.00  0.00    +0.145 HD
ENDBRANCH   7  14
BRANCH   7  19
ATOM     19  C   UNL     1      -4.466  -3.413   3.972  0.00  0.00    +0.107 C 
ATOM     20  N   UNL     1      -5.361  -4.111   4.024  0.00  0.00    -0.191 NA
ENDBRANCH   7  19
BRANCH   4  21
ATOM     21  C   UNL     1      -1.810   0.459   0.049  0.00  0.00    +0.059 C 
BRANCH  21  22
ATOM     22  C   UNL     1      -0.639   1.375   0.298  0.00  0.00    -0.046 A 
ATOM     23  C   UNL     1       0.483   0.901   0.951  0.00  0.00    +0.005 A 
ATOM     24  C   UNL     1       1.559   1.739   1.174  0.00  0.00    +0.020 A 
ATOM     25  C   UNL     1       1.511   3.054   0.748  0.00  0.00    +0.041 A 
ATOM     26  C   UNL     1       0.385   3.530   0.100  0.00  0.00    +0.020 A 
ATOM     27  C   UNL     1      -0.690   2.691  -0.122  0.00  0.00    +0.005 A 
ATOM     28 CL   UNL     1       2.863   4.107   1.028  0.00  0.00    -0.084 Cl
ENDBRANCH  21  22
ENDBRANCH   4  21
TORSDOF 5
