REMARK  Name = ZINC16671618
REMARK  5 active torsions:
REMARK  status: ('A' for Active; 'I' for Inactive)
REMARK    1  A    between atoms: C_1  and  C_2
REMARK    2  A    between atoms: C_5  and  N_9
REMARK    3  A    between atoms: N_22  and  N_23
REMARK    4  A    between atoms: C_24  and  C_25
REMARK    5  A    between atoms: C_30  and  O_31
REMARK                            x       y       z     vdW  Elec       q    Type
REMARK                         _______ _______ _______ _____ _____    ______ ____
ROOT
ATOM      1  N   UNL     1       5.517   3.494   1.378  0.00  0.00    -0.282 N 
ATOM      2  C   UNL     1       4.278   4.093   1.258  0.00  0.00    +0.225 A 
ATOM      3  N   UNL     1       3.195   3.347   1.062  0.00  0.00    -0.179 NA
ATOM      4  C   UNL     1       2.003   3.924   0.941  0.00  0.00    +0.241 A 
ATOM      5  N   UNL     1       1.893   5.247   1.028  0.00  0.00    -0.180 NA
ATOM      6  C   UNL     1       2.975   5.992   1.229  0.00  0.00    +0.224 A 
ATOM      7  N   UNL     1       4.168   5.415   1.344  0.00  0.00    -0.181 NA
ATOM      8  N   UNL     1       2.861   7.364   1.318  0.00  0.00    -0.295 N 
ATOM      9  C   UNL     1       3.417   7.858   2.586  0.00  0.00    +0.136 C 
ATOM     10  C   UNL     1       3.325   9.386   2.617  0.00  0.00    +0.179 C 
ATOM     11  O   UNL     1       1.962   9.780   2.434  0.00  0.00    -0.377 OA
ATOM     12  C   UNL     1       1.389   9.316   1.208  0.00  0.00    +0.179 C 
ATOM     13  C   UNL     1       1.462   7.788   1.163  0.00  0.00    +0.136 C 
ATOM     14  N   UNL     1       0.879   3.150   0.733  0.00  0.00    -0.205 N 
ATOM     15  H   UNL     1       6.293   4.027   1.613  0.00  0.00    +0.155 HD
ATOM     16  H   UNL     1       0.009   3.570   0.649  0.00  0.00    +0.177 HD
ENDROOT
BRANCH   1  21
ATOM     17  C   UNL     1       6.072  -2.083   0.494  0.00  0.00    +0.045 C 
ATOM     18  C   UNL     1       5.924  -0.602   0.729  0.00  0.00    -0.031 A 
ATOM     19  C   UNL     1       6.775   0.046   1.606  0.00  0.00    +0.022 A 
ATOM     20  C   UNL     1       6.646   1.405   1.819  0.00  0.00    +0.039 A 
ATOM     21  C   UNL     1       5.653   2.119   1.160  0.00  0.00    +0.049 A 
ATOM     22  C   UNL     1       4.800   1.466   0.280  0.00  0.00    +0.044 A 
ATOM     23  C   UNL     1       4.938   0.107   0.067  0.00  0.00    +0.046 A 
ATOM     24 CL   UNL     1       3.872  -0.710  -1.033  0.00  0.00    -0.083 Cl
ATOM     25 BR   UNL     1       7.816   2.290   3.013  0.00  0.00    -0.048 Br
ENDBRANCH   1  21
BRANCH  14  26
ATOM     26  N   UNL     1       0.996   1.757   0.642  0.00  0.00    -0.187 NA
ATOM     27  C   UNL     1      -0.039   1.038   0.329  0.00  0.00    +0.142 C 
BRANCH  27  28
ATOM     28  C   UNL     1      -1.266   1.688  -0.166  0.00  0.00    +0.036 A 
ATOM     29  C   UNL     1      -1.194   2.927  -0.807  0.00  0.00    +0.013 A 
ATOM     30  C   UNL     1      -2.345   3.528  -1.272  0.00  0.00    +0.001 A 
ATOM     31  C   UNL     1      -3.572   2.914  -1.098  0.00  0.00    +0.004 A 
ATOM     32  C   UNL     1      -3.657   1.690  -0.461  0.00  0.00    +0.046 A 
ATOM     33  C   UNL     1      -2.511   1.070   0.008  0.00  0.00    +0.125 A 
BRANCH  33  34
ATOM     34  O   UNL     1      -2.593  -0.133   0.634  0.00  0.00    -0.506 OA
ATOM     35  H   UNL     1      -2.788  -0.072   1.579  0.00  0.00    +0.292 HD
ENDBRANCH  33  34
ENDBRANCH  27  28
ENDBRANCH  14  26
TORSDOF 4
