REMARK  Name = ZINC12136091
REMARK  9 active torsions:
REMARK  status: ('A' for Active; 'I' for Inactive)
REMARK    1  A    between atoms: C_1  and  O_2
REMARK    2  A    between atoms: O_2  and  C_3
REMARK    3  A    between atoms: C_7  and  C_9
REMARK    4  A    between atoms: C_9  and  C_10
REMARK    5  A    between atoms: C_10  and  N_11
REMARK    6  A    between atoms: C_22  and  N_61
REMARK    7  A    between atoms: C_26  and  C_27
REMARK    8  A    between atoms: C_26  and  N_61
REMARK    9  A    between atoms: C_27  and  C_28
REMARK                            x       y       z     vdW  Elec       q    Type
REMARK                         _______ _______ _______ _____ _____    ______ ____
ROOT
ATOM      1  N   UNL     1      -1.873   6.088   6.144  0.00  0.00    -0.298 N 
ATOM      2  C   UNL     1      -2.386   5.238   7.070  0.00  0.00    +0.203 A 
ATOM      3  N   UNL     1      -2.993   5.686   8.137  0.00  0.00    -0.230 NA
ATOM      4  C   UNL     1      -3.126   6.992   8.349  0.00  0.00    +0.116 A 
ATOM      5  C   UNL     1      -2.628   7.947   7.449  0.00  0.00    +0.076 A 
ATOM      6  C   UNL     1      -1.964   7.423   6.292  0.00  0.00    +0.262 A 
ATOM      7  O   UNL     1      -1.494   8.173   5.454  0.00  0.00    -0.267 OA
ATOM      8  C   UNL     1      -2.847   9.346   7.815  0.00  0.00    -0.023 A 
ATOM      9  C   UNL     1      -3.502   9.582   8.972  0.00  0.00    -0.006 A 
ATOM     10  S   UNL     1      -3.859   7.976   9.632  0.00  0.00    -0.073 S 
ATOM     11  C   UNL     1      -3.847  10.913   9.565  0.00  0.00    +0.027 C 
ATOM     12  C   UNL     1      -3.021  11.991   8.848  0.00  0.00    -0.067 C 
ATOM     13  C   UNL     1      -3.128  11.768   7.337  0.00  0.00    -0.011 C 
ATOM     14  C   UNL     1      -2.367  10.503   6.942  0.00  0.00    +0.035 C 
ENDROOT
BRANCH  12  15
ATOM     15  N   UNL     1      -3.551  13.326   9.183  0.00  0.00    +0.381 N 
ATOM     16  H   UNL     1      -4.572  13.270   9.281  0.00  0.00    -0.086 HD
ATOM     17  H   UNL     1      -3.315  13.983   8.430  0.00  0.00    -0.086 HD
BRANCH  15  18
ATOM     18  C   UNL     1      -2.966  13.807  10.449  0.00  0.00    -0.078 C 
BRANCH  18  19
ATOM     19  C   UNL     1      -3.534  15.191  10.770  0.00  0.00    +0.016 C 
BRANCH  19  20
ATOM     20  C   UNL     1      -2.942  15.690  12.063  0.00  0.00    -0.048 A 
ATOM     21  C   UNL     1      -1.772  16.427  12.048  0.00  0.00    +0.003 A 
ATOM     22  C   UNL     1      -1.228  16.885  13.234  0.00  0.00    +0.002 A 
ATOM     23  C   UNL     1      -1.853  16.605  14.435  0.00  0.00    +0.020 A 
ATOM     24  C   UNL     1      -3.023  15.867  14.450  0.00  0.00    +0.041 A 
ATOM     25  C   UNL     1      -3.570  15.414  13.263  0.00  0.00    +0.023 A 
ATOM     26 CL   UNL     1      -3.808  15.515  15.958  0.00  0.00    -0.084 Cl
ENDBRANCH  19  20
ENDBRANCH  18  19
ENDBRANCH  15  18
ENDBRANCH  12  15
BRANCH   1  27
ATOM     27  C   UNL     1      -1.200   5.542   4.963  0.00  0.00    +0.131 C 
BRANCH  27  28
ATOM     28  C   UNL     1      -2.223   5.338   3.843  0.00  0.00    +0.057 C 
BRANCH  28  33
ATOM     29  C   UNL     1      -0.787   2.892   1.346  0.00  0.00    +0.120 A 
ATOM     30  C   UNL     1      -0.253   3.751   0.396  0.00  0.00    +0.045 A 
ATOM     31  C   UNL     1      -0.367   5.117   0.561  0.00  0.00    +0.004 A 
ATOM     32  C   UNL     1      -1.003   5.630   1.677  0.00  0.00    +0.004 A 
ATOM     33  C   UNL     1      -1.531   4.776   2.627  0.00  0.00    -0.042 A 
ATOM     34  C   UNL     1      -1.425   3.409   2.465  0.00  0.00    +0.049 A 
BRANCH  29  36
ATOM     35  C   UNL     1      -0.013   1.086   0.008  0.00  0.00    +0.277 C 
ATOM     36  O   UNL     1      -0.682   1.547   1.184  0.00  0.00    -0.495 OA
ENDBRANCH  29  36
ENDBRANCH  28  33
ENDBRANCH  27  28
ENDBRANCH   1  27
TORSDOF 8
