REMARK  Name = ZINC07209382
REMARK  7 active torsions:
REMARK  status: ('A' for Active; 'I' for Inactive)
REMARK    1  A    between atoms: C_1  and  C_2
REMARK    2  A    between atoms: C_5  and  C_8
REMARK    3  A    between atoms: C_12  and  S_14
REMARK    4  A    between atoms: S_14  and  C_15
REMARK    5  A    between atoms: C_15  and  C_16
REMARK    6  A    between atoms: N_18  and  C_19
REMARK    7  A    between atoms: C_19  and  C_20
REMARK                            x       y       z     vdW  Elec       q    Type
REMARK                         _______ _______ _______ _____ _____    ______ ____
ROOT
ATOM      1  C   UNL     1       0.092  -6.965   3.437  0.00  0.00    +0.173 C 
ENDROOT
BRANCH   1   2
ATOM      2  C   UNL     1       0.106  -8.062   4.470  0.00  0.00    +0.223 C 
ATOM      3  O   UNL     1       0.121  -9.223   4.121  0.00  0.00    -0.275 OA
ATOM      4  N   UNL     1       0.102  -7.753   5.782  0.00  0.00    -0.311 N 
ATOM      5  H   UNL     1       0.090  -6.824   6.061  0.00  0.00    +0.149 HD
BRANCH   4   6
ATOM      6  C   UNL     1       0.116  -8.820   6.786  0.00  0.00    +0.152 C 
BRANCH   6   7
ATOM      7  C   UNL     1       0.107  -8.203   8.186  0.00  0.00    +0.228 C 
ATOM      8  C   UNL     1       0.233  -9.310   9.241  0.00  0.00    +0.275 C 
ATOM      9  O   UNL     1       0.207  -8.701  10.536  0.00  0.00    -0.485 OA
ATOM     10  C   UNL     1      -0.755  -7.763  10.752  0.00  0.00    +0.162 A 
ATOM     11  C   UNL     1      -1.073  -7.401  12.053  0.00  0.00    +0.049 A 
ATOM     12  C   UNL     1      -2.046  -6.449  12.288  0.00  0.00    +0.004 A 
ATOM     13  C   UNL     1      -2.704  -5.853  11.228  0.00  0.00    +0.004 A 
ATOM     14  C   UNL     1      -2.393  -6.210   9.930  0.00  0.00    +0.049 A 
ATOM     15  C   UNL     1      -1.419  -7.167   9.687  0.00  0.00    +0.163 A 
ATOM     16  O   UNL     1      -1.129  -7.514   8.403  0.00  0.00    -0.480 OA
ENDBRANCH   6   7
ENDBRANCH   4   6
ENDBRANCH   1   2
BRANCH   1  17
ATOM     17  S   UNL     1       0.102  -7.697   1.778  0.00  0.00    -0.077 S 
BRANCH  17  22
ATOM     18  C   UNL     1       0.058  -4.256  -0.021  0.00  0.00    +0.182 A 
ATOM     19  N   UNL     1       0.068  -5.014  -1.094  0.00  0.00    -0.152 NA
ATOM     20  H   UNL     1       0.096  -7.142  -1.209  0.00  0.00    +0.191 HD
ATOM     21  N   UNL     1       0.085  -6.347  -0.653  0.00  0.00    -0.253 N 
ATOM     22  C   UNL     1       0.085  -6.304   0.698  0.00  0.00    +0.185 A 
ATOM     23  N   UNL     1       0.074  -5.042   1.065  0.00  0.00    -0.201 NA
BRANCH  18  28
ATOM     24  C   UNL     1      -0.018   1.503   0.010  0.00  0.00    +0.044 C 
ATOM     25  C   UNL     1       0.002  -0.004   0.002  0.00  0.00    -0.050 A 
ATOM     26  C   UNL     1       0.006  -0.686  -1.201  0.00  0.00    +0.004 A 
ATOM     27  C   UNL     1       0.024  -2.067  -1.215  0.00  0.00    +0.012 A 
ATOM     28  C   UNL     1       0.039  -2.772  -0.013  0.00  0.00    +0.021 A 
ATOM     29  C   UNL     1       0.036  -2.080   1.196  0.00  0.00    +0.012 A 
ATOM     30  C   UNL     1       0.023  -0.700   1.198  0.00  0.00    +0.004 A 
ENDBRANCH  18  28
ENDBRANCH  17  22
ENDBRANCH   1  17
TORSDOF 6
