REMARK  Name = ZINC39361352
REMARK  3 active torsions:
REMARK  status: ('A' for Active; 'I' for Inactive)
REMARK    1  A    between atoms: C_4  and  O_30
REMARK    2  A    between atoms: C_5  and  C_7
REMARK    3  A    between atoms: C_19  and  C_23
REMARK                            x       y       z     vdW  Elec       q    Type
REMARK                         _______ _______ _______ _____ _____    ______ ____
ROOT
ATOM      1  C   UNL     1       1.227  -2.187  -0.022  0.00  0.00    +0.135 C 
ATOM      2  C   UNL     1       1.362  -2.700   1.392  0.00  0.00    +0.043 A 
ATOM      3  H   UNL     1       2.820  -1.493   2.262  0.00  0.00    +0.166 HD
ATOM      4  C   UNL     1       0.634  -3.734   1.873  0.00  0.00    -0.009 A 
ATOM      5  C   UNL     1       1.032  -3.934   3.248  0.00  0.00    +0.004 A 
ATOM      6  C   UNL     1       0.629  -4.842   4.232  0.00  0.00    +0.010 A 
ATOM      7  C   UNL     1       1.239  -4.740   5.459  0.00  0.00    +0.001 A 
ATOM      8  C   UNL     1       2.208  -3.787   5.721  0.00  0.00    +0.002 A 
ATOM      9  C   UNL     1       2.627  -2.876   4.767  0.00  0.00    +0.026 A 
ATOM     10  C   UNL     1       2.026  -2.956   3.512  0.00  0.00    +0.047 A 
ATOM     11  N   UNL     1       2.198  -2.231   2.368  0.00  0.00    -0.356 N 
ATOM     12  C   UNL     1      -0.385  -4.486   1.054  0.00  0.00    +0.067 C 
ATOM     13  C   UNL     1      -0.146  -4.151  -0.424  0.00  0.00    +0.094 C 
ATOM     14  N   UNL     1      -0.033  -2.694  -0.589  0.00  0.00    -0.304 NA
ATOM     15  H   UNL     1      -0.828  -2.224  -0.183  0.00  0.00    +0.123 HD
ENDROOT
BRANCH  12  16
ATOM     16  C   UNL     1      -0.223  -5.968   1.275  0.00  0.00    -0.020 A 
ATOM     17  C   UNL     1       0.974  -6.585   0.968  0.00  0.00    +0.006 A 
ATOM     18  C   UNL     1       1.123  -7.945   1.170  0.00  0.00    +0.000 A 
ATOM     19  C   UNL     1       0.074  -8.687   1.680  0.00  0.00    +0.001 A 
ATOM     20  C   UNL     1      -1.123  -8.070   1.988  0.00  0.00    +0.020 A 
ATOM     21  C   UNL     1      -1.271  -6.709   1.791  0.00  0.00    +0.045 A 
ATOM     22 CL   UNL     1      -2.773  -5.933   2.184  0.00  0.00    -0.083 Cl
ENDBRANCH  12  16
BRANCH   1  27
ATOM     23  C   UNL     1      -0.017   1.378   0.010  0.00  0.00    +0.001 A 
ATOM     24  C   UNL     1       1.170   2.088   0.002  0.00  0.00    +0.004 A 
ATOM     25  C   UNL     1       2.377   1.417  -0.013  0.00  0.00    +0.046 A 
ATOM     26  C   UNL     1       2.399   0.030  -0.021  0.00  0.00    +0.122 A 
ATOM     27  C   UNL     1       1.207  -0.680  -0.013  0.00  0.00    +0.017 A 
ATOM     28  C   UNL     1       0.002  -0.004   0.002  0.00  0.00    +0.009 A 
BRANCH  26  29
ATOM     29  O   UNL     1       3.586  -0.632  -0.037  0.00  0.00    -0.506 OA
ATOM     30  H   UNL     1       3.938  -0.829   0.842  0.00  0.00    +0.292 HD
ENDBRANCH  26  29
ENDBRANCH   1  27
TORSDOF 3
