REMARK  Name = ZINC17175700
REMARK  5 active torsions:
REMARK  status: ('A' for Active; 'I' for Inactive)
REMARK    1  A    between atoms: C_1  and  C_2
REMARK    2  A    between atoms: C_5  and  N_8
REMARK    3  A    between atoms: C_9  and  C_15
REMARK    4  A    between atoms: C_18  and  N_21
REMARK    5  A    between atoms: C_22  and  C_33
REMARK                            x       y       z     vdW  Elec       q    Type
REMARK                         _______ _______ _______ _____ _____    ______ ____
ROOT
ATOM      1  C   UNL     1       4.174   1.399   2.584  0.00  0.00    +0.020 A 
ATOM      2  C   UNL     1       3.460   1.669   3.753  0.00  0.00    +0.013 A 
ATOM      3  C   UNL     1       2.091   1.823   3.703  0.00  0.00    +0.027 A 
ATOM      4  C   UNL     1       1.422   1.709   2.490  0.00  0.00    +0.051 A 
ATOM      5  C   UNL     1       2.129   1.435   1.325  0.00  0.00    +0.027 A 
ATOM      6  C   UNL     1       3.499   1.286   1.368  0.00  0.00    +0.013 A 
ENDROOT
BRANCH   4   7
ATOM      7  N   UNL     1       0.032   1.865   2.442  0.00  0.00    -0.265 N 
ATOM      8  C   UNL     1      -0.775   0.791   2.660  0.00  0.00    +0.114 A 
ATOM      9  N   UNL     1      -2.071   0.854   2.628  0.00  0.00    -0.233 NA
ATOM     10  C   UNL     1      -2.720   2.019   2.380  0.00  0.00    +0.078 A 
ATOM     11  C   UNL     1      -4.115   2.088   2.350  0.00  0.00    +0.029 A 
ATOM     12  C   UNL     1      -4.733   3.290   2.089  0.00  0.00    +0.017 A 
ATOM     13  C   UNL     1      -3.986   4.438   1.853  0.00  0.00    +0.019 A 
ATOM     14  C   UNL     1      -2.608   4.395   1.878  0.00  0.00    +0.030 A 
ATOM     15  C   UNL     1      -1.964   3.188   2.140  0.00  0.00    +0.066 A 
ATOM     16  C   UNL     1      -0.498   3.082   2.179  0.00  0.00    +0.266 A 
ATOM     17  O   UNL     1       0.211   4.051   1.981  0.00  0.00    -0.267 OA
ATOM     18 BR   UNL     1      -4.867   6.073   1.498  0.00  0.00    -0.050 Br
ATOM     19  C   UNL     1      -0.131  -0.541   2.948  0.00  0.00    +0.086 C 
ENDBRANCH   4   7
BRANCH   1  21
ATOM     20  N   UNL     1       6.429   0.688   1.637  0.00  0.00    -0.271 N 
ATOM     21  C   UNL     1       5.643   1.235   2.635  0.00  0.00    +0.167 A 
ATOM     22  N   UNL     1       6.415   1.586   3.625  0.00  0.00    -0.153 NA
ATOM     23  N   UNL     1       7.735   1.259   3.283  0.00  0.00    -0.254 N 
ATOM     24  H   UNL     1       8.521   1.404   3.831  0.00  0.00    +0.191 HD
ATOM     25  C   UNL     1       7.712   0.710   2.051  0.00  0.00    +0.180 A 
ATOM     26  S   UNL     1       9.067   0.143   1.172  0.00  0.00    -0.011 S 
BRANCH  20  31
ATOM     27  C   UNL     1       4.576  -1.310  -3.341  0.00  0.00    +0.044 C 
ATOM     28  C   UNL     1       5.068  -0.779  -2.018  0.00  0.00    -0.050 A 
ATOM     29  C   UNL     1       5.893   0.330  -1.984  0.00  0.00    +0.005 A 
ATOM     30  C   UNL     1       6.346   0.819  -0.774  0.00  0.00    +0.026 A 
ATOM     31  C   UNL     1       5.971   0.195   0.409  0.00  0.00    +0.050 A 
ATOM     32  C   UNL     1       5.147  -0.922   0.370  0.00  0.00    +0.026 A 
ATOM     33  C   UNL     1       4.693  -1.402  -0.842  0.00  0.00    +0.005 A 
ENDBRANCH  20  31
ENDBRANCH   1  21
TORSDOF 3
