REMARK  Name = ZINC09968895
REMARK  15 active torsions:
REMARK  status: ('A' for Active; 'I' for Inactive)
REMARK    1  A    between atoms: C_1  and  C_2
REMARK    2  A    between atoms: C_2  and  C_3
REMARK    3  A    between atoms: C_3  and  C_4
REMARK    4  A    between atoms: C_4  and  C_5
REMARK    5  A    between atoms: C_5  and  O_6
REMARK    6  A    between atoms: O_6  and  C_7
REMARK    7  A    between atoms: C_7  and  C_9
REMARK    8  A    between atoms: C_9  and  S_10
REMARK    9  A    between atoms: S_10  and  C_11
REMARK   10  A    between atoms: C_20  and  C_24
REMARK   11  A    between atoms: C_24  and  C_25
REMARK   12  A    between atoms: C_24  and  C_26
REMARK   13  A    between atoms: C_24  and  C_27
REMARK   14  A    between atoms: N_30  and  C_31
REMARK   15  A    between atoms: C_31  and  C_32
REMARK                            x       y       z     vdW  Elec       q    Type
REMARK                         _______ _______ _______ _____ _____    ______ ____
ROOT
ATOM      1  C   UNL     1      -0.779   1.620   6.525  0.00  0.00    +0.223 C 
ATOM      2  N   UNL     1      -0.775   3.094   6.500  0.00  0.00    -0.311 N 
ATOM      3  C   UNL     1      -1.722   3.696   5.713  0.00  0.00    +0.080 A 
ATOM      4  C   UNL     1      -2.928   3.071   5.361  0.00  0.00    +0.069 A 
ATOM      5  C   UNL     1      -3.818   3.844   4.511  0.00  0.00    -0.023 A 
ATOM      6  C   UNL     1      -3.378   5.075   4.169  0.00  0.00    -0.004 A 
ATOM      7  S   UNL     1      -1.795   5.229   4.955  0.00  0.00    -0.078 S 
ATOM      8  C   UNL     1      -4.081   6.083   3.314  0.00  0.00    +0.046 C 
ATOM      9  C   UNL     1      -5.551   5.661   3.178  0.00  0.00    -0.000 C 
ATOM     10  C   UNL     1      -5.606   4.173   2.819  0.00  0.00    +0.009 C 
ATOM     11  C   UNL     1      -5.168   3.333   4.019  0.00  0.00    +0.037 C 
ATOM     12  C   UNL     1      -3.171   1.709   5.891  0.00  0.00    +0.251 C 
ATOM     13  O   UNL     1      -4.256   1.169   5.779  0.00  0.00    -0.270 OA
ATOM     14  N   UNL     1      -2.139   1.093   6.503  0.00  0.00    -0.266 N 
ATOM     15  H   UNL     1      -0.135   3.611   7.014  0.00  0.00    +0.149 HD
ENDROOT
BRANCH   9  16
ATOM     16  C   UNL     1      -6.220   6.481   2.072  0.00  0.00    -0.035 C 
ATOM     17  C   UNL     1      -5.496   6.235   0.747  0.00  0.00    +0.011 C 
ATOM     18  C   UNL     1      -7.684   6.059   1.939  0.00  0.00    +0.011 C 
ATOM     19  C   UNL     1      -6.148   7.968   2.425  0.00  0.00    +0.011 C 
ENDBRANCH   9  16
BRANCH   1  20
ATOM     20  S   UNL     1       0.122   0.999   5.079  0.00  0.00    -0.108 S 
BRANCH  20  21
ATOM     21  C   UNL     1      -0.817   1.643   3.667  0.00  0.00    +0.193 C 
BRANCH  21  22
ATOM     22  C   UNL     1      -0.166   1.194   2.384  0.00  0.00    +0.317 C 
ATOM     23  O   UNL     1       0.829   0.510   2.418  0.00  0.00    -0.250 OA
BRANCH  22  24
ATOM     24  O   UNL     1      -0.692   1.554   1.203  0.00  0.00    -0.464 OA
BRANCH  24  25
ATOM     25  C   UNL     1      -0.013   1.086   0.008  0.00  0.00    +0.232 C 
BRANCH  25  26
ATOM     26  C   UNL     1      -0.753   1.593  -1.232  0.00  0.00    +0.041 C 
BRANCH  26  27
ATOM     27  C   UNL     1      -0.037   1.099  -2.490  0.00  0.00    +0.003 C 
BRANCH  27  29
ATOM     28  C   UNL     1      -0.060   1.113  -4.989  0.00  0.00    +0.004 C 
ATOM     29  C   UNL     1      -0.777   1.606  -3.730  0.00  0.00    -0.003 C 
ENDBRANCH  27  29
ENDBRANCH  26  27
ENDBRANCH  25  26
ENDBRANCH  24  25
ENDBRANCH  22  24
ENDBRANCH  21  22
ENDBRANCH  20  21
ENDBRANCH   1  20
BRANCH  14  30
ATOM     30  C   UNL     1      -2.400  -0.178   7.183  0.00  0.00    +0.145 C 
BRANCH  30  31
ATOM     31  C   UNL     1      -2.781   0.088   8.616  0.00  0.00    -0.030 A 
ATOM     32  C   UNL     1      -1.804   0.138   9.593  0.00  0.00    +0.005 A 
ATOM     33  C   UNL     1      -2.154   0.388  10.907  0.00  0.00    +0.000 A 
ATOM     34  C   UNL     1      -3.481   0.575  11.246  0.00  0.00    +0.000 A 
ATOM     35  C   UNL     1      -4.458   0.519  10.270  0.00  0.00    +0.000 A 
ATOM     36  C   UNL     1      -4.108   0.276   8.955  0.00  0.00    +0.005 A 
ENDBRANCH  30  31
ENDBRANCH  14  30
TORSDOF 11
