REMARK  Name = ZINC40344313
REMARK  7 active torsions:
REMARK  status: ('A' for Active; 'I' for Inactive)
REMARK    1  A    between atoms: C_1  and  O_2
REMARK    2  A    between atoms: O_2  and  C_3
REMARK    3  A    between atoms: C_6  and  C_9
REMARK    4  A    between atoms: N_17  and  C_28
REMARK    5  A    between atoms: C_18  and  C_20
REMARK    6  A    between atoms: C_23  and  S_26
REMARK    7  A    between atoms: S_26  and  C_27
REMARK                            x       y       z     vdW  Elec       q    Type
REMARK                         _______ _______ _______ _____ _____    ______ ____
ROOT
ATOM      1  C   UNL     1      -4.964  -2.620   0.035  0.00  0.00    +0.099 A 
ATOM      2  C   UNL     1      -5.270  -3.825  -0.606  0.00  0.00    +0.035 A 
ATOM      3  C   UNL     1      -6.598  -4.077  -0.321  0.00  0.00    +0.126 A 
ATOM      4  N   UNL     1      -7.022  -3.040   0.460  0.00  0.00    -0.272 N 
ATOM      5  H   UNL     1      -7.918  -2.942   0.818  0.00  0.00    +0.189 HD
ATOM      6  N   UNL     1      -6.055  -2.215   0.654  0.00  0.00    -0.173 NA
ATOM      7  C   UNL     1      -6.984  -5.336  -0.968  0.00  0.00    +0.266 C 
ATOM      8  O   UNL     1      -8.091  -5.836  -0.910  0.00  0.00    -0.268 OA
ATOM      9  N   UNL     1      -5.939  -5.858  -1.637  0.00  0.00    -0.282 N 
ATOM     10  C   UNL     1      -4.789  -4.962  -1.466  0.00  0.00    +0.142 C 
ENDROOT
BRANCH   1  14
ATOM     11  C   UNL     1      -1.200  -0.637   0.010  0.00  0.00    +0.120 A 
ATOM     12  C   UNL     1      -2.374   0.104   0.019  0.00  0.00    +0.046 A 
ATOM     13  C   UNL     1      -3.595  -0.536   0.028  0.00  0.00    +0.013 A 
ATOM     14  C   UNL     1      -3.651  -1.928   0.026  0.00  0.00    +0.003 A 
ATOM     15  C   UNL     1      -2.471  -2.670   0.016  0.00  0.00    +0.013 A 
ATOM     16  C   UNL     1      -1.252  -2.025   0.003  0.00  0.00    +0.046 A 
BRANCH  11  18
ATOM     17  C   UNL     1      -0.017   1.425   0.010  0.00  0.00    +0.277 C 
ATOM     18  O   UNL     1       0.002  -0.004   0.002  0.00  0.00    -0.495 OA
ENDBRANCH  11  18
ENDBRANCH   1  14
BRANCH  10  19
ATOM     19  C   UNL     1      -3.661  -5.690  -0.781  0.00  0.00    -0.022 A 
ATOM     20  C   UNL     1      -3.937  -6.595   0.227  0.00  0.00    +0.007 A 
ATOM     21  C   UNL     1      -2.907  -7.264   0.858  0.00  0.00    +0.015 A 
ATOM     22  C   UNL     1      -1.591  -7.026   0.478  0.00  0.00    +0.008 A 
ATOM     23  C   UNL     1      -1.318  -6.116  -0.536  0.00  0.00    +0.015 A 
ATOM     24  C   UNL     1      -2.354  -5.455  -1.166  0.00  0.00    +0.007 A 
BRANCH  22  25
ATOM     25  S   UNL     1      -0.273  -7.877   1.280  0.00  0.00    -0.129 S 
ATOM     26  C   UNL     1       1.218  -7.249   0.459  0.00  0.00    +0.090 C 
ENDBRANCH  22  25
ENDBRANCH  10  19
BRANCH   9  27
ATOM     27  C   UNL     1      -5.949  -7.107  -2.403  0.00  0.00    +0.077 C 
ATOM     28  C   UNL     1      -7.039  -7.050  -3.493  0.00  0.00    +0.022 C 
ATOM     29  C   UNL     1      -7.606  -8.491  -3.539  0.00  0.00    +0.002 C 
ATOM     30  C   UNL     1      -7.604  -8.906  -2.046  0.00  0.00    +0.002 C 
ATOM     31  C   UNL     1      -6.308  -8.287  -1.483  0.00  0.00    +0.022 C 
ENDBRANCH   9  27
TORSDOF 5
