REMARK  Name = ZINC07201131
REMARK  10 active torsions:
REMARK  status: ('A' for Active; 'I' for Inactive)
REMARK    1  A    between atoms: C_1  and  C_2
REMARK    2  A    between atoms: C_5  and  C_8
REMARK    3  A    between atoms: C_8  and  C_29
REMARK    4  A    between atoms: N_11  and  C_15
REMARK    5  A    between atoms: C_15  and  C_16
REMARK    6  A    between atoms: C_16  and  C_18
REMARK    7  A    between atoms: C_16  and  O_28
REMARK    8  A    between atoms: C_18  and  O_19
REMARK    9  A    between atoms: O_19  and  C_20
REMARK   10  A    between atoms: C_20  and  C_21
REMARK                            x       y       z     vdW  Elec       q    Type
REMARK                         _______ _______ _______ _____ _____    ______ ____
ROOT
ATOM      1  C   UNL     1       0.059  -4.275  -0.021  0.00  0.00    +0.135 C 
ATOM      2  C   UNL     1      -0.728  -4.825   1.151  0.00  0.00    +0.251 C 
ATOM      3  O   UNL     1      -0.502  -4.654   2.330  0.00  0.00    -0.272 OA
ATOM      4  N   UNL     1      -1.732  -5.543   0.611  0.00  0.00    -0.221 N 
ATOM      5  C   UNL     1      -1.689  -5.524  -0.726  0.00  0.00    +0.310 C 
ATOM      6  O   UNL     1      -2.490  -6.100  -1.437  0.00  0.00    -0.252 OA
ATOM      7  N   UNL     1      -0.660  -4.796  -1.197  0.00  0.00    -0.281 N 
ATOM      8  C   UNL     1       1.499  -4.794   0.002  0.00  0.00    +0.047 C 
ATOM      9  H   UNL     1      -0.435  -4.644  -2.128  0.00  0.00    +0.152 HD
ENDROOT
BRANCH   1  14
ATOM     10  C   UNL     1      -0.018   1.503   0.010  0.00  0.00    +0.044 C 
ATOM     11  C   UNL     1       0.002  -0.004   0.002  0.00  0.00    -0.050 A 
ATOM     12  C   UNL     1       0.006  -0.689  -1.199  0.00  0.00    +0.004 A 
ATOM     13  C   UNL     1       0.025  -2.071  -1.206  0.00  0.00    +0.006 A 
ATOM     14  C   UNL     1       0.040  -2.768  -0.013  0.00  0.00    -0.015 A 
ATOM     15  C   UNL     1       0.037  -2.084   1.188  0.00  0.00    +0.006 A 
ATOM     16  C   UNL     1       0.023  -0.702   1.195  0.00  0.00    +0.004 A 
ENDBRANCH   1  14
BRANCH   4  17
ATOM     17  C   UNL     1      -2.746  -6.258   1.391  0.00  0.00    +0.151 C 
BRANCH  17  18
ATOM     18  C   UNL     1      -3.934  -5.331   1.653  0.00  0.00    +0.158 C 
BRANCH  18  19
ATOM     19  O   UNL     1      -3.492  -4.185   2.383  0.00  0.00    -0.388 OA
ATOM     20  H   UNL     1      -3.098  -4.393   3.241  0.00  0.00    +0.210 HD
ENDBRANCH  18  19
BRANCH  18  21
ATOM     21  C   UNL     1      -4.993  -6.078   2.468  0.00  0.00    +0.193 C 
BRANCH  21  22
ATOM     22  O   UNL     1      -6.151  -5.253   2.614  0.00  0.00    -0.373 OA
BRANCH  22  23
ATOM     23  C   UNL     1      -7.205  -5.859   3.364  0.00  0.00    +0.198 C 
BRANCH  23  24
ATOM     24  C   UNL     1      -8.369  -4.907   3.454  0.00  0.00    +0.013 A 
ATOM     25  C   UNL     1      -8.295  -3.666   2.850  0.00  0.00    +0.009 A 
ATOM     26  C   UNL     1      -9.363  -2.791   2.933  0.00  0.00    +0.001 A 
ATOM     27  C   UNL     1     -10.506  -3.157   3.620  0.00  0.00    +0.003 A 
ATOM     28  C   UNL     1     -10.582  -4.398   4.224  0.00  0.00    +0.039 A 
ATOM     29  C   UNL     1      -9.515  -5.276   4.138  0.00  0.00    +0.129 A 
ATOM     30  F   UNL     1      -9.590  -6.491   4.724  0.00  0.00    -0.205 F 
ENDBRANCH  23  24
ENDBRANCH  22  23
ENDBRANCH  21  22
ENDBRANCH  18  21
ENDBRANCH  17  18
ENDBRANCH   4  17
TORSDOF 8
