REMARK  Name = ZINC38169682
REMARK  11 active torsions:
REMARK  status: ('A' for Active; 'I' for Inactive)
REMARK    1  A    between atoms: C_1  and  C_2
REMARK    2  A    between atoms: C_7  and  C_9
REMARK    3  A    between atoms: C_7  and  C_10
REMARK    4  A    between atoms: N_11  and  C_13
REMARK    5  A    between atoms: C_13  and  N_14
REMARK    6  A    between atoms: N_22  and  N_23
REMARK    7  A    between atoms: C_24  and  C_26
REMARK    8  A    between atoms: C_26  and  O_27
REMARK    9  A    between atoms: O_27  and  C_28
REMARK   10  A    between atoms: C_33  and  O_34
REMARK   11  A    between atoms: O_34  and  C_35
REMARK                            x       y       z     vdW  Elec       q    Type
REMARK                         _______ _______ _______ _____ _____    ______ ____
ROOT
ATOM      1  N   UNL     1       1.334  -2.441  -3.374  0.00  0.00    -0.282 N 
ATOM      2  C   UNL     1       0.861  -2.565  -4.676  0.00  0.00    +0.044 A 
ATOM      3  C   UNL     1      -0.343  -3.044  -5.179  0.00  0.00    +0.024 A 
ATOM      4  C   UNL     1      -0.567  -3.061  -6.541  0.00  0.00    +0.002 A 
ATOM      5  C   UNL     1       0.400  -2.604  -7.421  0.00  0.00    +0.001 A 
ATOM      6  C   UNL     1       1.602  -2.125  -6.940  0.00  0.00    +0.012 A 
ATOM      7  C   UNL     1       1.837  -2.104  -5.569  0.00  0.00    +0.028 A 
ATOM      8  C   UNL     1       2.987  -1.667  -4.744  0.00  0.00    +0.153 C 
ATOM      9  N   UNL     1       4.124  -1.165  -5.161  0.00  0.00    -0.174 NA
ATOM     10  C   UNL     1       2.571  -1.916  -3.349  0.00  0.00    +0.270 C 
ATOM     11  O   UNL     1       3.232  -1.688  -2.353  0.00  0.00    -0.268 OA
ENDROOT
BRANCH   9  12
ATOM     12  N   UNL     1       5.111  -0.803  -4.236  0.00  0.00    -0.203 N 
ATOM     13  C   UNL     1       6.279  -0.286  -4.664  0.00  0.00    +0.270 C 
ATOM     14  O   UNL     1       6.476  -0.135  -5.851  0.00  0.00    -0.270 OA
ATOM     15  H   UNL     1       4.953  -0.924  -3.286  0.00  0.00    +0.177 HD
BRANCH  13  16
ATOM     16  C   UNL     1       7.341   0.104  -3.668  0.00  0.00    +0.326 C 
BRANCH  16  17
ATOM     17  O   UNL     1       8.478   0.622  -4.363  0.00  0.00    -0.479 OA
BRANCH  17  18
ATOM     18  C   UNL     1       9.534   1.023  -3.605  0.00  0.00    +0.163 A 
ATOM     19  C   UNL     1       9.479   0.914  -2.225  0.00  0.00    +0.049 A 
ATOM     20  C   UNL     1      10.554   1.322  -1.457  0.00  0.00    +0.004 A 
ATOM     21  C   UNL     1      11.684   1.839  -2.062  0.00  0.00    +0.004 A 
ATOM     22  C   UNL     1      11.745   1.950  -3.439  0.00  0.00    +0.049 A 
ATOM     23  C   UNL     1      10.674   1.538  -4.215  0.00  0.00    +0.162 A 
BRANCH  23  24
ATOM     24  O   UNL     1      10.734   1.642  -5.570  0.00  0.00    -0.491 OA
ATOM     25  C   UNL     1      11.935   2.179  -6.126  0.00  0.00    +0.277 C 
ENDBRANCH  23  24
ENDBRANCH  17  18
ENDBRANCH  16  17
ENDBRANCH  13  16
ENDBRANCH   9  12
BRANCH   1  26
ATOM     26  C   UNL     1       0.577  -2.827  -2.181  0.00  0.00    +0.039 C 
BRANCH  26  36
ATOM     27  C   UNL     1      -0.019   1.532   0.011  0.00  0.00    +0.009 C 
ATOM     28  C   UNL     1       0.002  -0.004   0.002  0.00  0.00    -0.048 C 
ATOM     29  C   UNL     1      -1.426  -0.615   0.003  0.00  0.00    -0.011 C 
ATOM     30  C   UNL     1      -1.100  -2.018  -0.584  0.00  0.00    -0.065 C 
ATOM     31  C   UNL     1      -0.396  -2.818   0.494  0.00  0.00    -0.009 C 
ATOM     32  C   UNL     1       0.654  -2.101   1.313  0.00  0.00    -0.036 C 
ATOM     33  C   UNL     1       0.727  -0.591   1.214  0.00  0.00    +0.011 C 
ATOM     34  C   UNL     1       2.041  -2.692   0.990  0.00  0.00    +0.011 C 
ATOM     35  C   UNL     1       0.383  -2.444   2.801  0.00  0.00    +0.011 C 
ATOM     36  N   UNL     1      -0.211  -1.692  -1.717  0.00  0.00    +0.393 N 
ATOM     37  C   UNL     1       0.649  -0.577  -1.280  0.00  0.00    -0.070 C 
ATOM     38  H   UNL     1      -0.788  -1.358  -2.491  0.00  0.00    -0.079 HD
ENDBRANCH  26  36
ENDBRANCH   1  26
TORSDOF 7
