REMARK  Name = ZINC37558885
REMARK  6 active torsions:
REMARK  status: ('A' for Active; 'I' for Inactive)
REMARK    1  A    between atoms: C_1  and  C_2
REMARK    2  A    between atoms: C_5  and  C_8
REMARK    3  A    between atoms: C_8  and  N_9
REMARK    4  A    between atoms: N_16  and  C_27
REMARK    5  A    between atoms: N_19  and  C_20
REMARK    6  A    between atoms: C_27  and  C_28
REMARK                            x       y       z     vdW  Elec       q    Type
REMARK                         _______ _______ _______ _____ _____    ______ ____
ROOT
ATOM      1  N   UNL     1       1.146  -6.094   0.490  0.00  0.00    -0.320 N 
ATOM      2  C   UNL     1       1.779  -6.841  -0.436  0.00  0.00    +0.202 A 
ATOM      3  N   UNL     1       3.070  -6.800  -0.229  0.00  0.00    -0.217 NA
ATOM      4  C   UNL     1       3.334  -6.032   0.832  0.00  0.00    +0.173 A 
ATOM      5  C   UNL     1       2.118  -5.560   1.311  0.00  0.00    +0.152 A 
ATOM      6  C   UNL     1       2.107  -4.710   2.438  0.00  0.00    +0.283 A 
ATOM      7  O   UNL     1       1.054  -4.286   2.879  0.00  0.00    -0.265 OA
ATOM      8  N   UNL     1       3.276  -4.372   3.021  0.00  0.00    -0.255 N 
ATOM      9  C   UNL     1       4.446  -4.833   2.545  0.00  0.00    +0.338 A 
ATOM     10  O   UNL     1       5.479  -4.508   3.096  0.00  0.00    -0.246 OA
ATOM     11  N   UNL     1       4.501  -5.652   1.478  0.00  0.00    -0.245 N 
ENDROOT
BRANCH  11  12
ATOM     12  C   UNL     1       5.740  -6.110   1.010  0.00  0.00    +0.053 A 
ATOM     13  C   UNL     1       6.437  -5.378   0.057  0.00  0.00    +0.029 A 
ATOM     14  C   UNL     1       7.658  -5.831  -0.402  0.00  0.00    +0.040 A 
ATOM     15  C   UNL     1       8.188  -7.013   0.087  0.00  0.00    +0.124 A 
ATOM     16  C   UNL     1       7.494  -7.745   1.037  0.00  0.00    +0.040 A 
ATOM     17  C   UNL     1       6.275  -7.292   1.503  0.00  0.00    +0.029 A 
ATOM     18  F   UNL     1       9.383  -7.454  -0.363  0.00  0.00    -0.205 F 
ENDBRANCH  11  12
BRANCH   1  19
ATOM     19  C   UNL     1      -0.300  -5.884   0.601  0.00  0.00    +0.158 C 
BRANCH  19  24
ATOM     20  C   UNL     1      -1.755  -1.007  -2.136  0.00  0.00    +0.044 C 
ATOM     21  C   UNL     1      -1.375  -2.279  -1.422  0.00  0.00    -0.050 A 
ATOM     22  C   UNL     1      -1.367  -3.479  -2.107  0.00  0.00    +0.004 A 
ATOM     23  C   UNL     1      -1.019  -4.646  -1.452  0.00  0.00    +0.005 A 
ATOM     24  C   UNL     1      -0.678  -4.612  -0.113  0.00  0.00    -0.028 A 
ATOM     25  C   UNL     1      -0.685  -3.411   0.572  0.00  0.00    +0.005 A 
ATOM     26  C   UNL     1      -1.029  -2.244  -0.084  0.00  0.00    +0.004 A 
ENDBRANCH  19  24
ENDBRANCH   1  19
BRANCH   8  27
ATOM     27  C   UNL     1       3.271  -3.490   4.191  0.00  0.00    +0.156 C 
BRANCH  27  28
ATOM     28  C   UNL     1       3.170  -4.320   5.445  0.00  0.00    -0.013 C 
ATOM     29  C   UNL     1       4.066  -4.188   6.391  0.00  0.00    +0.005 C 
ENDBRANCH  27  28
ENDBRANCH   8  27
TORSDOF 5
