REMARK  Name = ZINC62591906
REMARK  8 active torsions:
REMARK  status: ('A' for Active; 'I' for Inactive)
REMARK    1  A    between atoms: C_1  and  C_2
REMARK    2  A    between atoms: C_2  and  C_3
REMARK    3  A    between atoms: C_2  and  C_4
REMARK    4  A    between atoms: C_4  and  C_6
REMARK    5  A    between atoms: C_4  and  N_13
REMARK    6  A    between atoms: C_14  and  C_16
REMARK    7  A    between atoms: C_16  and  N_17
REMARK    8  A    between atoms: C_19  and  C_22
REMARK                            x       y       z     vdW  Elec       q    Type
REMARK                         _______ _______ _______ _____ _____    ______ ____
ROOT
ATOM      1  N   UNL     1      -1.413  -1.998   0.005  0.00  0.00    -0.307 N 
ATOM      2  C   UNL     1      -1.292  -2.677   1.163  0.00  0.00    +0.237 C 
ATOM      3  O   UNL     1      -1.198  -2.075   2.212  0.00  0.00    -0.274 OA
ATOM      4  H   UNL     1      -1.488  -2.480  -0.834  0.00  0.00    +0.149 HD
ENDROOT
BRANCH   1   5
ATOM      5  C   UNL     1      -1.433  -0.534   0.013  0.00  0.00    +0.106 C 
BRANCH   5   6
ATOM      6  C   UNL     1      -2.162  -0.034  -1.208  0.00  0.00    -0.027 A 
ATOM      7  C   UNL     1      -1.981  -0.663  -2.426  0.00  0.00    +0.008 A 
ATOM      8  C   UNL     1      -2.650  -0.207  -3.546  0.00  0.00    +0.038 A 
ATOM      9  C   UNL     1      -3.500   0.881  -3.448  0.00  0.00    +0.123 A 
ATOM     10  C   UNL     1      -3.681   1.510  -2.228  0.00  0.00    +0.038 A 
ATOM     11  C   UNL     1      -3.015   1.049  -1.108  0.00  0.00    +0.008 A 
ATOM     12  F   UNL     1      -4.154   1.329  -4.543  0.00  0.00    -0.205 F 
ENDBRANCH   5   6
BRANCH   5  14
ATOM     13  C   UNL     1      -0.019   1.526   0.010  0.00  0.00    +0.009 C 
ATOM     14  C   UNL     1       0.002  -0.004   0.002  0.00  0.00    +0.008 C 
ATOM     15  C   UNL     1       0.742  -0.511   1.242  0.00  0.00    +0.009 C 
ENDBRANCH   5  14
ENDBRANCH   1   5
BRANCH   2  16
ATOM     16  C   UNL     1      -1.271  -4.184   1.155  0.00  0.00    +0.263 C 
BRANCH  16  17
ATOM     17  N   UNL     1      -1.131  -4.678   2.527  0.00  0.00    -0.154 N 
ATOM     18  N   UNL     1      -0.013  -4.910   3.125  0.00  0.00    -0.130 NA
ATOM     19  C   UNL     1      -0.288  -5.341   4.340  0.00  0.00    +0.206 A 
ATOM     20  N   UNL     1      -1.624  -5.359   4.448  0.00  0.00    -0.108 NA
ATOM     21  N   UNL     1      -2.105  -4.943   3.326  0.00  0.00    -0.045 NA
BRANCH  19  22
ATOM     22  C   UNL     1       0.691  -5.731   5.385  0.00  0.00    +0.036 A 
ATOM     23  C   UNL     1       2.058  -5.654   5.126  0.00  0.00    +0.013 A 
ATOM     24  C   UNL     1       2.965  -6.018   6.101  0.00  0.00    +0.001 A 
ATOM     25  C   UNL     1       2.518  -6.459   7.334  0.00  0.00    +0.001 A 
ATOM     26  C   UNL     1       1.163  -6.538   7.597  0.00  0.00    +0.015 A 
ATOM     27  C   UNL     1       0.247  -6.171   6.630  0.00  0.00    +0.024 A 
ATOM     28  I   UNL     1      -1.806  -6.283   7.033  0.00  0.00    -0.043 I 
ENDBRANCH  19  22
ENDBRANCH  16  17
ENDBRANCH   2  16
TORSDOF 6
