REMARK  Name = ZINC39670094
REMARK  9 active torsions:
REMARK  status: ('A' for Active; 'I' for Inactive)
REMARK    1  A    between atoms: C_1  and  C_2
REMARK    2  A    between atoms: C_2  and  C_3
REMARK    3  A    between atoms: C_3  and  C_4
REMARK    4  A    between atoms: C_3  and  C_6
REMARK    5  A    between atoms: C_4  and  C_5
REMARK    6  A    between atoms: C_10  and  C_19
REMARK    7  A    between atoms: N_21  and  C_22
REMARK    8  A    between atoms: C_22  and  C_23
REMARK    9  A    between atoms: C_28  and  C_32
REMARK                            x       y       z     vdW  Elec       q    Type
REMARK                         _______ _______ _______ _____ _____    ______ ____
ROOT
ATOM      1  C   UNL     1      -1.677  -2.058   0.373  0.00  0.00    +0.219 C 
ATOM      2  O   UNL     1      -2.303  -2.835  -0.317  0.00  0.00    -0.275 OA
ATOM      3  N   UNL     1      -0.942  -2.516   1.407  0.00  0.00    -0.300 N 
ATOM      4  C   UNL     1      -0.123  -1.728   2.358  0.00  0.00    +0.121 C 
ATOM      5  C   UNL     1      -0.355  -2.406   3.727  0.00  0.00    +0.100 C 
ATOM      6  C   UNL     1      -0.778  -3.845   3.386  0.00  0.00    -0.004 C 
ATOM      7  C   UNL     1      -0.776  -3.920   1.852  0.00  0.00    +0.115 C 
ATOM      8  C   UNL     1      -2.180  -4.124   3.920  0.00  0.00    -0.010 C 
ATOM      9  C   UNL     1      -2.556  -5.578   3.618  0.00  0.00    -0.082 C 
ATOM     10  N   UNL     1      -1.582  -6.477   4.248  0.00  0.00    +0.379 N 
ATOM     11  C   UNL     1      -0.253  -6.266   3.663  0.00  0.00    -0.082 C 
ATOM     12  C   UNL     1       0.220  -4.841   3.966  0.00  0.00    -0.010 C 
ATOM     13  H   UNL     1      -1.545  -6.290   5.239  0.00  0.00    -0.086 HD
ATOM     14  H   UNL     1      -1.865  -7.434   4.100  0.00  0.00    -0.086 HD
ENDROOT
BRANCH   5  15
ATOM     15  C   UNL     1       0.918  -2.409   4.534  0.00  0.00    +0.219 C 
ATOM     16  O   UNL     1       1.992  -2.364   3.972  0.00  0.00    -0.275 OA
ATOM     17  N   UNL     1       0.863  -2.461   5.879  0.00  0.00    -0.309 N 
ATOM     18  H   UNL     1       0.004  -2.497   6.328  0.00  0.00    +0.149 HD
BRANCH  17  19
ATOM     19  C   UNL     1       2.100  -2.463   6.663  0.00  0.00    +0.159 C 
BRANCH  19  20
ATOM     20  C   UNL     1       1.764  -2.526   8.131  0.00  0.00    +0.051 A 
ATOM     21  C   UNL     1       1.652  -1.465   8.960  0.00  0.00    +0.115 A 
ATOM     22  N   UNL     1       1.337  -1.952  10.200  0.00  0.00    -0.308 N 
ATOM     23  C   UNL     1       1.109  -1.344  11.400  0.00  0.00    +0.093 A 
ATOM     24  C   UNL     1       0.809  -2.074  12.494  0.00  0.00    +0.021 A 
ATOM     25  C   UNL     1       0.729  -3.474  12.412  0.00  0.00    -0.046 A 
ATOM     26  C   UNL     1       0.954  -4.093  11.222  0.00  0.00    +0.048 A 
ATOM     27  C   UNL     1       1.266  -3.316  10.088  0.00  0.00    +0.116 A 
ATOM     28  N   UNL     1       1.523  -3.639   8.828  0.00  0.00    -0.342 N 
ATOM     29  C   UNL     1       0.395  -4.287  13.636  0.00  0.00    +0.044 C 
ATOM     30  H   UNL     1       1.535  -4.540   8.470  0.00  0.00    +0.167 HD
ENDBRANCH  19  20
ENDBRANCH  17  19
ENDBRANCH   5  15
BRANCH   1  31
ATOM     31  C   UNL     1      -1.720  -0.582   0.075  0.00  0.00    +0.075 C 
BRANCH  31  33
ATOM     32  C   UNL     1      -0.329   1.441  -0.388  0.00  0.00    +0.004 C 
ATOM     33  C   UNL     1      -0.307  -0.080  -0.225  0.00  0.00    +0.009 C 
ENDBRANCH  31  33
BRANCH  31  34
ATOM     34  C   UNL     1      -2.619  -0.332  -1.138  0.00  0.00    +0.009 C 
ATOM     35  C   UNL     1      -4.065  -0.682  -0.782  0.00  0.00    +0.004 C 
ENDBRANCH  31  34
ENDBRANCH   1  31
TORSDOF 6
