REMARK  Name = ZINC58715122
REMARK  10 active torsions:
REMARK  status: ('A' for Active; 'I' for Inactive)
REMARK    1  A    between atoms: C_1  and  C_2
REMARK    2  A    between atoms: C_2  and  C_4
REMARK    3  A    between atoms: C_2  and  N_11
REMARK    4  A    between atoms: N_14  and  C_15
REMARK    5  A    between atoms: C_15  and  C_16
REMARK    6  A    between atoms: C_16  and  C_18
REMARK    7  A    between atoms: C_16  and  N_22
REMARK    8  A    between atoms: C_18  and  C_19
REMARK    9  A    between atoms: C_19  and  C_20
REMARK   10  A    between atoms: C_19  and  C_21
REMARK                            x       y       z     vdW  Elec       q    Type
REMARK                         _______ _______ _______ _____ _____    ______ ____
ROOT
ATOM      1  N   UNL     1      -1.931  -2.434  -5.214  0.00  0.00    -0.293 N 
ATOM      2  C   UNL     1      -2.642  -1.585  -4.445  0.00  0.00    +0.300 C 
ATOM      3  O   UNL     1      -2.198  -0.483  -4.187  0.00  0.00    -0.253 OA
ATOM      4  N   UNL     1      -3.844  -1.958  -3.963  0.00  0.00    -0.298 N 
ATOM      5  H   UNL     1      -2.285  -3.313  -5.421  0.00  0.00    +0.151 HD
ATOM      6  H   UNL     1      -4.197  -2.838  -4.169  0.00  0.00    +0.150 HD
ENDROOT
BRANCH   1   8
ATOM      7  C   UNL     1       0.464  -2.376  -4.721  0.00  0.00    +0.033 C 
ATOM      8  C   UNL     1      -0.625  -2.029  -5.739  0.00  0.00    +0.103 C 
BRANCH   8   9
ATOM      9  C   UNL     1      -0.355  -2.755  -7.031  0.00  0.00    -0.014 A 
ATOM     10  C   UNL     1      -0.926  -3.993  -7.261  0.00  0.00    +0.006 A 
ATOM     11  C   UNL     1      -0.679  -4.659  -8.447  0.00  0.00    +0.000 A 
ATOM     12  C   UNL     1       0.140  -4.088  -9.403  0.00  0.00    +0.001 A 
ATOM     13  C   UNL     1       0.711  -2.851  -9.174  0.00  0.00    +0.015 A 
ATOM     14  C   UNL     1       0.460  -2.181  -7.990  0.00  0.00    +0.023 A 
ATOM     15 BR   UNL     1       1.236  -0.485  -7.679  0.00  0.00    -0.050 Br
ENDBRANCH   8   9
ENDBRANCH   1   8
BRANCH   4  16
ATOM     16  C   UNL     1      -4.616  -1.036  -3.127  0.00  0.00    +0.124 C 
BRANCH  16  17
ATOM     17  C   UNL     1      -5.878  -1.739  -2.623  0.00  0.00    +0.074 C 
BRANCH  17  18
ATOM     18  N   UNL     1      -6.594  -0.853  -1.695  0.00  0.00    -0.294 NA
ATOM     19  C   UNL     1      -6.837   0.463  -2.304  0.00  0.00    +0.113 C 
ATOM     20  C   UNL     1      -7.636   1.331  -1.328  0.00  0.00    +0.175 C 
ATOM     21  O   UNL     1      -6.923   1.429  -0.092  0.00  0.00    -0.377 OA
ATOM     22  C   UNL     1      -6.669   0.166   0.528  0.00  0.00    +0.175 C 
ATOM     23  C   UNL     1      -5.861  -0.714  -0.429  0.00  0.00    +0.113 C 
ENDBRANCH  17  18
BRANCH  17  24
ATOM     24  C   UNL     1      -6.783  -2.073  -3.810  0.00  0.00    +0.023 C 
BRANCH  24  25
ATOM     25  C   UNL     1      -7.985  -2.885  -3.322  0.00  0.00    -0.016 C 
ATOM     26  C   UNL     1      -8.953  -3.113  -4.485  0.00  0.00    +0.007 C 
ATOM     27  C   UNL     1      -7.504  -4.235  -2.787  0.00  0.00    +0.007 C 
ENDBRANCH  24  25
ENDBRANCH  17  24
ENDBRANCH  16  17
ENDBRANCH   4  16
TORSDOF 7
