REMARK  Name = ZINC35887353
REMARK  12 active torsions:
REMARK  status: ('A' for Active; 'I' for Inactive)
REMARK    1  A    between atoms: C_1  and  C_2
REMARK    2  A    between atoms: C_7  and  C_8
REMARK    3  A    between atoms: N_11  and  C_29
REMARK    4  A    between atoms: C_13  and  C_15
REMARK    5  A    between atoms: C_15  and  N_16
REMARK    6  A    between atoms: N_16  and  C_17
REMARK    7  A    between atoms: C_17  and  C_18
REMARK    8  A    between atoms: C_18  and  C_19
REMARK    9  A    between atoms: C_18  and  C_20
REMARK   10  A    between atoms: C_21  and  C_23
REMARK   11  A    between atoms: C_29  and  C_30
REMARK   12  A    between atoms: C_35  and  O_36
REMARK                            x       y       z     vdW  Elec       q    Type
REMARK                         _______ _______ _______ _____ _____    ______ ____
ROOT
ATOM      1  C   UNL     1       0.396  -0.856   2.853  0.00  0.00    +0.005 C 
ATOM      2  C   UNL     1       1.321  -1.481   3.918  0.00  0.00    -0.070 C 
ATOM      3  N   UNL     1       0.702  -1.110   5.216  0.00  0.00    +0.383 N 
ATOM      4  C   UNL     1      -0.757  -1.250   4.978  0.00  0.00    -0.073 C 
ATOM      5  C   UNL     1      -0.973  -0.702   3.548  0.00  0.00    -0.005 C 
ATOM      6  H   UNL     1       0.931  -0.157   5.457  0.00  0.00    -0.081 HD
ENDROOT
BRANCH   1  13
ATOM      7  C   UNL     1       0.697   0.205   0.182  0.00  0.00    +0.044 C 
ATOM      8  C   UNL     1       0.421  -1.263   0.383  0.00  0.00    -0.047 A 
ATOM      9  C   UNL     1       0.318  -2.103  -0.710  0.00  0.00    +0.003 A 
ATOM     10  C   UNL     1       0.065  -3.450  -0.525  0.00  0.00    +0.000 A 
ATOM     11  C   UNL     1      -0.085  -3.956   0.753  0.00  0.00    +0.000 A 
ATOM     12  C   UNL     1       0.019  -3.116   1.845  0.00  0.00    +0.004 A 
ATOM     13  C   UNL     1       0.277  -1.770   1.661  0.00  0.00    -0.043 A 
ENDBRANCH   1  13
BRANCH   5  14
ATOM     14  C   UNL     1      -2.036  -1.524   2.817  0.00  0.00    +0.110 C 
BRANCH  14  15
ATOM     15  N   UNL     1      -3.346  -1.279   3.425  0.00  0.00    -0.297 N 
ATOM     16  C   UNL     1      -3.772  -2.052   4.444  0.00  0.00    +0.247 C 
ATOM     17  O   UNL     1      -3.109  -3.007   4.800  0.00  0.00    -0.270 OA
BRANCH  16  18
ATOM     18  C   UNL     1      -5.044  -1.738   5.129  0.00  0.00    +0.037 A 
ATOM     19  C   UNL     1      -6.181  -1.423   4.385  0.00  0.00    +0.013 A 
ATOM     20  C   UNL     1      -7.365  -1.131   5.030  0.00  0.00    +0.001 A 
ATOM     21  C   UNL     1      -7.427  -1.151   6.412  0.00  0.00    +0.000 A 
ATOM     22  C   UNL     1      -6.303  -1.462   7.156  0.00  0.00    +0.001 A 
ATOM     23  C   UNL     1      -5.114  -1.762   6.523  0.00  0.00    +0.013 A 
ENDBRANCH  16  18
BRANCH  15  24
ATOM     24  C   UNL     1      -4.194  -0.193   2.926  0.00  0.00    +0.111 C 
BRANCH  24  25
ATOM     25  C   UNL     1      -4.950  -0.667   1.683  0.00  0.00    +0.000 C 
ATOM     26  C   UNL     1      -5.970   0.396   1.271  0.00  0.00    +0.009 C 
ATOM     27  C   UNL     1      -3.960  -0.895   0.540  0.00  0.00    +0.009 C 
ENDBRANCH  24  25
ENDBRANCH  15  24
ENDBRANCH  14  15
ENDBRANCH   5  14
BRANCH   3  28
ATOM     28  C   UNL     1       1.140  -2.028   6.276  0.00  0.00    -0.039 C 
BRANCH  28  29
ATOM     29  C   UNL     1       2.616  -1.847   6.520  0.00  0.00    -0.022 A 
ATOM     30  C   UNL     1       3.522  -2.729   5.964  0.00  0.00    +0.005 A 
ATOM     31  C   UNL     1       4.876  -2.564   6.188  0.00  0.00    +0.000 A 
ATOM     32  C   UNL     1       5.327  -1.515   6.968  0.00  0.00    +0.004 A 
ATOM     33  C   UNL     1       4.426  -0.630   7.526  0.00  0.00    +0.045 A 
ATOM     34  C   UNL     1       3.066  -0.791   7.298  0.00  0.00    +0.118 A 
BRANCH  34  35
ATOM     35  O   UNL     1       2.177   0.082   7.841  0.00  0.00    -0.507 OA
ATOM     36  H   UNL     1       1.863  -0.172   8.719  0.00  0.00    +0.292 HD
ENDBRANCH  34  35
ENDBRANCH  28  29
ENDBRANCH   3  28
TORSDOF 9
