REMARK  Name = ZINC40010591
REMARK  8 active torsions:
REMARK  status: ('A' for Active; 'I' for Inactive)
REMARK    1  A    between atoms: C_1  and  C_2
REMARK    2  A    between atoms: C_2  and  C_3
REMARK    3  A    between atoms: C_10  and  C_15
REMARK    4  A    between atoms: C_19  and  O_33
REMARK    5  A    between atoms: C_20  and  O_31
REMARK    6  A    between atoms: C_26  and  C_28
REMARK    7  A    between atoms: O_31  and  C_32
REMARK    8  A    between atoms: O_33  and  C_34
REMARK                            x       y       z     vdW  Elec       q    Type
REMARK                         _______ _______ _______ _____ _____    ______ ____
ROOT
ATOM      1  C   UNL     1       5.759  -0.877  -4.134  0.00  0.00    +0.122 C 
ATOM      2  C   UNL     1       6.705  -0.650  -2.981  0.00  0.00    -0.019 A 
ATOM      3  C   UNL     1       6.235   0.070  -1.891  0.00  0.00    +0.055 A 
ATOM      4  C   UNL     1       7.049   0.303  -0.798  0.00  0.00    +0.162 A 
ATOM      5  C   UNL     1       8.351  -0.190  -0.794  0.00  0.00    +0.162 A 
ATOM      6  C   UNL     1       8.816  -0.902  -1.883  0.00  0.00    +0.053 A 
ATOM      7  C   UNL     1       7.996  -1.130  -2.983  0.00  0.00    -0.037 A 
ATOM      8  C   UNL     1       8.583  -1.891  -4.143  0.00  0.00    +0.054 C 
ATOM      9  C   UNL     1       7.480  -2.470  -5.028  0.00  0.00    +0.113 C 
ATOM     10  N   UNL     1       6.500  -1.403  -5.285  0.00  0.00    -0.293 N 
ATOM     11  C   UNL     1       6.291  -0.930  -6.529  0.00  0.00    +0.219 C 
ATOM     12  O   UNL     1       5.476  -0.051  -6.715  0.00  0.00    -0.275 OA
ENDROOT
BRANCH   1  20
ATOM     13  C   UNL     1       0.707  -0.490  -1.238  0.00  0.00    -0.047 A 
ATOM     14  C   UNL     1      -0.031  -0.716  -2.400  0.00  0.00    +0.005 A 
ATOM     15  C   UNL     1       0.535  -1.153  -3.555  0.00  0.00    +0.024 A 
ATOM     16  C   UNL     1       1.918  -1.400  -3.623  0.00  0.00    +0.040 A 
ATOM     17  N   UNL     1       2.463  -1.829  -4.762  0.00  0.00    -0.284 N 
ATOM     18  C   UNL     1       3.754  -2.080  -4.895  0.00  0.00    +0.226 C 
ATOM     19  O   UNL     1       4.194  -2.469  -5.960  0.00  0.00    -0.275 OA
ATOM     20  C   UNL     1       4.682  -1.881  -3.718  0.00  0.00    +0.123 C 
ATOM     21  C   UNL     1       4.068  -1.393  -2.421  0.00  0.00    -0.003 C 
ATOM     22  C   UNL     1       2.723  -1.170  -2.411  0.00  0.00    -0.007 A 
ATOM     23  C   UNL     1       2.050  -0.694  -1.202  0.00  0.00    +0.013 A 
ATOM     24  H   UNL     1       1.884  -1.962  -5.529  0.00  0.00    +0.155 HD
BRANCH  13  26
ATOM     25  C   UNL     1      -0.019   1.526   0.010  0.00  0.00    +0.009 C 
ATOM     26  C   UNL     1       0.002  -0.004   0.002  0.00  0.00    +0.032 C 
ENDBRANCH  13  26
ENDBRANCH   1  20
BRANCH  11  27
ATOM     27  C   UNL     1       7.069  -1.494  -7.690  0.00  0.00    +0.075 C 
ATOM     28  C   UNL     1       8.096  -0.580  -8.362  0.00  0.00    +0.013 C 
ATOM     29  C   UNL     1       6.786  -0.914  -9.078  0.00  0.00    +0.013 C 
ENDBRANCH  11  27
BRANCH   5  30
ATOM     30  O   UNL     1       9.161   0.028   0.276  0.00  0.00    -0.491 OA
ATOM     31  C   UNL     1      10.484  -0.508   0.209  0.00  0.00    +0.277 C 
ENDBRANCH   5  30
BRANCH   4  32
ATOM     32  O   UNL     1       6.582   1.010   0.265  0.00  0.00    -0.491 OA
ATOM     33  C   UNL     1       5.236   1.484   0.188  0.00  0.00    +0.277 C 
ENDBRANCH   4  32
TORSDOF 5
