REMARK  Name = ZINC12641757
REMARK  11 active torsions:
REMARK  status: ('A' for Active; 'I' for Inactive)
REMARK    1  A    between atoms: C_1  and  C_2
REMARK    2  A    between atoms: C_2  and  O_3
REMARK    3  A    between atoms: O_3  and  C_4
REMARK    4  A    between atoms: C_4  and  C_6
REMARK    5  A    between atoms: C_7  and  C_32
REMARK    6  A    between atoms: C_11  and  C_13
REMARK    7  A    between atoms: C_16  and  O_22
REMARK    8  A    between atoms: C_17  and  N_19
REMARK    9  A    between atoms: O_22  and  C_23
REMARK   10  A    between atoms: C_26  and  O_29
REMARK   11  A    between atoms: O_29  and  C_30
REMARK                            x       y       z     vdW  Elec       q    Type
REMARK                         _______ _______ _______ _____ _____    ______ ____
ROOT
ATOM      1  C   UNL     1       1.711  -2.307   1.515  0.00  0.00    +0.087 C 
ATOM      2  C   UNL     1       1.101  -3.513   1.680  0.00  0.00    +0.053 C 
ATOM      3  N   UNL     1       1.074  -4.092   2.933  0.00  0.00    -0.287 N 
ATOM      4  C   UNL     1       1.939  -3.644   3.906  0.00  0.00    +0.178 C 
ATOM      5  N   UNL     1       2.538  -2.501   3.806  0.00  0.00    -0.243 NA
ATOM      6  C   UNL     1       2.346  -1.600   2.679  0.00  0.00    +0.177 C 
ATOM      7  N   UNL     1       2.172  -4.430   5.010  0.00  0.00    -0.331 N 
ATOM      8  H   UNL     1       0.450  -4.809   3.127  0.00  0.00    +0.155 HD
ATOM      9  H   UNL     1       1.730  -5.289   5.096  0.00  0.00    +0.145 HD
ATOM     10  H   UNL     1       2.780  -4.126   5.702  0.00  0.00    +0.145 HD
ENDROOT
BRANCH   6  11
ATOM     11  C   UNL     1       1.458  -0.462   3.110  0.00  0.00    -0.016 A 
ATOM     12  C   UNL     1       0.355  -0.710   3.907  0.00  0.00    +0.010 A 
ATOM     13  C   UNL     1      -0.460   0.332   4.303  0.00  0.00    +0.049 A 
ATOM     14  C   UNL     1      -0.172   1.629   3.901  0.00  0.00    +0.159 A 
ATOM     15  C   UNL     1       0.935   1.875   3.102  0.00  0.00    +0.168 A 
ATOM     16  C   UNL     1       1.750   0.830   2.712  0.00  0.00    +0.042 A 
BRANCH  15  17
ATOM     17  N   UNL     1       1.245   3.257   2.671  0.00  0.00    +0.060 N 
ATOM     18  O   UNL     1       2.209   3.471   1.974  0.00  0.00    -0.126 OA
ATOM     19  O   UNL     1       0.534   4.172   3.016  0.00  0.00    -0.126 OA
ENDBRANCH  15  17
BRANCH  14  20
ATOM     20  O   UNL     1      -0.973   2.656   4.290  0.00  0.00    -0.454 OA
BRANCH  20  21
ATOM     21  C   UNL     1      -1.946   2.396   5.202  0.00  0.00    +0.129 A 
ATOM     22  C   UNL     1      -1.611   2.169   6.529  0.00  0.00    +0.050 A 
ATOM     23  C   UNL     1      -2.600   1.905   7.457  0.00  0.00    +0.049 A 
ATOM     24  C   UNL     1      -3.929   1.866   7.061  0.00  0.00    +0.120 A 
ATOM     25  C   UNL     1      -4.264   2.093   5.734  0.00  0.00    +0.049 A 
ATOM     26  C   UNL     1      -3.276   2.363   4.808  0.00  0.00    +0.050 A 
BRANCH  24  27
ATOM     27  O   UNL     1      -4.902   1.605   7.974  0.00  0.00    -0.495 OA
ATOM     28  C   UNL     1      -6.249   1.581   7.497  0.00  0.00    +0.277 C 
ENDBRANCH  24  27
ENDBRANCH  20  21
ENDBRANCH  14  20
ENDBRANCH   6  11
BRANCH   2  29
ATOM     29  C   UNL     1       0.475  -4.196   0.530  0.00  0.00    -0.003 A 
ATOM     30  C   UNL     1       0.962  -5.432   0.098  0.00  0.00    +0.010 A 
ATOM     31  C   UNL     1       0.372  -6.064  -0.977  0.00  0.00    +0.001 A 
ATOM     32  C   UNL     1      -0.699  -5.476  -1.627  0.00  0.00    +0.000 A 
ATOM     33  C   UNL     1      -1.186  -4.252  -1.204  0.00  0.00    +0.001 A 
ATOM     34  C   UNL     1      -0.610  -3.611  -0.127  0.00  0.00    +0.010 A 
ENDBRANCH   2  29
BRANCH   1  35
ATOM     35  C   UNL     1       1.751  -1.716   0.237  0.00  0.00    +0.339 C 
ATOM     36  O   UNL     1       1.341  -2.332  -0.731  0.00  0.00    -0.245 OA
BRANCH  35  37
ATOM     37  O   UNL     1       2.244  -0.469   0.085  0.00  0.00    -0.462 OA
BRANCH  37  39
ATOM     38  C   UNL     1       2.843   1.479  -1.214  0.00  0.00    +0.048 C 
ATOM     39  C   UNL     1       2.254   0.068  -1.240  0.00  0.00    +0.229 C 
ENDBRANCH  37  39
ENDBRANCH  35  37
ENDBRANCH   1  35
TORSDOF 9
