REMARK  Name = ZINC09170515
REMARK  5 active torsions:
REMARK  status: ('A' for Active; 'I' for Inactive)
REMARK    1  A    between atoms: C_1  and  C_2
REMARK    2  A    between atoms: C_6  and  S_8
REMARK    3  A    between atoms: S_8  and  C_9
REMARK    4  A    between atoms: C_9  and  C_10
REMARK    5  A    between atoms: N_20  and  C_23
REMARK                            x       y       z     vdW  Elec       q    Type
REMARK                         _______ _______ _______ _____ _____    ______ ____
ROOT
ATOM      1  C   UNL     1       0.095  -5.472   3.441  0.00  0.00    +0.031 A 
ATOM      2  C   UNL     1      -1.032  -6.113   3.804  0.00  0.00    +0.073 A 
ATOM      3  C   UNL     1      -1.032  -6.924   4.970  0.00  0.00    +0.196 A 
ATOM      4  O   UNL     1      -2.038  -7.519   5.325  0.00  0.00    -0.287 OA
ATOM      5  C   UNL     1       0.212  -7.025   5.728  0.00  0.00    +0.129 A 
ATOM      6  C   UNL     1       1.336  -6.325   5.279  0.00  0.00    +0.140 A 
ATOM      7  N   UNL     1       1.250  -5.576   4.150  0.00  0.00    -0.342 N 
ATOM      8  H   UNL     1       2.035  -5.096   3.843  0.00  0.00    +0.167 HD
ATOM      9  N   UNL     1       2.356  -6.582   6.149  0.00  0.00    -0.274 N 
ATOM     10  H   UNL     1       3.254  -6.223   6.078  0.00  0.00    +0.189 HD
ATOM     11  N   UNL     1       1.909  -7.440   7.160  0.00  0.00    -0.217 N 
ATOM     12  C   UNL     1       0.610  -7.736   6.944  0.00  0.00    +0.285 A 
ATOM     13  O   UNL     1      -0.094  -8.455   7.627  0.00  0.00    -0.265 OA
ENDROOT
BRANCH  11  14
ATOM     14  C   UNL     1       2.684  -7.915   8.223  0.00  0.00    +0.067 A 
ATOM     15  C   UNL     1       4.014  -7.532   8.340  0.00  0.00    +0.028 A 
ATOM     16  C   UNL     1       4.777  -8.003   9.391  0.00  0.00    +0.002 A 
ATOM     17  C   UNL     1       4.217  -8.855  10.326  0.00  0.00    +0.000 A 
ATOM     18  C   UNL     1       2.894  -9.238  10.212  0.00  0.00    +0.002 A 
ATOM     19  C   UNL     1       2.124  -8.765   9.167  0.00  0.00    +0.028 A 
ENDBRANCH  11  14
BRANCH   1  20
ATOM     20  C   UNL     1       0.077  -4.615   2.202  0.00  0.00    +0.130 C 
BRANCH  20  21
ATOM     21  S   UNL     1       0.055  -2.865   2.677  0.00  0.00    -0.080 S 
BRANCH  21  27
ATOM     22  C   UNL     1      -0.018   1.503   0.010  0.00  0.00    +0.066 C 
ATOM     23  C   UNL     1       0.002  -0.004   0.002  0.00  0.00    +0.043 A 
ATOM     24  C   UNL     1       0.006  -0.699  -1.198  0.00  0.00    +0.043 A 
ATOM     25  C   UNL     1       0.025  -2.084  -1.161  0.00  0.00    +0.115 A 
ATOM     26  N   UNL     1       0.040  -2.699   0.010  0.00  0.00    -0.230 NA
ATOM     27  C   UNL     1       0.035  -2.005   1.139  0.00  0.00    +0.189 A 
ATOM     28  N   UNL     1       0.022  -0.679   1.139  0.00  0.00    -0.227 NA
ENDBRANCH  21  27
ENDBRANCH  20  21
ENDBRANCH   1  20
TORSDOF 4
