REMARK  Name = ZINC39966957
REMARK  9 active torsions:
REMARK  status: ('A' for Active; 'I' for Inactive)
REMARK    1  A    between atoms: C_1  and  C_2
REMARK    2  A    between atoms: N_4  and  C_5
REMARK    3  A    between atoms: C_9  and  N_11
REMARK    4  A    between atoms: C_12  and  C_14
REMARK    5  A    between atoms: C_14  and  S_15
REMARK    6  A    between atoms: S_15  and  C_16
REMARK    7  A    between atoms: C_19  and  C_28
REMARK    8  A    between atoms: N_20  and  C_21
REMARK    9  A    between atoms: C_21  and  C_22
REMARK                            x       y       z     vdW  Elec       q    Type
REMARK                         _______ _______ _______ _____ _____    ______ ____
ROOT
ATOM      1  C   UNL     1      -0.787  -9.546  -5.939  0.00  0.00    +0.192 A 
ATOM      2  N   UNL     1      -0.452  -9.042  -7.103  0.00  0.00    -0.122 NA
ATOM      3  N   UNL     1      -0.272  -9.984  -7.958  0.00  0.00    -0.128 NA
ATOM      4  C   UNL     1      -0.482 -11.150  -7.392  0.00  0.00    +0.166 A 
ATOM      5  N   UNL     1      -0.812 -10.907  -6.079  0.00  0.00    -0.300 N 
ENDROOT
BRANCH   4   6
ATOM      6  C   UNL     1      -0.377 -12.474  -8.041  0.00  0.00    +0.030 A 
ATOM      7  C   UNL     1       0.308 -13.484  -7.431  0.00  0.00    +0.057 A 
ATOM      8  S   UNL     1       0.125 -14.814  -8.607  0.00  0.00    -0.101 S 
ATOM      9  C   UNL     1      -0.846 -13.944  -9.812  0.00  0.00    -0.006 A 
ATOM     10  C   UNL     1      -0.988 -12.701  -9.290  0.00  0.00    -0.026 A 
ATOM     11  C   UNL     1      -1.751 -11.599 -10.020  0.00  0.00    +0.036 C 
ATOM     12  C   UNL     1      -2.796 -12.214 -10.943  0.00  0.00    +0.005 C 
ATOM     13  C   UNL     1      -2.206 -12.480 -12.326  0.00  0.00    +0.001 C 
ATOM     14  C   UNL     1      -1.072 -13.495 -12.226  0.00  0.00    +0.005 C 
ATOM     15  C   UNL     1      -1.392 -14.474 -11.098  0.00  0.00    +0.043 C 
ENDBRANCH   4   6
BRANCH   1  16
ATOM     16  S   UNL     1      -1.132  -8.641  -4.467  0.00  0.00    -0.077 S 
BRANCH  16  17
ATOM     17  C   UNL     1      -0.923  -6.907  -4.960  0.00  0.00    +0.173 C 
BRANCH  17  19
ATOM     18  N   UNL     1      -1.097  -4.675  -3.908  0.00  0.00    -0.285 N 
ATOM     19  C   UNL     1      -1.193  -6.013  -3.777  0.00  0.00    +0.227 C 
ATOM     20  O   UNL     1      -1.496  -6.497  -2.707  0.00  0.00    -0.275 OA
ATOM     21  H   UNL     1      -0.787  -4.290  -4.743  0.00  0.00    +0.155 HD
BRANCH  18  26
ATOM     22  C   UNL     1      -2.400  -1.796  -2.021  0.00  0.00    +0.035 A 
ATOM     23  C   UNL     1      -2.128  -2.194  -0.718  0.00  0.00    +0.023 A 
ATOM     24  C   UNL     1      -1.518  -3.410  -0.479  0.00  0.00    +0.004 A 
ATOM     25  C   UNL     1      -1.176  -4.234  -1.535  0.00  0.00    +0.023 A 
ATOM     26  C   UNL     1      -1.444  -3.841  -2.840  0.00  0.00    +0.035 A 
ATOM     27  C   UNL     1      -2.062  -2.622  -3.083  0.00  0.00    +0.046 A 
BRANCH  22  31
ATOM     28  C   UNL     1      -4.650   0.855  -3.464  0.00  0.00    +0.109 C 
ATOM     29  C   UNL     1      -3.903  -0.440  -3.271  0.00  0.00    +0.214 C 
ATOM     30  O   UNL     1      -4.098  -1.370  -4.025  0.00  0.00    -0.276 OA
ATOM     31  N   UNL     1      -3.019  -0.564  -2.262  0.00  0.00    -0.286 N 
ATOM     32  H   UNL     1      -2.811   0.201  -1.702  0.00  0.00    +0.155 HD
ENDBRANCH  22  31
ENDBRANCH  18  26
ENDBRANCH  17  19
ENDBRANCH  16  17
ENDBRANCH   1  16
BRANCH   5  33
ATOM     33  C   UNL     1      -1.129 -11.898  -5.047  0.00  0.00    +0.157 C 
BRANCH  33  34
ATOM     34  C   UNL     1      -2.645 -12.083  -4.966  0.00  0.00    +0.138 C 
ATOM     35  C   UNL     1      -2.995 -13.034  -3.801  0.00  0.00    +0.035 C 
ATOM     36  C   UNL     1      -4.154 -13.876  -4.400  0.00  0.00    +0.031 C 
ATOM     37  C   UNL     1      -3.721 -13.959  -5.886  0.00  0.00    +0.160 C 
ATOM     38  O   UNL     1      -3.127 -12.681  -6.175  0.00  0.00    -0.375 OA
ENDBRANCH  33  34
ENDBRANCH   5  33
TORSDOF 8
