REMARK  Name = ZINC13000667
REMARK  10 active torsions:
REMARK  status: ('A' for Active; 'I' for Inactive)
REMARK    1  A    between atoms: C_1  and  C_2
REMARK    2  A    between atoms: C_7  and  C_9
REMARK    3  A    between atoms: C_7  and  C_29
REMARK    4  A    between atoms: C_7  and  N_59
REMARK    5  A    between atoms: C_9  and  N_10
REMARK    6  A    between atoms: C_12  and  C_21
REMARK    7  A    between atoms: C_21  and  C_23
REMARK    8  A    between atoms: C_21  and  C_25
REMARK    9  A    between atoms: C_25  and  O_27
REMARK   10  A    between atoms: O_27  and  C_28
REMARK                            x       y       z     vdW  Elec       q    Type
REMARK                         _______ _______ _______ _____ _____    ______ ____
ROOT
ATOM      1  N   UNL     1      -0.989  -1.774  -2.087  0.00  0.00    -0.329 N 
ATOM      2  C   UNL     1      -1.771  -1.709  -0.943  0.00  0.00    +0.143 A 
ATOM      3  C   UNL     1      -1.240  -1.152   0.234  0.00  0.00    +0.109 A 
ATOM      4  N   UNL     1      -1.966  -1.076   1.323  0.00  0.00    -0.245 NA
ATOM      5  C   UNL     1      -3.223  -1.538   1.319  0.00  0.00    +0.090 A 
ATOM      6  C   UNL     1      -4.022  -1.468   2.473  0.00  0.00    +0.030 A 
ATOM      7  C   UNL     1      -5.297  -1.944   2.441  0.00  0.00    +0.002 A 
ATOM      8  C   UNL     1      -5.825  -2.502   1.279  0.00  0.00    +0.002 A 
ATOM      9  C   UNL     1      -5.080  -2.586   0.142  0.00  0.00    +0.030 A 
ATOM     10  C   UNL     1      -3.760  -2.104   0.137  0.00  0.00    +0.091 A 
ATOM     11  N   UNL     1      -3.005  -2.175  -0.966  0.00  0.00    -0.229 NA
ATOM     12  H   UNL     1      -0.058  -1.504  -2.054  0.00  0.00    +0.147 HD
ENDROOT
BRANCH   1  13
ATOM     13  C   UNL     1      -1.569  -2.253  -3.344  0.00  0.00    +0.093 C 
BRANCH  13  14
ATOM     14  C   UNL     1      -0.502  -2.226  -4.441  0.00  0.00    -0.013 C 
BRANCH  14  21
ATOM     15  C   UNL     1       3.779  -5.868  -3.400  0.00  0.00    +0.007 C 
ATOM     16  C   UNL     1       2.526  -5.210  -3.982  0.00  0.00    -0.018 C 
ATOM     17  C   UNL     1       2.894  -3.847  -4.577  0.00  0.00    -0.015 C 
ATOM     18  C   UNL     1       1.628  -3.167  -5.103  0.00  0.00    -0.078 C 
ATOM     19  C   UNL     1       0.264  -4.297  -3.448  0.00  0.00    -0.078 C 
ATOM     20  C   UNL     1       1.490  -5.011  -2.873  0.00  0.00    -0.015 C 
ATOM     21  N   UNL     1       0.681  -2.983  -3.982  0.00  0.00    +0.386 N 
ATOM     22  H   UNL     1       1.147  -2.453  -3.236  0.00  0.00    -0.081 HD
ENDBRANCH  14  21
BRANCH  14  23
ATOM     23  C   UNL     1      -1.062  -2.832  -5.702  0.00  0.00    -0.022 A 
ATOM     24  C   UNL     1      -1.423  -2.220  -6.856  0.00  0.00    +0.009 A 
ATOM     25  C   UNL     1      -1.915  -2.986  -7.896  0.00  0.00    +0.008 A 
ATOM     26  C   UNL     1      -2.034  -4.326  -7.726  0.00  0.00    +0.045 A 
ATOM     27  S   UNL     1      -1.431  -4.542  -6.059  0.00  0.00    -0.103 S 
ENDBRANCH  14  23
ENDBRANCH  13  14
ENDBRANCH   1  13
BRANCH   3  28
ATOM     28  C   UNL     1       0.174  -0.631   0.242  0.00  0.00    +0.251 C 
BRANCH  28  29
ATOM     29  C   UNL     1       0.920  -1.253   1.348  0.00  0.00    +0.084 C 
ATOM     30  N   UNL     1       1.495  -1.733   2.202  0.00  0.00    -0.195 NA
ENDBRANCH  28  29
BRANCH  28  31
ATOM     31  C   UNL     1       0.158   0.865   0.426  0.00  0.00    +0.330 C 
ATOM     32  O   UNL     1      -0.895   1.448   0.534  0.00  0.00    -0.249 OA
BRANCH  31  33
ATOM     33  O   UNL     1       1.312   1.549   0.464  0.00  0.00    -0.467 OA
ATOM     34  C   UNL     1       1.220   2.987   0.644  0.00  0.00    +0.280 C 
ENDBRANCH  31  33
ENDBRANCH  28  31
ENDBRANCH   3  28
TORSDOF 8
