REMARK  Name = ZINC36310007
REMARK  18 active torsions:
REMARK  status: ('A' for Active; 'I' for Inactive)
REMARK    1  A    between atoms: C_1  and  C_2
REMARK    2  A    between atoms: C_2  and  N_3
REMARK    3  A    between atoms: N_3  and  C_4
REMARK    4  A    between atoms: N_3  and  C_14
REMARK    5  A    between atoms: C_4  and  C_5
REMARK    6  A    between atoms: C_5  and  C_7
REMARK    7  A    between atoms: C_5  and  O_13
REMARK    8  A    between atoms: C_7  and  O_8
REMARK    9  A    between atoms: O_8  and  C_9
REMARK   10  A    between atoms: C_9  and  C_10
REMARK   11  A    between atoms: C_10  and  C_11
REMARK   12  A    between atoms: C_10  and  C_12
REMARK   13  A    between atoms: C_14  and  C_15
REMARK   14  A    between atoms: C_25  and  C_27
REMARK   15  A    between atoms: C_27  and  O_28
REMARK   16  A    between atoms: O_28  and  C_29
REMARK   17  A    between atoms: C_34  and  O_35
REMARK   18  A    between atoms: O_35  and  C_36
REMARK                            x       y       z     vdW  Elec       q    Type
REMARK                         _______ _______ _______ _____ _____    ______ ____
ROOT
ATOM      1  C   UNL     1      -0.052   1.493   2.253  0.00  0.00    +0.200 C 
ATOM      2  O   UNL     1       0.462   2.117   1.349  0.00  0.00    -0.278 OA
ATOM      3  N   UNL     1      -0.726   2.143   3.223  0.00  0.00    -0.292 N 
ATOM      4  C   UNL     1      -1.348   1.396   4.327  0.00  0.00    +0.113 C 
ATOM      5  C   UNL     1      -0.645   1.793   5.634  0.00  0.00    +0.061 C 
ATOM      6  C   UNL     1      -0.447   3.274   5.641  0.00  0.00    -0.004 A 
ATOM      7  C   UNL     1      -0.519   4.132   4.588  0.00  0.00    -0.014 A 
ATOM      8  C   UNL     1      -0.283   5.479   4.861  0.00  0.00    +0.013 A 
ATOM      9  C   UNL     1      -0.005   5.875   6.124  0.00  0.00    +0.046 A 
ATOM     10  S   UNL     1      -0.064   4.328   7.015  0.00  0.00    -0.101 S 
ATOM     11  C   UNL     1      -0.844   3.607   3.196  0.00  0.00    +0.144 C 
ENDROOT
BRANCH   1  12
ATOM     12  C   UNL     1       0.062  -0.009   2.292  0.00  0.00    +0.019 C 
BRANCH  12  13
ATOM     13  N   UNL     1       0.962  -0.460   1.222  0.00  0.00    +0.387 N 
ATOM     14  H   UNL     1       0.653  -0.077   0.340  0.00  0.00    -0.081 HD
BRANCH  13  16
ATOM     15  C   UNL     1      -0.449  -2.399   0.728  0.00  0.00    -0.017 C 
ATOM     16  C   UNL     1       0.943  -1.927   1.151  0.00  0.00    -0.081 C 
ENDBRANCH  13  16
BRANCH  13  17
ATOM     17  C   UNL     1       2.328  -0.000   1.504  0.00  0.00    -0.044 C 
BRANCH  17  18
ATOM     18  C   UNL     1       3.240  -0.361   0.330  0.00  0.00    +0.124 C 
BRANCH  18  19
ATOM     19  O   UNL     1       2.831   0.364  -0.832  0.00  0.00    -0.391 OA
ATOM     20  H   UNL     1       2.865   1.325  -0.728  0.00  0.00    +0.210 HD
ENDBRANCH  18  19
BRANCH  18  21
ATOM     21  C   UNL     1       4.685   0.005   0.676  0.00  0.00    +0.189 C 
BRANCH  21  22
ATOM     22  O   UNL     1       5.552  -0.437  -0.371  0.00  0.00    -0.377 OA
BRANCH  22  23
ATOM     23  C   UNL     1       6.932  -0.143  -0.145  0.00  0.00    +0.163 C 
BRANCH  23  24
ATOM     24  C   UNL     1       7.762  -0.659  -1.323  0.00  0.00    +0.009 C 
ATOM     25  C   UNL     1       9.221  -0.235  -1.142  0.00  0.00    +0.009 C 
ATOM     26  C   UNL     1       7.677  -2.185  -1.377  0.00  0.00    +0.009 C 
ENDBRANCH  23  24
ENDBRANCH  22  23
ENDBRANCH  21  22
ENDBRANCH  18  21
ENDBRANCH  17  18
ENDBRANCH  13  17
ENDBRANCH  12  13
ENDBRANCH   1  12
BRANCH  11  27
ATOM     27  C   UNL     1      -2.272   4.004   2.817  0.00  0.00    +0.256 C 
BRANCH  27  28
ATOM     28  O   UNL     1      -3.173   3.575   3.840  0.00  0.00    -0.486 OA
BRANCH  28  29
ATOM     29  C   UNL     1      -4.492   3.853   3.657  0.00  0.00    +0.162 A 
ATOM     30  C   UNL     1      -4.910   4.518   2.516  0.00  0.00    +0.049 A 
ATOM     31  C   UNL     1      -6.251   4.798   2.331  0.00  0.00    +0.004 A 
ATOM     32  C   UNL     1      -7.177   4.417   3.284  0.00  0.00    +0.004 A 
ATOM     33  C   UNL     1      -6.767   3.754   4.425  0.00  0.00    +0.049 A 
ATOM     34  C   UNL     1      -5.425   3.464   4.613  0.00  0.00    +0.161 A 
BRANCH  34  35
ATOM     35  O   UNL     1      -5.020   2.806   5.733  0.00  0.00    -0.491 OA
ATOM     36  C   UNL     1      -6.034   2.438   6.671  0.00  0.00    +0.277 C 
ENDBRANCH  34  35
ENDBRANCH  28  29
ENDBRANCH  27  28
ENDBRANCH  11  27
TORSDOF 14
