REMARK  Name = ZINC09439435
REMARK  12 active torsions:
REMARK  status: ('A' for Active; 'I' for Inactive)
REMARK    1  A    between atoms: C_1  and  C_2
REMARK    2  A    between atoms: C_2  and  C_3
REMARK    3  A    between atoms: C_2  and  C_4
REMARK    4  A    between atoms: C_4  and  N_5
REMARK    5  A    between atoms: N_5  and  C_6
REMARK    6  A    between atoms: C_14  and  C_16
REMARK    7  A    between atoms: C_16  and  O_17
REMARK    8  A    between atoms: O_17  and  C_18
REMARK    9  A    between atoms: C_18  and  C_20
REMARK   10  A    between atoms: N_29  and  C_31
REMARK   11  A    between atoms: C_31  and  C_32
REMARK   12  A    between atoms: C_31  and  C_33
REMARK                            x       y       z     vdW  Elec       q    Type
REMARK                         _______ _______ _______ _____ _____    ______ ____
ROOT
ATOM      1  O   UNL     1      -1.305   0.601   0.834  0.00  0.00    -0.451 OA
ENDROOT
BRANCH   1   2
ATOM      2  C   UNL     1      -0.990  -0.054   1.968  0.00  0.00    +0.360 C 
ATOM      3  O   UNL     1       0.049  -0.681   2.040  0.00  0.00    -0.243 OA
BRANCH   2   4
ATOM      4  C   UNL     1      -1.907  -0.011   3.123  0.00  0.00    +0.176 A 
ATOM      5  C   UNL     1      -1.574  -0.729   4.365  0.00  0.00    +0.021 A 
ATOM      6  C   UNL     1      -0.402  -1.460   4.522  0.00  0.00    +0.011 A 
ATOM      7  C   UNL     1      -0.158  -2.101   5.718  0.00  0.00    +0.001 A 
ATOM      8  C   UNL     1      -1.065  -2.018   6.766  0.00  0.00    +0.001 A 
ATOM      9  C   UNL     1      -2.231  -1.293   6.634  0.00  0.00    +0.014 A 
ATOM     10  C   UNL     1      -2.495  -0.639   5.435  0.00  0.00    +0.050 A 
ATOM     11  C   UNL     1      -3.711   0.153   5.208  0.00  0.00    +0.275 A 
ATOM     12  O   UNL     1      -4.550   0.270   6.083  0.00  0.00    -0.266 OA
ATOM     13  N   UNL     1      -3.877   0.749   4.010  0.00  0.00    -0.226 N 
ATOM     14  N   UNL     1      -3.030   0.662   3.055  0.00  0.00    -0.161 NA
BRANCH  13  15
ATOM     15  C   UNL     1      -5.091   1.538   3.789  0.00  0.00    +0.105 C 
ATOM     16  C   UNL     1      -4.708   2.985   3.469  0.00  0.00    +0.032 C 
ATOM     17  C   UNL     1      -5.878   0.948   2.618  0.00  0.00    +0.032 C 
ENDBRANCH  13  15
ENDBRANCH   2   4
ENDBRANCH   1   2
BRANCH   1  18
ATOM     18  C   UNL     1      -0.357   0.514  -0.262  0.00  0.00    +0.328 C 
BRANCH  18  20
ATOM     19  N   UNL     1      -0.155   1.366  -2.576  0.00  0.00    -0.294 N 
ATOM     20  C   UNL     1      -0.874   1.303  -1.438  0.00  0.00    +0.254 C 
ATOM     21  O   UNL     1      -1.937   1.881  -1.359  0.00  0.00    -0.272 OA
BRANCH  19  22
ATOM     22  C   UNL     1      -0.658   2.133  -3.719  0.00  0.00    +0.099 C 
ATOM     23  C   UNL     1      -2.072   1.646  -4.078  0.00  0.00    +0.046 C 
ATOM     24  C   UNL     1      -2.699   2.667  -5.069  0.00  0.00    +0.168 C 
ATOM     25  S   UNL     1      -2.130   4.253  -4.324  0.00  0.00    -0.029 S 
ATOM     26  O   UNL     1      -3.126   4.726  -3.428  0.00  0.00    -0.174 OA
ATOM     27  O   UNL     1      -1.656   5.106  -5.357  0.00  0.00    -0.174 OA
ATOM     28  C   UNL     1      -0.695   3.636  -3.353  0.00  0.00    +0.188 C 
ENDBRANCH  19  22
BRANCH  19  29
ATOM     29  C   UNL     1       1.130   0.668  -2.671  0.00  0.00    +0.111 C 
BRANCH  29  31
ATOM     30  C   UNL     1       0.319  -0.856  -4.477  0.00  0.00    +0.009 C 
ATOM     31  C   UNL     1       0.889  -0.792  -3.058  0.00  0.00    +0.000 C 
ATOM     32  C   UNL     1       2.212  -1.558  -3.006  0.00  0.00    +0.009 C 
ENDBRANCH  29  31
ENDBRANCH  19  29
ENDBRANCH  18  20
ENDBRANCH   1  18
TORSDOF 8
