REMARK  Name = ZINC11910314
REMARK  12 active torsions:
REMARK  status: ('A' for Active; 'I' for Inactive)
REMARK    1  A    between atoms: C_1  and  C_2
REMARK    2  A    between atoms: C_3  and  C_4
REMARK    3  A    between atoms: C_4  and  N_5
REMARK    4  A    between atoms: C_8  and  C_12
REMARK    5  A    between atoms: C_8  and  C_20
REMARK    6  A    between atoms: C_12  and  C_13
REMARK    7  A    between atoms: C_13  and  C_14
REMARK    8  A    between atoms: C_25  and  C_26
REMARK    9  A    between atoms: C_25  and  N_72
REMARK   10  A    between atoms: C_26  and  C_27
REMARK   11  A    between atoms: C_27  and  C_29
REMARK   12  A    between atoms: C_27  and  C_30
REMARK                            x       y       z     vdW  Elec       q    Type
REMARK                         _______ _______ _______ _____ _____    ______ ____
ROOT
ATOM      1  N   UNL     1       0.818   6.705  -1.100  0.00  0.00    -0.212 N 
ATOM      2  C   UNL     1      -0.156   5.981  -0.506  0.00  0.00    +0.248 C 
ATOM      3  O   UNL     1      -1.232   5.673  -0.973  0.00  0.00    -0.273 OA
ATOM      4  C   UNL     1       0.379   5.633   0.869  0.00  0.00    +0.115 C 
ATOM      5  N   UNL     1       1.712   6.259   0.895  0.00  0.00    -0.285 N 
ATOM      6  C   UNL     1       1.877   6.860  -0.297  0.00  0.00    +0.310 C 
ATOM      7  O   UNL     1       2.878   7.475  -0.611  0.00  0.00    -0.252 OA
ATOM      8  H   UNL     1       2.346   6.242   1.628  0.00  0.00    +0.151 HD
ENDROOT
BRANCH   4   9
ATOM      9  C   UNL     1       0.493   4.116   1.034  0.00  0.00    +0.018 C 
ATOM     10  C   UNL     1       1.287   3.533  -0.138  0.00  0.00    -0.013 C 
ATOM     11  C   UNL     1       1.346   2.010   0.000  0.00  0.00    -0.078 C 
ATOM     12  C   UNL     1      -0.785   1.974   1.154  0.00  0.00    -0.078 C 
ATOM     13  C   UNL     1      -0.907   3.496   1.050  0.00  0.00    -0.013 C 
ATOM     14  N   UNL     1      -0.032   1.473  -0.015  0.00  0.00    +0.380 N 
ATOM     15  H   UNL     1      -0.501   1.786  -0.873  0.00  0.00    -0.082 HD
BRANCH  14  16
ATOM     16  C   UNL     1       0.002  -0.004   0.002  0.00  0.00    -0.078 C 
BRANCH  16  17
ATOM     17  C   UNL     1      -1.409  -0.535   0.263  0.00  0.00    -0.011 C 
BRANCH  17  18
ATOM     18  C   UNL     1      -1.388  -2.064   0.255  0.00  0.00    +0.014 C 
ATOM     19  C   UNL     1      -0.543  -2.570   1.426  0.00  0.00    +0.012 C 
BRANCH  18  20
ATOM     20  C   UNL     1      -2.796  -2.587   0.389  0.00  0.00    -0.045 A 
ATOM     21  C   UNL     1      -3.545  -2.274   1.508  0.00  0.00    +0.004 A 
ATOM     22  C   UNL     1      -4.837  -2.749   1.629  0.00  0.00    +0.000 A 
ATOM     23  C   UNL     1      -5.377  -3.545   0.636  0.00  0.00    +0.000 A 
ATOM     24  C   UNL     1      -4.626  -3.862  -0.480  0.00  0.00    +0.000 A 
ATOM     25  C   UNL     1      -3.335  -3.383  -0.603  0.00  0.00    +0.004 A 
ENDBRANCH  18  20
ENDBRANCH  17  18
ENDBRANCH  16  17
ENDBRANCH  14  16
ENDBRANCH   4   9
BRANCH   1  26
ATOM     26  C   UNL     1       0.725   7.253  -2.455  0.00  0.00    +0.206 C 
BRANCH  26  29
ATOM     27  C   UNL     1       2.195   4.507  -5.149  0.00  0.00    +0.106 C 
ATOM     28  C   UNL     1       1.669   5.488  -4.186  0.00  0.00    -0.104 C 
ATOM     29  C   UNL     1       1.250   6.271  -3.418  0.00  0.00    -0.083 C 
ENDBRANCH  26  29
ENDBRANCH   1  26
BRANCH   4  30
ATOM     30  C   UNL     1      -0.515   6.226   1.961  0.00  0.00    +0.040 C 
BRANCH  30  31
ATOM     31  C   UNL     1      -0.613   7.741   1.773  0.00  0.00    +0.038 C 
BRANCH  31  32
ATOM     32  C   UNL     1      -1.493   8.324   2.848  0.00  0.00    -0.047 A 
ATOM     33  C   UNL     1      -2.853   8.449   2.636  0.00  0.00    +0.003 A 
ATOM     34  C   UNL     1      -3.661   8.980   3.624  0.00  0.00    +0.000 A 
ATOM     35  C   UNL     1      -3.107   9.396   4.820  0.00  0.00    +0.000 A 
ATOM     36  C   UNL     1      -1.747   9.276   5.031  0.00  0.00    +0.000 A 
ATOM     37  C   UNL     1      -0.939   8.741   4.045  0.00  0.00    +0.003 A 
ENDBRANCH  31  32
ENDBRANCH  30  31
ENDBRANCH   4  30
TORSDOF 10
