REMARK  Name = ZINC22758281
REMARK  8 active torsions:
REMARK  status: ('A' for Active; 'I' for Inactive)
REMARK    1  A    between atoms: C_1  and  N_2
REMARK    2  A    between atoms: C_3  and  C_21
REMARK    3  A    between atoms: N_5  and  C_8
REMARK    4  A    between atoms: C_8  and  N_9
REMARK    5  A    between atoms: N_9  and  C_10
REMARK    6  A    between atoms: N_9  and  C_11
REMARK    7  A    between atoms: C_21  and  O_22
REMARK    8  A    between atoms: O_22  and  C_23
REMARK                            x       y       z     vdW  Elec       q    Type
REMARK                         _______ _______ _______ _____ _____    ______ ____
ROOT
ATOM      1  C   UNL     1       3.006  -3.785  -2.000  0.00  0.00    +0.152 C 
ATOM      2  N   UNL     1       2.837  -4.439  -0.700  0.00  0.00    -0.307 N 
ATOM      3  C   UNL     1       3.011  -3.846   0.527  0.00  0.00    +0.170 A 
ATOM      4  N   UNL     1       2.782  -4.723   1.451  0.00  0.00    -0.154 NA
ATOM      5  N   UNL     1       2.437  -5.932   0.830  0.00  0.00    -0.257 N 
ATOM      6  C   UNL     1       2.483  -5.725  -0.503  0.00  0.00    +0.176 A 
ATOM      7  S   UNL     1       2.153  -6.883  -1.720  0.00  0.00    -0.011 S 
ENDROOT
BRANCH   5   8
ATOM      8  C   UNL     1       2.096  -7.188   1.502  0.00  0.00    +0.072 C 
BRANCH   8   9
ATOM      9  N   UNL     1       3.317  -7.976   1.716  0.00  0.00    +0.395 N 
ATOM     10  C   UNL     1       3.893  -8.411   0.437  0.00  0.00    -0.093 C 
ATOM     11  H   UNL     1       4.053  -7.330   2.217  0.00  0.00    -0.079 HD
BRANCH   9  12
ATOM     12  C   UNL     1       3.054  -9.125   2.593  0.00  0.00    -0.035 C 
ATOM     13  C   UNL     1       2.735  -8.645   4.024  0.00  0.00    -0.006 C 
ATOM     14  C   UNL     1       4.125  -8.676   4.699  0.00  0.00    +0.034 C 
ATOM     15  C   UNL     1       4.913  -9.720   3.938  0.00  0.00    -0.046 A 
ATOM     16  C   UNL     1       4.297  -9.978   2.727  0.00  0.00    -0.058 A 
ATOM     17  C   UNL     1       4.847 -10.906   1.858  0.00  0.00    +0.002 A 
ATOM     18  C   UNL     1       6.007 -11.575   2.198  0.00  0.00    +0.000 A 
ATOM     19  C   UNL     1       6.622 -11.317   3.409  0.00  0.00    +0.000 A 
ATOM     20  C   UNL     1       6.076 -10.391   4.276  0.00  0.00    +0.004 A 
ENDBRANCH   9  12
ENDBRANCH   8   9
ENDBRANCH   5   8
BRANCH   3  21
ATOM     21  C   UNL     1       3.409  -2.412   0.759  0.00  0.00    +0.305 C 
BRANCH  21  22
ATOM     22  O   UNL     1       2.236  -1.599   0.843  0.00  0.00    -0.483 OA
BRANCH  22  23
ATOM     23  C   UNL     1       2.421  -0.269   1.052  0.00  0.00    +0.139 A 
ATOM     24  C   UNL     1       3.704   0.244   1.174  0.00  0.00    +0.047 A 
ATOM     25  C   UNL     1       3.889   1.596   1.387  0.00  0.00    +0.004 A 
ATOM     26  C   UNL     1       2.797   2.439   1.478  0.00  0.00    +0.002 A 
ATOM     27  C   UNL     1       1.517   1.931   1.357  0.00  0.00    +0.023 A 
ATOM     28  C   UNL     1       1.326   0.579   1.144  0.00  0.00    +0.083 A 
ATOM     29 CL   UNL     1      -0.282  -0.059   0.991  0.00  0.00    -0.080 Cl
ENDBRANCH  22  23
ENDBRANCH  21  22
ENDBRANCH   3  21
TORSDOF 6
