REMARK  Name = ZINC40986263
REMARK  11 active torsions:
REMARK  status: ('A' for Active; 'I' for Inactive)
REMARK    1  A    between atoms: C_1  and  C_2
REMARK    2  A    between atoms: C_2  and  C_3
REMARK    3  A    between atoms: C_3  and  C_4
REMARK    4  A    between atoms: C_4  and  S_5
REMARK    5  A    between atoms: S_5  and  C_8
REMARK    6  A    between atoms: C_11  and  C_15
REMARK    7  A    between atoms: N_17  and  C_18
REMARK    8  A    between atoms: C_18  and  C_19
REMARK    9  A    between atoms: C_19  and  C_21
REMARK   10  A    between atoms: C_19  and  N_28
REMARK   11  A    between atoms: C_24  and  C_27
REMARK                            x       y       z     vdW  Elec       q    Type
REMARK                         _______ _______ _______ _____ _____    ______ ____
ROOT
ATOM      1  C   UNL     1      -0.022 -10.828  -1.455  0.00  0.00    +0.248 C 
ATOM      2  O   UNL     1      -0.131 -10.127  -2.442  0.00  0.00    -0.270 OA
ATOM      3  N   UNL     1       1.200 -11.137  -0.979  0.00  0.00    -0.312 N 
ATOM      4  H   UNL     1       1.287 -11.696  -0.191  0.00  0.00    +0.149 HD
ENDROOT
BRANCH   1   8
ATOM      5  C   UNL     1      -3.422 -12.269   0.455  0.00  0.00    +0.272 A 
ATOM      6  N   UNL     1      -2.236 -12.584   0.938  0.00  0.00    -0.219 NA
ATOM      7  C   UNL     1      -1.129 -12.148   0.362  0.00  0.00    +0.130 A 
ATOM      8  C   UNL     1      -1.231 -11.340  -0.776  0.00  0.00    +0.092 A 
ATOM      9  C   UNL     1      -2.511 -11.031  -1.253  0.00  0.00    +0.146 A 
ATOM     10  N   UNL     1      -3.565 -11.515  -0.617  0.00  0.00    -0.199 NA
ATOM     11 CL   UNL     1      -2.712 -10.034  -2.660  0.00  0.00    -0.061 Cl
BRANCH   5  12
ATOM     12  S   UNL     1      -4.862 -12.880   1.266  0.00  0.00    +0.032 S 
ATOM     13  O   UNL     1      -5.883 -11.945   0.948  0.00  0.00    -0.166 OA
ATOM     14  O   UNL     1      -4.460 -13.084   2.614  0.00  0.00    -0.166 OA
BRANCH  12  15
ATOM     15  C   UNL     1      -5.204 -14.474   0.469  0.00  0.00    +0.175 C 
BRANCH  15  16
ATOM     16  C   UNL     1      -6.448 -15.103   1.100  0.00  0.00    +0.023 C 
BRANCH  16  18
ATOM     17  C   UNL     1      -7.980 -17.076   1.059  0.00  0.00    +0.004 C 
ATOM     18  C   UNL     1      -6.736 -16.447   0.428  0.00  0.00    -0.002 C 
ENDBRANCH  16  18
ENDBRANCH  15  16
ENDBRANCH  12  15
ENDBRANCH   5  12
ENDBRANCH   1   8
BRANCH   3  19
ATOM     19  C   UNL     1       2.398 -10.629  -1.652  0.00  0.00    +0.094 C 
BRANCH  19  20
ATOM     20  C   UNL     1       3.640 -11.023  -0.850  0.00  0.00    -0.020 C 
BRANCH  20  21
ATOM     21  N   UNL     1       4.828 -10.404  -1.451  0.00  0.00    +0.385 N 
ATOM     22  C   UNL     1       4.758  -8.968  -1.308  0.00  0.00    -0.078 C 
ATOM     23  C   UNL     1       5.333  -8.256  -2.545  0.00  0.00    -0.019 C 
ATOM     24  C   UNL     1       6.614  -8.928  -3.077  0.00  0.00    -0.002 C 
ATOM     25  C   UNL     1       7.564  -9.346  -1.986  0.00  0.00    -0.002 C 
ATOM     26  C   UNL     1       7.249 -10.802  -1.566  0.00  0.00    -0.019 C 
ATOM     27  C   UNL     1       6.040 -10.865  -0.751  0.00  0.00    -0.078 C 
ATOM     28  H   UNL     1       4.884 -10.649  -2.429  0.00  0.00    -0.081 HD
ENDBRANCH  20  21
BRANCH  20  29
ATOM     29  C   UNL     1       3.792 -12.522  -0.864  0.00  0.00    -0.059 A 
ATOM     30  C   UNL     1       4.351 -13.150  -1.962  0.00  0.00    +0.002 A 
ATOM     31  C   UNL     1       4.491 -14.525  -1.975  0.00  0.00    +0.003 A 
ATOM     32  C   UNL     1       4.072 -15.273  -0.890  0.00  0.00    -0.050 A 
ATOM     33  C   UNL     1       3.514 -14.645   0.207  0.00  0.00    +0.003 A 
ATOM     34  C   UNL     1       3.378 -13.270   0.223  0.00  0.00    +0.002 A 
ATOM     35  C   UNL     1       4.223 -16.772  -0.905  0.00  0.00    +0.044 C 
ENDBRANCH  20  29
ENDBRANCH  19  20
ENDBRANCH   3  19
TORSDOF 9
