REMARK  Name = ZINC31854656
REMARK  8 active torsions:
REMARK  status: ('A' for Active; 'I' for Inactive)
REMARK    1  A    between atoms: C_1  and  C_2
REMARK    2  A    between atoms: C_2  and  O_3
REMARK    3  A    between atoms: O_3  and  C_4
REMARK    4  A    between atoms: C_9  and  C_10
REMARK    5  A    between atoms: N_11  and  N_12
REMARK    6  A    between atoms: C_13  and  C_15
REMARK    7  A    between atoms: C_15  and  N_16
REMARK    8  A    between atoms: C_27  and  C_31
REMARK                            x       y       z     vdW  Elec       q    Type
REMARK                         _______ _______ _______ _____ _____    ______ ____
ROOT
ATOM      1  C   UNL     1       0.252   2.255   0.948  0.00  0.00    +0.223 C 
ENDROOT
BRANCH   1   2
ATOM      2  N   UNL     1       0.570   3.674   0.767  0.00  0.00    -0.290 N 
ATOM      3  C   UNL     1      -0.070   4.601   1.526  0.00  0.00    +0.203 A 
ATOM      4  N   UNL     1       0.190   5.875   1.399  0.00  0.00    -0.230 NA
ATOM      5  C   UNL     1       1.083   6.305   0.512  0.00  0.00    +0.116 A 
ATOM      6  C   UNL     1       1.789   5.423  -0.321  0.00  0.00    +0.076 A 
ATOM      7  C   UNL     1       1.486   4.033  -0.152  0.00  0.00    +0.263 A 
ATOM      8  O   UNL     1       2.047   3.189  -0.829  0.00  0.00    -0.267 OA
ATOM      9  C   UNL     1       2.738   6.039  -1.247  0.00  0.00    -0.023 A 
ATOM     10  C   UNL     1       2.843   7.385  -1.211  0.00  0.00    -0.004 A 
ATOM     11  S   UNL     1       1.699   7.901   0.040  0.00  0.00    -0.073 S 
ATOM     12  C   UNL     1       3.735   8.248  -2.050  0.00  0.00    +0.046 C 
ATOM     13  C   UNL     1       4.793   7.353  -2.711  0.00  0.00    -0.009 C 
ATOM     14  C   UNL     1       4.094   6.138  -3.327  0.00  0.00    +0.008 C 
ATOM     15  C   UNL     1       3.581   5.217  -2.219  0.00  0.00    +0.037 C 
ATOM     16  C   UNL     1       5.520   8.136  -3.807  0.00  0.00    +0.008 C 
ENDBRANCH   1   2
BRANCH   1  18
ATOM     17  N   UNL     1       1.145   0.338   2.231  0.00  0.00    -0.206 N 
ATOM     18  C   UNL     1       1.166   1.664   1.989  0.00  0.00    +0.252 C 
ATOM     19  O   UNL     1       1.922   2.382   2.611  0.00  0.00    -0.272 OA
ATOM     20  H   UNL     1       0.514  -0.322   1.617  0.00  0.00    +0.177 HD
BRANCH  17  22
ATOM     21  C   UNL     1       2.012  -1.485   3.409  0.00  0.00    +0.142 C 
ATOM     22  N   UNL     1       1.926  -0.199   3.262  0.00  0.00    -0.188 NA
BRANCH  21  28
ATOM     23  C   UNL     1       1.429  -3.724   2.480  0.00  0.00    +0.129 A 
ATOM     24  C   UNL     1       1.178  -4.552   1.398  0.00  0.00    +0.046 A 
ATOM     25  C   UNL     1       1.245  -4.051   0.112  0.00  0.00    +0.004 A 
ATOM     26  C   UNL     1       1.565  -2.721  -0.106  0.00  0.00    +0.001 A 
ATOM     27  C   UNL     1       1.818  -1.883   0.960  0.00  0.00    +0.013 A 
ATOM     28  C   UNL     1       1.748  -2.376   2.265  0.00  0.00    +0.036 A 
BRANCH  23  29
ATOM     29  O   UNL     1       1.362  -4.215   3.745  0.00  0.00    -0.492 OA
BRANCH  29  31
ATOM     30  C   UNL     1       1.227  -6.006   5.362  0.00  0.00    +0.048 C 
ATOM     31  C   UNL     1       1.142  -5.620   3.884  0.00  0.00    +0.226 C 
ENDBRANCH  29  31
ENDBRANCH  23  29
ENDBRANCH  21  28
ENDBRANCH  17  22
ENDBRANCH   1  18
TORSDOF 6
