REMARK  Name = ZINC09104517
REMARK  10 active torsions:
REMARK  status: ('A' for Active; 'I' for Inactive)
REMARK    1  A    between atoms: C_1  and  C_2
REMARK    2  A    between atoms: C_2  and  C_3
REMARK    3  A    between atoms: C_2  and  C_4
REMARK    4  A    between atoms: C_7  and  S_10
REMARK    5  A    between atoms: S_10  and  C_13
REMARK    6  A    between atoms: C_13  and  C_15
REMARK    7  A    between atoms: C_13  and  C_31
REMARK    8  A    between atoms: C_15  and  N_16
REMARK    9  A    between atoms: N_16  and  S_17
REMARK   10  A    between atoms: S_17  and  C_20
REMARK                            x       y       z     vdW  Elec       q    Type
REMARK                         _______ _______ _______ _____ _____    ______ ____
ROOT
ATOM      1  C   UNL     1      -0.022   1.810   0.012  0.00  0.00    +0.188 C 
ENDROOT
BRANCH   1   2
ATOM      2  C   UNL     1      -0.751   2.309  -1.209  0.00  0.00    +0.015 A 
ATOM      3  C   UNL     1      -1.867   3.075  -1.283  0.00  0.00    +0.013 A 
ATOM      4  C   UNL     1      -2.364   3.416  -2.527  0.00  0.00    +0.008 A 
ATOM      5  C   UNL     1      -1.722   2.974  -3.636  0.00  0.00    +0.045 A 
ATOM      6  S   UNL     1      -0.365   2.051  -2.933  0.00  0.00    -0.100 S 
ENDBRANCH   1   2
BRANCH   1   7
ATOM      7  S   UNL     1       0.002  -0.004   0.002  0.00  0.00    +0.006 S 
ATOM      8  O   UNL     1       0.608  -0.479  -1.192  0.00  0.00    -0.169 OA
ATOM      9  O   UNL     1       0.417  -0.495   1.270  0.00  0.00    -0.169 OA
BRANCH   7  13
ATOM     10  C   UNL     1      -4.343  -1.225  -0.344  0.00  0.00    -0.045 A 
ATOM     11  C   UNL     1      -3.587  -1.030  -1.485  0.00  0.00    +0.006 A 
ATOM     12  C   UNL     1      -2.260  -0.658  -1.379  0.00  0.00    +0.027 A 
ATOM     13  C   UNL     1      -1.689  -0.479  -0.133  0.00  0.00    +0.089 A 
ATOM     14  C   UNL     1      -2.444  -0.679   1.008  0.00  0.00    +0.027 A 
ATOM     15  C   UNL     1      -3.772  -1.047   0.902  0.00  0.00    +0.006 A 
BRANCH  10  17
ATOM     16  C   UNL     1      -6.000  -2.976   0.238  0.00  0.00    +0.012 C 
ATOM     17  C   UNL     1      -5.790  -1.630  -0.460  0.00  0.00    +0.013 C 
ATOM     18  C   UNL     1      -6.671  -0.569   0.203  0.00  0.00    +0.012 C 
ENDBRANCH  10  17
ENDBRANCH   7  13
ENDBRANCH   1   7
BRANCH   1  19
ATOM     19  C   UNL     1       1.413   2.339   0.001  0.00  0.00    +0.137 C 
BRANCH  19  20
ATOM     20  N   UNL     1       2.121   1.854   1.188  0.00  0.00    -0.188 NA
ATOM     21  H   UNL     1       1.623   1.476   1.930  0.00  0.00    +0.148 HD
BRANCH  20  22
ATOM     22  S   UNL     1       3.773   1.950   1.263  0.00  0.00    +0.059 S 
ATOM     23  O   UNL     1       4.152   1.432   2.531  0.00  0.00    -0.153 OA
ATOM     24  O   UNL     1       4.267   1.415   0.043  0.00  0.00    -0.153 OA
BRANCH  22  25
ATOM     25  C   UNL     1       4.196   3.660   1.272  0.00  0.00    +0.109 A 
ATOM     26  C   UNL     1       4.306   4.337   2.474  0.00  0.00    +0.031 A 
ATOM     27  C   UNL     1       4.637   5.678   2.489  0.00  0.00    +0.031 A 
ATOM     28  C   UNL     1       4.860   6.346   1.295  0.00  0.00    +0.087 A 
ATOM     29  C   UNL     1       4.749   5.665   0.083  0.00  0.00    +0.159 A 
ATOM     30  C   UNL     1       4.421   4.319   0.078  0.00  0.00    +0.077 A 
ATOM     31  O   UNL     1       5.016   6.555  -0.904  0.00  0.00    -0.408 OA
ATOM     32  C   UNL     1       5.287   7.751  -0.359  0.00  0.00    +0.419 A 
ATOM     33  O   UNL     1       5.566   8.759  -0.979  0.00  0.00    -0.223 OA
ATOM     34  N   UNL     1       5.200   7.662   0.983  0.00  0.00    -0.288 N 
ATOM     35  H   UNL     1       5.348   8.382   1.617  0.00  0.00    +0.172 HD
ENDBRANCH  22  25
ENDBRANCH  20  22
ENDBRANCH  19  20
ENDBRANCH   1  19
TORSDOF 8
