REMARK  Name = ZINC23555586
REMARK  10 active torsions:
REMARK  status: ('A' for Active; 'I' for Inactive)
REMARK    1  A    between atoms: C_1  and  C_2
REMARK    2  A    between atoms: C_7  and  N_8
REMARK    3  A    between atoms: C_11  and  C_16
REMARK    4  A    between atoms: C_16  and  S_17
REMARK    5  A    between atoms: S_17  and  C_18
REMARK    6  A    between atoms: C_21  and  S_23
REMARK    7  A    between atoms: S_23  and  C_24
REMARK    8  A    between atoms: C_24  and  C_25
REMARK    9  A    between atoms: C_28  and  O_31
REMARK   10  A    between atoms: O_31  and  C_32
REMARK                            x       y       z     vdW  Elec       q    Type
REMARK                         _______ _______ _______ _____ _____    ______ ____
ROOT
ATOM      1  N   UNL     1       0.302  11.150  -2.289  0.00  0.00    -0.283 N 
ATOM      2  C   UNL     1       0.157  10.473  -1.093  0.00  0.00    +0.224 A 
ATOM      3  N   UNL     1      -0.153   9.179  -1.094  0.00  0.00    -0.198 NA
ATOM      4  C   UNL     1      -0.291   8.530   0.049  0.00  0.00    +0.146 A 
ATOM      5  N   UNL     1      -0.127   9.165   1.197  0.00  0.00    -0.199 NA
ATOM      6  C   UNL     1       0.189  10.458   1.205  0.00  0.00    +0.217 A 
ATOM      7  N   UNL     1       0.328  11.113   0.058  0.00  0.00    -0.181 NA
ATOM      8  N   UNL     1       0.365  11.118   2.404  0.00  0.00    -0.327 N 
ATOM      9  H   UNL     1       0.257  10.601  -3.241  0.00  0.00    +0.155 HD
ATOM     10  H   UNL     1       0.626  12.187   2.410  0.00  0.00    +0.145 HD
ATOM     11  H   UNL     1       0.245  10.576   3.354  0.00  0.00    +0.145 HD
ENDROOT
BRANCH   1  18
ATOM     12  C   UNL     1       1.612  12.315  -4.530  0.00  0.00    +0.045 C 
ATOM     13  C   UNL     1       1.142  13.143  -3.362  0.00  0.00    -0.029 A 
ATOM     14  C   UNL     1       1.342  14.510  -3.359  0.00  0.00    +0.005 A 
ATOM     15  C   UNL     1       0.910  15.271  -2.288  0.00  0.00    +0.000 A 
ATOM     16  C   UNL     1       0.277  14.667  -1.218  0.00  0.00    +0.002 A 
ATOM     17  C   UNL     1       0.068  13.302  -1.217  0.00  0.00    +0.023 A 
ATOM     18  C   UNL     1       0.506  12.534  -2.289  0.00  0.00    +0.036 A 
ENDBRANCH   1  18
BRANCH   4  19
ATOM     19  C   UNL     1      -0.642   7.065   0.044  0.00  0.00    +0.152 C 
BRANCH  19  20
ATOM     20  S   UNL     1       0.880   6.078   0.017  0.00  0.00    -0.089 S 
BRANCH  20  21
ATOM     21  C   UNL     1       0.307   4.412   0.013  0.00  0.00    +0.160 A 
ATOM     22  N   UNL     1      -0.929   3.953   0.028  0.00  0.00    -0.134 NA
ATOM     23  N   UNL     1      -1.156   2.596   0.017  0.00  0.00    -0.134 NA
ATOM     24  C   UNL     1      -0.135   1.760   0.002  0.00  0.00    +0.160 A 
ATOM     25  S   UNL     1       1.246   2.893  -0.010  0.00  0.00    -0.033 S 
BRANCH  24  26
ATOM     26  S   UNL     1      -0.134  -0.002  -0.009  0.00  0.00    -0.092 S 
BRANCH  26  27
ATOM     27  C   UNL     1      -1.894  -0.442   0.013  0.00  0.00    +0.111 C 
BRANCH  27  28
ATOM     28  C   UNL     1      -2.037  -1.942   0.005  0.00  0.00    -0.037 A 
ATOM     29  C   UNL     1      -2.126  -2.620  -1.197  0.00  0.00    +0.008 A 
ATOM     30  C   UNL     1      -2.251  -3.996  -1.207  0.00  0.00    +0.046 A 
ATOM     31  C   UNL     1      -2.300  -4.696  -0.010  0.00  0.00    +0.120 A 
ATOM     32  C   UNL     1      -2.217  -4.012   1.194  0.00  0.00    +0.046 A 
ATOM     33  C   UNL     1      -2.086  -2.637   1.199  0.00  0.00    +0.008 A 
BRANCH  31  34
ATOM     34  O   UNL     1      -2.429  -6.048  -0.017  0.00  0.00    -0.495 OA
ATOM     35  C   UNL     1      -2.509  -6.686  -1.294  0.00  0.00    +0.277 C 
ENDBRANCH  31  34
ENDBRANCH  27  28
ENDBRANCH  26  27
ENDBRANCH  24  26
ENDBRANCH  20  21
ENDBRANCH  19  20
ENDBRANCH   4  19
TORSDOF 8
