REMARK  Name = ZINC40316725
REMARK  8 active torsions:
REMARK  status: ('A' for Active; 'I' for Inactive)
REMARK    1  A    between atoms: C_1  and  C_2
REMARK    2  A    between atoms: C_5  and  C_9
REMARK    3  A    between atoms: C_6  and  C_8
REMARK    4  A    between atoms: C_9  and  N_10
REMARK    5  A    between atoms: N_10  and  C_11
REMARK    6  A    between atoms: C_12  and  C_14
REMARK    7  A    between atoms: C_17  and  N_21
REMARK    8  A    between atoms: C_19  and  N_20
REMARK                            x       y       z     vdW  Elec       q    Type
REMARK                         _______ _______ _______ _____ _____    ______ ____
ROOT
ATOM      1  N   UNL     1      -0.930  -5.322   0.194  0.00  0.00    -0.296 N 
ATOM      2  C   UNL     1      -1.563  -5.918  -0.985  0.00  0.00    +0.132 C 
ATOM      3  C   UNL     1      -1.577  -5.316   1.376  0.00  0.00    +0.248 C 
ATOM      4  O   UNL     1      -1.095  -4.738   2.331  0.00  0.00    -0.270 OA
ENDROOT
BRANCH   3   5
ATOM      5  C   UNL     1      -2.868  -6.009   1.511  0.00  0.00    +0.058 A 
ATOM      6  C   UNL     1      -3.033  -7.295   0.986  0.00  0.00    +0.017 A 
ATOM      7  C   UNL     1      -4.230  -7.938   1.112  0.00  0.00    +0.023 A 
ATOM      8  C   UNL     1      -5.298  -7.321   1.763  0.00  0.00    +0.026 A 
ATOM      9  C   UNL     1      -5.152  -6.045   2.290  0.00  0.00    +0.046 A 
ATOM     10  C   UNL     1      -3.939  -5.384   2.174  0.00  0.00    +0.039 A 
BRANCH  10  11
ATOM     11  N   UNL     1      -3.784  -4.109   2.703  0.00  0.00    -0.357 N 
ATOM     12  H   UNL     1      -2.981  -3.599   2.514  0.00  0.00    +0.142 HD
ATOM     13  H   UNL     1      -4.479  -3.728   3.263  0.00  0.00    +0.142 HD
ENDBRANCH  10  11
BRANCH   8  14
ATOM     14  N   UNL     1      -6.513  -7.985   1.884  0.00  0.00    -0.358 N 
ATOM     15  H   UNL     1      -6.617  -8.877   1.516  0.00  0.00    +0.142 HD
ATOM     16  H   UNL     1      -7.257  -7.558   2.337  0.00  0.00    +0.142 HD
ENDBRANCH   8  14
ENDBRANCH   3   5
BRANCH   1  17
ATOM     17  C   UNL     1       0.407  -4.732   0.088  0.00  0.00    +0.143 C 
BRANCH  17  22
ATOM     18  C   UNL     1      -0.063   0.901  -1.112  0.00  0.00    +0.044 C 
ATOM     19  C   UNL     1       0.060  -0.568  -0.799  0.00  0.00    -0.050 A 
ATOM     20  C   UNL     1      -1.073  -1.359  -0.739  0.00  0.00    +0.004 A 
ATOM     21  C   UNL     1      -0.961  -2.706  -0.453  0.00  0.00    +0.006 A 
ATOM     22  C   UNL     1       0.284  -3.263  -0.226  0.00  0.00    -0.027 A 
ATOM     23  C   UNL     1       1.417  -2.473  -0.286  0.00  0.00    -0.046 A 
ATOM     24  C   UNL     1       1.305  -1.126  -0.577  0.00  0.00    +0.007 A 
ATOM     25  C   UNL     1       2.773  -3.080  -0.038  0.00  0.00    +0.044 C 
ENDBRANCH  17  22
ENDBRANCH   1  17
TORSDOF 5
