REMARK  Name = ZINC39352185
REMARK  1 active torsions:
REMARK  status: ('A' for Active; 'I' for Inactive)
REMARK    1  A    between atoms: C_12  and  C_22
REMARK                            x       y       z     vdW  Elec       q    Type
REMARK                         _______ _______ _______ _____ _____    ______ ____
ROOT
ATOM      1  C   UNL     1      -0.022   1.413   0.438  0.00  0.00    +0.019 A 
ATOM      2  C   UNL     1       1.164   2.116   0.396  0.00  0.00    +0.048 A 
ATOM      3  C   UNL     1       2.375   1.441   0.279  0.00  0.00    +0.135 A 
ATOM      4  C   UNL     1       2.381   0.060   0.197  0.00  0.00    +0.001 A 
ATOM      5  C   UNL     1       1.190  -0.643   0.248  0.00  0.00    +0.022 A 
ATOM      6  C   UNL     1      -0.011   0.032   0.367  0.00  0.00    +0.018 A 
ATOM      7 BR   UNL     1      -1.636  -0.933   0.433  0.00  0.00    -0.050 Br
ATOM      8  C   UNL     1       3.673  -0.714   0.035  0.00  0.00    +0.058 C 
ATOM      9  C   UNL     1       4.816   0.131   0.560  0.00  0.00    +0.131 C 
ATOM     10  C   UNL     1       6.199  -0.404   0.452  0.00  0.00    +0.179 C 
ATOM     11  S   UNL     1       6.549  -1.491  -0.934  0.00  0.00    -0.096 S 
ATOM     12  C   UNL     1       5.084  -1.847  -1.636  0.00  0.00    +0.082 C 
ATOM     13  N   UNL     1       4.859  -2.896  -2.369  0.00  0.00    -0.168 NA
ATOM     14  C   UNL     1       3.660  -3.241  -2.873  0.00  0.00    +0.296 C 
ATOM     15  O   UNL     1       3.395  -4.116  -3.677  0.00  0.00    -0.261 OA
ATOM     16  S   UNL     1       2.551  -2.090  -2.064  0.00  0.00    -0.055 S 
ATOM     17  C   UNL     1       3.863  -0.980  -1.464  0.00  0.00    +0.117 C 
ATOM     18  C   UNL     1       4.681   1.533   0.020  0.00  0.00    +0.318 C 
ATOM     19  O   UNL     1       5.559   2.054  -0.625  0.00  0.00    -0.250 OA
ATOM     20  O   UNL     1       3.521   2.176   0.258  0.00  0.00    -0.425 OA
ENDROOT
BRANCH  10  21
ATOM     21  C   UNL     1       7.144   0.768   0.371  0.00  0.00    +0.370 C 
ATOM     22  O   UNL     1       7.408   1.408   1.375  0.00  0.00    -0.245 OA
ATOM     23  O   UNL     1       7.644   1.075  -0.698  0.00  0.00    -0.245 OA
ENDBRANCH  10  21
TORSDOF 1
