REMARK  Name = ZINC14633494
REMARK  9 active torsions:
REMARK  status: ('A' for Active; 'I' for Inactive)
REMARK    1  A    between atoms: C_1  and  C_2
REMARK    2  A    between atoms: C_11  and  N_13
REMARK    3  A    between atoms: C_14  and  C_16
REMARK    4  A    between atoms: C_16  and  C_17
REMARK    5  A    between atoms: C_17  and  C_18
REMARK    6  A    between atoms: C_19  and  C_30
REMARK    7  A    between atoms: C_23  and  S_28
REMARK    8  A    between atoms: C_26  and  C_27
REMARK    9  A    between atoms: S_28  and  C_29
REMARK                            x       y       z     vdW  Elec       q    Type
REMARK                         _______ _______ _______ _____ _____    ______ ____
ROOT
ATOM      1  N   UNL     1       1.258  -4.878  -2.645  0.00  0.00    -0.285 N 
ATOM      2  C   UNL     1       1.263  -4.209  -1.474  0.00  0.00    +0.218 C 
ATOM      3  O   UNL     1       1.294  -4.820  -0.427  0.00  0.00    -0.275 OA
ATOM      4  H   UNL     1       1.167  -4.393  -3.480  0.00  0.00    +0.155 HD
ENDROOT
BRANCH   1  15
ATOM      5  C   UNL     1       2.524 -11.191  -3.790  0.00  0.00    +0.045 C 
ATOM      6  C   UNL     1       1.774 -10.480  -2.694  0.00  0.00    -0.033 A 
ATOM      7  C   UNL     1       1.198 -11.174  -1.678  0.00  0.00    +0.096 A 
ATOM      8  C   UNL     1       0.502 -10.485  -0.663  0.00  0.00    +0.337 A 
ATOM      9  O   UNL     1      -0.009 -11.120   0.241  0.00  0.00    -0.245 OA
ATOM     10  O   UNL     1       0.390  -9.148  -0.669  0.00  0.00    -0.422 OA
ATOM     11  C   UNL     1       0.938  -8.398  -1.649  0.00  0.00    +0.141 A 
ATOM     12  C   UNL     1       1.647  -9.021  -2.694  0.00  0.00    +0.021 A 
ATOM     13  C   UNL     1       2.218  -8.248  -3.711  0.00  0.00    +0.013 A 
ATOM     14  C   UNL     1       2.081  -6.891  -3.691  0.00  0.00    +0.024 A 
ATOM     15  C   UNL     1       1.385  -6.267  -2.655  0.00  0.00    +0.037 A 
ATOM     16  C   UNL     1       0.813  -7.018  -1.639  0.00  0.00    +0.070 A 
ENDBRANCH   1  15
BRANCH   2  17
ATOM     17  C   UNL     1       1.230  -2.703  -1.467  0.00  0.00    +0.101 C 
BRANCH  17  18
ATOM     18  C   UNL     1       1.244  -2.200  -0.022  0.00  0.00    +0.048 C 
BRANCH  18  19
ATOM     19  C   UNL     1       1.210  -0.693  -0.014  0.00  0.00    -0.005 A 
ATOM     20  C   UNL     1      -0.012  -0.012   0.010  0.00  0.00    +0.047 A 
ATOM     21  N   UNL     1      -0.038   1.302   0.017  0.00  0.00    -0.216 NA
ATOM     22  C   UNL     1       1.096   2.012   0.001  0.00  0.00    +0.254 A 
ATOM     23  N   UNL     1       1.334   3.319   0.004  0.00  0.00    -0.183 NA
ATOM     24  C   UNL     1       2.647   3.537  -0.016  0.00  0.00    +0.211 A 
ATOM     25  N   UNL     1       3.282   2.382  -0.033  0.00  0.00    -0.137 NA
ATOM     26  N   UNL     1       2.305   1.377  -0.022  0.00  0.00    -0.200 N 
ATOM     27  C   UNL     1       2.367   0.020  -0.030  0.00  0.00    +0.048 A 
ATOM     28  C   UNL     1       3.699  -0.685  -0.056  0.00  0.00    +0.066 C 
ATOM     29  C   UNL     1      -1.303  -0.788   0.028  0.00  0.00    +0.066 C 
BRANCH  24  30
ATOM     30  S   UNL     1       3.416   5.122  -0.021  0.00  0.00    -0.088 S 
ATOM     31  C   UNL     1       2.025   6.285   0.009  0.00  0.00    +0.093 C 
ENDBRANCH  24  30
ENDBRANCH  18  19
ENDBRANCH  17  18
ENDBRANCH   2  17
TORSDOF 5
