REMARK  Name = ZINC03432856
REMARK  6 active torsions:
REMARK  status: ('A' for Active; 'I' for Inactive)
REMARK    1  A    between atoms: C_1  and  C_2
REMARK    2  A    between atoms: C_2  and  C_4
REMARK    3  A    between atoms: C_2  and  N_10
REMARK    4  A    between atoms: C_16  and  C_18
REMARK    5  A    between atoms: C_18  and  C_19
REMARK    6  A    between atoms: C_19  and  N_20
REMARK                            x       y       z     vdW  Elec       q    Type
REMARK                         _______ _______ _______ _____ _____    ______ ____
ROOT
ATOM      1  N   UNL     1       3.087   1.322  -3.986  0.00  0.00    -0.255 NA
ATOM      2  C   UNL     1       4.310   0.898  -3.835  0.00  0.00    +0.159 C 
ATOM      3  N   UNL     1       4.971   0.667  -2.650  0.00  0.00    -0.250 N 
ATOM      4  C   UNL     1       6.338   0.201  -2.666  0.00  0.00    +0.126 C 
ATOM      5  C   UNL     1       6.906   0.001  -4.084  0.00  0.00    +0.096 C 
ATOM      6  S   UNL     1       5.478   0.497  -5.119  0.00  0.00    -0.089 S 
ATOM      7  C   UNL     1       4.345   0.881  -1.476  0.00  0.00    +0.223 C 
ATOM      8  O   UNL     1       4.928   0.678  -0.433  0.00  0.00    -0.275 OA
ENDROOT
BRANCH   1  10
ATOM      9  C   UNL     1       1.314   0.616  -5.516  0.00  0.00    +0.038 C 
ATOM     10  C   UNL     1       2.539   1.514  -5.331  0.00  0.00    +0.135 C 
BRANCH  10  11
ATOM     11  C   UNL     1       2.138   2.955  -5.509  0.00  0.00    -0.023 A 
ATOM     12  C   UNL     1       1.521   3.633  -4.474  0.00  0.00    +0.006 A 
ATOM     13  C   UNL     1       1.156   4.957  -4.636  0.00  0.00    +0.000 A 
ATOM     14  C   UNL     1       1.399   5.600  -5.835  0.00  0.00    +0.000 A 
ATOM     15  C   UNL     1       2.011   4.920  -6.872  0.00  0.00    +0.000 A 
ATOM     16  C   UNL     1       2.380   3.598  -6.709  0.00  0.00    +0.006 A 
ENDBRANCH  10  11
ENDBRANCH   1  10
BRANCH   7  17
ATOM     17  C   UNL     1       2.920   1.373  -1.460  0.00  0.00    +0.116 C 
BRANCH  17  18
ATOM     18  C   UNL     1       2.452   1.532  -0.013  0.00  0.00    +0.126 C 
BRANCH  18  19
ATOM     19  N   UNL     1       1.067   2.010   0.003  0.00  0.00    -0.234 N 
ATOM     20  C   UNL     1      -0.014   1.210   0.009  0.00  0.00    +0.254 C 
ATOM     21  O   UNL     1       0.002  -0.004   0.002  0.00  0.00    -0.270 OA
ATOM     22  C   UNL     1      -1.226   2.057   0.018  0.00  0.00    +0.049 A 
ATOM     23  C   UNL     1      -2.587   1.798   0.022  0.00  0.00    +0.014 A 
ATOM     24  C   UNL     1      -3.487   2.852   0.031  0.00  0.00    +0.001 A 
ATOM     25  C   UNL     1      -3.036   4.158   0.036  0.00  0.00    +0.001 A 
ATOM     26  C   UNL     1      -1.677   4.433   0.042  0.00  0.00    +0.014 A 
ATOM     27  C   UNL     1      -0.766   3.389   0.028  0.00  0.00    +0.049 A 
ATOM     28  C   UNL     1       0.710   3.307   0.013  0.00  0.00    +0.254 C 
ATOM     29  O   UNL     1       1.472   4.253   0.011  0.00  0.00    -0.270 OA
ENDBRANCH  18  19
ENDBRANCH  17  18
ENDBRANCH   7  17
TORSDOF 5
