REMARK  Name = ZINC59449757
REMARK  8 active torsions:
REMARK  status: ('A' for Active; 'I' for Inactive)
REMARK    1  A    between atoms: C_1  and  C_2
REMARK    2  A    between atoms: C_2  and  C_3
REMARK    3  A    between atoms: C_2  and  C_4
REMARK    4  A    between atoms: C_7  and  O_21
REMARK    5  A    between atoms: C_9  and  N_10
REMARK    6  A    between atoms: N_10  and  C_11
REMARK    7  A    between atoms: C_11  and  N_13
REMARK    8  A    between atoms: N_13  and  C_14
REMARK                            x       y       z     vdW  Elec       q    Type
REMARK                         _______ _______ _______ _____ _____    ______ ____
ROOT
ATOM      1  N   UNL     1       2.230  -1.568   0.238  0.00  0.00    -0.296 N 
ATOM      2  H   UNL     1       2.176  -0.889   0.928  0.00  0.00    +0.154 HD
ENDROOT
BRANCH   1   8
ATOM      3  C   UNL     1       0.122  -1.056  -0.822  0.00  0.00    -0.023 A 
ATOM      4  C   UNL     1      -0.649  -0.940  -1.963  0.00  0.00    +0.009 A 
ATOM      5  C   UNL     1      -0.104  -1.225  -3.200  0.00  0.00    +0.046 A 
ATOM      6  C   UNL     1       1.220  -1.630  -3.300  0.00  0.00    +0.119 A 
ATOM      7  C   UNL     1       1.996  -1.749  -2.158  0.00  0.00    +0.069 A 
ATOM      8  C   UNL     1       1.449  -1.456  -0.917  0.00  0.00    +0.040 A 
BRANCH   3  10
ATOM      9  C   UNL     1      -0.849   0.738   0.588  0.00  0.00    +0.012 C 
ATOM     10  C   UNL     1      -0.476  -0.744   0.526  0.00  0.00    +0.015 C 
ATOM     11  C   UNL     1      -1.730  -1.595   0.737  0.00  0.00    +0.012 C 
ENDBRANCH   3  10
BRANCH   6  12
ATOM     12  O   UNL     1       1.755  -1.911  -4.518  0.00  0.00    -0.507 OA
ATOM     13  H   UNL     1       2.161  -1.150  -4.954  0.00  0.00    +0.292 HD
ENDBRANCH   6  12
ENDBRANCH   1   8
BRANCH   1  14
ATOM     14  C   UNL     1       3.058  -2.621   0.391  0.00  0.00    +0.139 C 
ATOM     15  S   UNL     1       3.255  -3.748  -0.883  0.00  0.00    -0.018 S 
BRANCH  14  16
ATOM     16  N   UNL     1       3.732  -2.786   1.546  0.00  0.00    -0.297 N 
ATOM     17  H   UNL     1       3.683  -2.107   2.237  0.00  0.00    +0.154 HD
BRANCH  16  18
ATOM     18  C   UNL     1       4.502  -3.936   1.749  0.00  0.00    +0.033 A 
ATOM     19  C   UNL     1       5.749  -3.841   2.353  0.00  0.00    +0.024 A 
ATOM     20  C   UNL     1       6.507  -4.979   2.552  0.00  0.00    +0.017 A 
ATOM     21  C   UNL     1       6.024  -6.212   2.151  0.00  0.00    +0.018 A 
ATOM     22  C   UNL     1       4.782  -6.309   1.550  0.00  0.00    +0.017 A 
ATOM     23  C   UNL     1       4.018  -5.176   1.353  0.00  0.00    +0.024 A 
ATOM     24 BR   UNL     1       7.065  -7.767   2.425  0.00  0.00    -0.050 Br
ENDBRANCH  16  18
ENDBRANCH  14  16
ENDBRANCH   1  14
TORSDOF 6
