REMARK  Name = ZINC11665608
REMARK  4 active torsions:
REMARK  status: ('A' for Active; 'I' for Inactive)
REMARK    1  A    between atoms: C_6  and  C_7
REMARK    2  A    between atoms: N_12  and  C_15
REMARK    3  A    between atoms: C_15  and  C_16
REMARK    4  A    between atoms: C_16  and  C_17
REMARK                            x       y       z     vdW  Elec       q    Type
REMARK                         _______ _______ _______ _____ _____    ______ ____
ROOT
ATOM      1  C   UNL     1       7.791  -0.697  -1.425  0.00  0.00    +0.142 C 
ATOM      2  C   UNL     1       6.277  -0.682  -1.475  0.00  0.00    +0.058 C 
ATOM      3  C   UNL     1       5.642  -1.865  -1.598  0.00  0.00    +0.039 C 
ATOM      4  C   UNL     1       4.162  -1.553  -1.622  0.00  0.00    +0.159 C 
ATOM      5  N   UNL     1       4.082  -0.090  -1.499  0.00  0.00    -0.292 N 
ATOM      6  C   UNL     1       5.343   0.373  -1.422  0.00  0.00    +0.247 C 
ATOM      7  O   UNL     1       5.638   1.550  -1.316  0.00  0.00    -0.270 OA
ATOM      8  N   UNL     1       6.338  -3.037  -1.675  0.00  0.00    -0.271 N 
ATOM      9  C   UNL     1       7.675  -3.109  -1.635  0.00  0.00    +0.304 C 
ATOM     10  O   UNL     1       8.208  -4.199  -1.710  0.00  0.00    -0.252 OA
ATOM     11  N   UNL     1       8.448  -2.012  -1.515  0.00  0.00    -0.288 N 
ATOM     12  H   UNL     1       5.837  -3.863  -1.763  0.00  0.00    +0.156 HD
ATOM     13  H   UNL     1       9.415  -2.086  -1.488  0.00  0.00    +0.151 HD
ENDROOT
BRANCH   1  19
ATOM     14  C   UNL     1       8.327  -0.810   1.018  0.00  0.00    +0.007 A 
ATOM     15  C   UNL     1       8.725  -0.220   2.202  0.00  0.00    +0.020 A 
ATOM     16  C   UNL     1       9.005   1.135   2.239  0.00  0.00    +0.041 A 
ATOM     17  C   UNL     1       8.892   1.896   1.089  0.00  0.00    +0.020 A 
ATOM     18  C   UNL     1       8.500   1.302  -0.096  0.00  0.00    +0.007 A 
ATOM     19  C   UNL     1       8.219  -0.051  -0.132  0.00  0.00    -0.022 A 
ATOM     20 CL   UNL     1       9.499   1.879   3.728  0.00  0.00    -0.084 Cl
ENDBRANCH   1  19
BRANCH   5  21
ATOM     21  C   UNL     1       2.858   0.714  -1.472  0.00  0.00    +0.113 C 
BRANCH  21  22
ATOM     22  C   UNL     1       2.382   0.871  -0.027  0.00  0.00    +0.049 C 
BRANCH  22  23
ATOM     23  C   UNL     1       1.122   1.698   0.001  0.00  0.00    -0.072 C 
ATOM     24  C   UNL     1      -0.013   1.076   0.008  0.00  0.00    -0.028 C 
ATOM     25  C   UNL     1      -1.347   1.761   0.018  0.00  0.00    +0.027 C 
ATOM     26  C   UNL     1      -1.185   3.221   0.453  0.00  0.00    +0.004 C 
ATOM     27  C   UNL     1      -0.061   3.850  -0.381  0.00  0.00    +0.005 C 
ATOM     28  C   UNL     1       1.262   3.192   0.017  0.00  0.00    +0.030 C 
ENDBRANCH  22  23
ENDBRANCH  21  22
ENDBRANCH   5  21
TORSDOF 4
