REMARK  Name = ZINC43223332
REMARK  11 active torsions:
REMARK  status: ('A' for Active; 'I' for Inactive)
REMARK    1  A    between atoms: C_1  and  C_2
REMARK    2  A    between atoms: C_2  and  C_4
REMARK    3  A    between atoms: C_2  and  N_7
REMARK    4  A    between atoms: C_4  and  O_5
REMARK    5  A    between atoms: O_5  and  C_6
REMARK    6  A    between atoms: C_8  and  C_10
REMARK    7  A    between atoms: C_15  and  C_17
REMARK    8  A    between atoms: N_19  and  C_20
REMARK    9  A    between atoms: C_20  and  C_22
REMARK   10  A    between atoms: C_20  and  C_29
REMARK   11  A    between atoms: C_22  and  C_23
REMARK                            x       y       z     vdW  Elec       q    Type
REMARK                         _______ _______ _______ _____ _____    ______ ____
ROOT
ATOM      1  C   UNL     1      -5.212  -0.461   2.810  0.00  0.00    +0.215 C 
ATOM      2  O   UNL     1      -5.660   0.163   1.871  0.00  0.00    -0.276 OA
ATOM      3  N   UNL     1      -5.832  -0.416   4.006  0.00  0.00    -0.308 N 
ATOM      4  H   UNL     1      -5.474  -0.915   4.757  0.00  0.00    +0.149 HD
ENDROOT
BRANCH   1   9
ATOM      5  C   UNL     1      -3.442  -1.177   1.191  0.00  0.00    +0.068 C 
ATOM      6  C   UNL     1      -3.487  -2.617   0.638  0.00  0.00    -0.069 C 
ATOM      7  N   UNL     1      -3.423  -3.484   1.843  0.00  0.00    +0.380 N 
ATOM      8  C   UNL     1      -4.276  -2.786   2.839  0.00  0.00    -0.069 C 
ATOM      9  C   UNL     1      -3.962  -1.285   2.640  0.00  0.00    +0.068 C 
ATOM     10  H   UNL     1      -3.795  -4.399   1.639  0.00  0.00    -0.086 HD
ATOM     11  H   UNL     1      -2.474  -3.553   2.178  0.00  0.00    -0.086 HD
BRANCH   5  13
ATOM     12  N   UNL     1      -1.372  -0.511   0.012  0.00  0.00    -0.310 N 
ATOM     13  C   UNL     1      -2.029  -0.655   1.181  0.00  0.00    +0.215 C 
ATOM     14  O   UNL     1      -1.481  -0.365   2.224  0.00  0.00    -0.276 OA
ATOM     15  H   UNL     1      -1.810  -0.743  -0.822  0.00  0.00    +0.149 HD
BRANCH  12  17
ATOM     16  C   UNL     1      -0.019   1.526   0.010  0.00  0.00    +0.030 C 
ATOM     17  C   UNL     1       0.002  -0.004   0.002  0.00  0.00    +0.095 C 
BRANCH  17  18
ATOM     18  C   UNL     1       0.718  -0.497  -1.257  0.00  0.00    +0.181 C 
BRANCH  18  19
ATOM     19  O   UNL     1       0.097   0.070  -2.412  0.00  0.00    -0.381 OA
ATOM     20  C   UNL     1       0.693  -0.329  -3.648  0.00  0.00    +0.194 C 
ENDBRANCH  18  19
ENDBRANCH  17  18
ENDBRANCH  12  17
ENDBRANCH   5  13
ENDBRANCH   1   9
BRANCH   3  21
ATOM     21  C   UNL     1      -7.047   0.386   4.172  0.00  0.00    +0.107 C 
BRANCH  21  22
ATOM     22  C   UNL     1      -6.670   1.812   4.477  0.00  0.00    -0.027 A 
ATOM     23  C   UNL     1      -5.608   2.082   5.320  0.00  0.00    +0.005 A 
ATOM     24  C   UNL     1      -5.261   3.390   5.600  0.00  0.00    +0.000 A 
ATOM     25  C   UNL     1      -5.977   4.430   5.035  0.00  0.00    +0.000 A 
ATOM     26  C   UNL     1      -7.038   4.161   4.191  0.00  0.00    +0.000 A 
ATOM     27  C   UNL     1      -7.381   2.852   3.908  0.00  0.00    +0.005 A 
ENDBRANCH  21  22
BRANCH  21  28
ATOM     28  C   UNL     1      -7.878  -0.180   5.326  0.00  0.00    +0.062 C 
BRANCH  28  29
ATOM     29  C   UNL     1      -8.358  -1.562   4.968  0.00  0.00    -0.045 A 
ATOM     30  C   UNL     1      -9.566  -1.727   4.316  0.00  0.00    +0.004 A 
ATOM     31  C   UNL     1     -10.007  -2.996   3.989  0.00  0.00    +0.000 A 
ATOM     32  C   UNL     1      -9.240  -4.099   4.312  0.00  0.00    +0.000 A 
ATOM     33  C   UNL     1      -8.032  -3.934   4.963  0.00  0.00    +0.000 A 
ATOM     34  C   UNL     1      -7.589  -2.666   5.287  0.00  0.00    +0.004 A 
ENDBRANCH  28  29
ENDBRANCH  21  28
ENDBRANCH   3  21
TORSDOF 9
