REMARK  Name = ZINC05003862
REMARK  5 active torsions:
REMARK  status: ('A' for Active; 'I' for Inactive)
REMARK    1  A    between atoms: C_1  and  C_2
REMARK    2  A    between atoms: C_2  and  N_9
REMARK    3  A    between atoms: N_12  and  C_13
REMARK    4  A    between atoms: N_12  and  C_14
REMARK    5  A    between atoms: C_14  and  C_21
REMARK                            x       y       z     vdW  Elec       q    Type
REMARK                         _______ _______ _______ _____ _____    ______ ____
ROOT
ATOM      1  N   UNL     1      -0.804   0.571  -2.343  0.00  0.00    -0.292 N 
ATOM      2  C   UNL     1      -1.670   0.753  -3.360  0.00  0.00    +0.303 C 
ATOM      3  O   UNL     1      -1.973   1.879  -3.706  0.00  0.00    -0.253 OA
ATOM      4  N   UNL     1      -2.201  -0.312  -3.993  0.00  0.00    -0.282 N 
ATOM      5  C   UNL     1      -1.836  -1.668  -3.575  0.00  0.00    +0.134 C 
ATOM      6  H   UNL     1      -0.563  -0.328  -2.067  0.00  0.00    +0.151 HD
ENDROOT
BRANCH   1   8
ATOM      7  C   UNL     1       0.588   2.540  -2.664  0.00  0.00    +0.033 C 
ATOM      8  C   UNL     1      -0.227   1.728  -1.655  0.00  0.00    +0.054 C 
ATOM      9  C   UNL     1      -1.368   2.601  -1.132  0.00  0.00    +0.049 C 
ATOM     10  C   UNL     1      -0.913   3.380   0.133  0.00  0.00    +0.168 C 
ATOM     11  S   UNL     1       0.090   2.065   0.964  0.00  0.00    -0.029 S 
ATOM     12  O   UNL     1      -0.781   1.184   1.661  0.00  0.00    -0.174 OA
ATOM     13  O   UNL     1       1.178   2.667   1.651  0.00  0.00    -0.174 OA
ATOM     14  C   UNL     1       0.718   1.224  -0.548  0.00  0.00    +0.191 C 
ENDBRANCH   1   8
BRANCH   4  15
ATOM     15  C   UNL     1      -3.142  -0.114  -5.097  0.00  0.00    +0.056 C 
ATOM     16  C   UNL     1      -2.409   0.577  -6.247  0.00  0.00    +0.050 C 
ATOM     17  C   UNL     1      -3.405   1.421  -7.091  0.00  0.00    +0.168 C 
ATOM     18  S   UNL     1      -4.451   2.110  -5.734  0.00  0.00    -0.029 S 
ATOM     19  O   UNL     1      -5.788   2.246  -6.197  0.00  0.00    -0.174 OA
ATOM     20  O   UNL     1      -3.790   3.226  -5.154  0.00  0.00    -0.174 OA
ATOM     21  C   UNL     1      -4.355   0.681  -4.576  0.00  0.00    +0.191 C 
ATOM     22  C   UNL     1      -3.624  -1.483  -5.580  0.00  0.00    +0.033 C 
ENDBRANCH   4  15
TORSDOF 2
