REMARK  Name = ZINC15797973
REMARK  8 active torsions:
REMARK  status: ('A' for Active; 'I' for Inactive)
REMARK    1  A    between atoms: C_1  and  C_2
REMARK    2  A    between atoms: C_2  and  C_4
REMARK    3  A    between atoms: C_2  and  O_15
REMARK    4  A    between atoms: N_6  and  C_7
REMARK    5  A    between atoms: C_8  and  C_12
REMARK    6  A    between atoms: O_15  and  C_16
REMARK    7  A    between atoms: C_16  and  C_18
REMARK    8  A    between atoms: C_23  and  O_24
REMARK                            x       y       z     vdW  Elec       q    Type
REMARK                         _______ _______ _______ _____ _____    ______ ____
ROOT
ATOM      1  C   UNL     1      -2.602   0.061   1.322  0.00  0.00    +0.062 C 
ATOM      2  C   UNL     1      -2.482   0.853   0.018  0.00  0.00    +0.259 C 
ENDROOT
BRANCH   2   3
ATOM      3  C   UNL     1      -1.187   1.624   0.017  0.00  0.00    +0.258 C 
ATOM      4  O   UNL     1      -1.204   2.836   0.023  0.00  0.00    -0.271 OA
ATOM      5  N   UNL     1      -0.011   0.966   0.007  0.00  0.00    -0.276 N 
ATOM      6  H   UNL     1       0.002  -0.004   0.002  0.00  0.00    +0.155 HD
BRANCH   5   7
ATOM      7  C   UNL     1       1.180   1.675  -0.000  0.00  0.00    +0.084 A 
ATOM      8  C   UNL     1       2.479   1.181  -0.010  0.00  0.00    +0.065 A 
ATOM      9  C   UNL     1       3.544   2.156  -0.021  0.00  0.00    +0.022 A 
ATOM     10  C   UNL     1       3.190   3.453  -0.010  0.00  0.00    +0.048 A 
ATOM     11  S   UNL     1       1.410   3.392   0.007  0.00  0.00    -0.081 S 
BRANCH   8  12
ATOM     12  C   UNL     1       2.755  -0.259  -0.012  0.00  0.00    +0.244 C 
ATOM     13  O   UNL     1       1.833  -1.054  -0.006  0.00  0.00    -0.270 OA
ATOM     14  N   UNL     1       4.027  -0.702  -0.022  0.00  0.00    -0.325 N 
ATOM     15  H   UNL     1       4.761  -0.068  -0.026  0.00  0.00    +0.145 HD
ATOM     16  H   UNL     1       4.210  -1.654  -0.023  0.00  0.00    +0.145 HD
ENDBRANCH   8  12
ENDBRANCH   5   7
ENDBRANCH   2   3
BRANCH   2  17
ATOM     17  O   UNL     1      -3.596   1.777  -0.091  0.00  0.00    -0.449 OA
BRANCH  17  18
ATOM     18  C   UNL     1      -4.707   1.327  -0.706  0.00  0.00    +0.343 C 
ATOM     19  O   UNL     1      -4.744   0.192  -1.139  0.00  0.00    -0.245 OA
BRANCH  18  20
ATOM     20  C   UNL     1      -5.878   2.210  -0.853  0.00  0.00    +0.101 A 
ATOM     21  C   UNL     1      -5.842   3.514  -0.351  0.00  0.00    +0.034 A 
ATOM     22  C   UNL     1      -6.939   4.336  -0.495  0.00  0.00    +0.019 A 
ATOM     23  C   UNL     1      -8.082   3.872  -1.129  0.00  0.00    +0.019 A 
ATOM     24  C   UNL     1      -8.132   2.585  -1.625  0.00  0.00    +0.047 A 
ATOM     25  C   UNL     1      -7.036   1.745  -1.492  0.00  0.00    +0.131 A 
ATOM     26 BR   UNL     1      -6.888   6.102   0.179  0.00  0.00    -0.050 Br
BRANCH  25  27
ATOM     27  O   UNL     1      -7.084   0.480  -1.980  0.00  0.00    -0.506 OA
ATOM     28  H   UNL     1      -7.411  -0.173  -1.346  0.00  0.00    +0.292 HD
ENDBRANCH  25  27
ENDBRANCH  18  20
ENDBRANCH  17  18
ENDBRANCH   2  17
TORSDOF 7
