REMARK  Name = ZINC36309356
REMARK  18 active torsions:
REMARK  status: ('A' for Active; 'I' for Inactive)
REMARK    1  A    between atoms: C_1  and  C_2
REMARK    2  A    between atoms: C_2  and  C_3
REMARK    3  A    between atoms: C_2  and  C_4
REMARK    4  A    between atoms: C_4  and  O_5
REMARK    5  A    between atoms: O_5  and  C_6
REMARK    6  A    between atoms: C_6  and  C_7
REMARK    7  A    between atoms: C_7  and  C_9
REMARK    8  A    between atoms: C_7  and  O_37
REMARK    9  A    between atoms: C_9  and  N_10
REMARK   10  A    between atoms: N_10  and  C_11
REMARK   11  A    between atoms: N_10  and  C_14
REMARK   12  A    between atoms: C_11  and  C_12
REMARK   13  A    between atoms: C_14  and  C_15
REMARK   14  A    between atoms: C_25  and  C_27
REMARK   15  A    between atoms: C_27  and  O_28
REMARK   16  A    between atoms: O_28  and  C_29
REMARK   17  A    between atoms: C_34  and  O_35
REMARK   18  A    between atoms: O_35  and  C_36
REMARK                            x       y       z     vdW  Elec       q    Type
REMARK                         _______ _______ _______ _____ _____    ______ ____
ROOT
ATOM      1  C   UNL     1      -4.793  -8.318  -1.085  0.00  0.00    +0.200 C 
ATOM      2  O   UNL     1      -3.681  -8.800  -1.073  0.00  0.00    -0.278 OA
ATOM      3  N   UNL     1      -5.862  -9.094  -1.352  0.00  0.00    -0.292 N 
ATOM      4  C   UNL     1      -7.215  -8.518  -1.375  0.00  0.00    +0.113 C 
ATOM      5  C   UNL     1      -7.762  -8.626  -2.806  0.00  0.00    +0.061 C 
ATOM      6  C   UNL     1      -7.426  -9.979  -3.346  0.00  0.00    -0.004 A 
ATOM      7  C   UNL     1      -6.512 -10.866  -2.869  0.00  0.00    -0.014 A 
ATOM      8  C   UNL     1      -6.383 -12.067  -3.565  0.00  0.00    +0.013 A 
ATOM      9  C   UNL     1      -7.151 -12.304  -4.653  0.00  0.00    +0.046 A 
ATOM     10  S   UNL     1      -8.119 -10.806  -4.753  0.00  0.00    -0.101 S 
ATOM     11  C   UNL     1      -5.691 -10.526  -1.631  0.00  0.00    +0.144 C 
ENDROOT
BRANCH   1  12
ATOM     12  C   UNL     1      -4.980  -6.850  -0.799  0.00  0.00    +0.019 C 
BRANCH  12  13
ATOM     13  N   UNL     1      -3.674  -6.231  -0.541  0.00  0.00    +0.389 N 
ATOM     14  H   UNL     1      -3.203  -6.734   0.197  0.00  0.00    -0.081 HD
BRANCH  13  15
ATOM     15  C   UNL     1      -3.866  -4.832  -0.133  0.00  0.00    -0.044 C 
BRANCH  15  16
ATOM     16  C   UNL     1      -4.543  -4.790   1.238  0.00  0.00    +0.124 C 
BRANCH  16  17
ATOM     17  O   UNL     1      -5.886  -5.262   1.122  0.00  0.00    -0.391 OA
ATOM     18  H   UNL     1      -6.434  -4.744   0.517  0.00  0.00    +0.210 HD
ENDBRANCH  16  17
BRANCH  16  19
ATOM     19  C   UNL     1      -4.551  -3.350   1.758  0.00  0.00    +0.189 C 
BRANCH  19  20
ATOM     20  O   UNL     1      -5.077  -3.327   3.087  0.00  0.00    -0.377 OA
BRANCH  20  21
ATOM     21  C   UNL     1      -5.129  -2.022   3.668  0.00  0.00    +0.163 C 
BRANCH  21  23
ATOM     22  C   UNL     1      -5.645  -0.742   5.750  0.00  0.00    +0.009 C 
ATOM     23  C   UNL     1      -5.705  -2.117   5.082  0.00  0.00    +0.009 C 
ATOM     24  C   UNL     1      -7.159  -2.586   5.010  0.00  0.00    +0.009 C 
ENDBRANCH  21  23
ENDBRANCH  20  21
ENDBRANCH  19  20
ENDBRANCH  16  19
ENDBRANCH  15  16
ENDBRANCH  13  15
BRANCH  13  25
ATOM     25  C   UNL     1      -2.859  -6.277  -1.762  0.00  0.00    -0.051 C 
BRANCH  25  26
ATOM     26  C   UNL     1      -1.472  -5.770  -1.461  0.00  0.00    -0.053 C 
ATOM     27  C   UNL     1      -0.428  -6.508  -1.747  0.00  0.00    +0.002 C 
ENDBRANCH  25  26
ENDBRANCH  13  25
ENDBRANCH  12  13
ENDBRANCH   1  12
BRANCH  11  28
ATOM     28  C   UNL     1      -6.189 -11.349  -0.442  0.00  0.00    +0.256 C 
BRANCH  28  29
ATOM     29  O   UNL     1      -7.598 -11.162  -0.290  0.00  0.00    -0.486 OA
BRANCH  29  30
ATOM     30  C   UNL     1      -8.203 -11.829   0.729  0.00  0.00    +0.162 A 
ATOM     31  C   UNL     1      -7.456 -12.640   1.568  0.00  0.00    +0.049 A 
ATOM     32  C   UNL     1      -8.073 -13.317   2.604  0.00  0.00    +0.004 A 
ATOM     33  C   UNL     1      -9.434 -13.187   2.805  0.00  0.00    +0.004 A 
ATOM     34  C   UNL     1     -10.185 -12.380   1.972  0.00  0.00    +0.049 A 
ATOM     35  C   UNL     1      -9.573 -11.694   0.935  0.00  0.00    +0.161 A 
BRANCH  35  36
ATOM     36  O   UNL     1     -10.309 -10.895   0.117  0.00  0.00    -0.491 OA
ATOM     37  C   UNL     1     -11.709 -10.803   0.388  0.00  0.00    +0.277 C 
ENDBRANCH  35  36
ENDBRANCH  29  30
ENDBRANCH  28  29
ENDBRANCH  11  28
TORSDOF 15
