REMARK  Name = ZINC49210210
REMARK  5 active torsions:
REMARK  status: ('A' for Active; 'I' for Inactive)
REMARK    1  A    between atoms: C_1  and  C_2
REMARK    2  A    between atoms: C_2  and  N_3
REMARK    3  A    between atoms: C_5  and  N_10
REMARK    4  A    between atoms: N_13  and  C_14
REMARK    5  A    between atoms: C_14  and  C_15
REMARK                            x       y       z     vdW  Elec       q    Type
REMARK                         _______ _______ _______ _____ _____    ______ ____
ROOT
ATOM      1  N   UNL     1      -3.898  -1.453   2.464  0.00  0.00    -0.268 N 
ATOM      2  C   UNL     1      -5.194  -1.823   2.498  0.00  0.00    +0.304 C 
ATOM      3  O   UNL     1      -5.792  -2.038   1.461  0.00  0.00    -0.252 OA
ATOM      4  N   UNL     1      -5.827  -1.953   3.680  0.00  0.00    -0.295 N 
ATOM      5  H   UNL     1      -3.402  -1.349   3.291  0.00  0.00    +0.156 HD
ATOM      6  H   UNL     1      -5.351  -1.781   4.507  0.00  0.00    +0.151 HD
ENDROOT
BRANCH   1   9
ATOM      7  N   UNL     1      -2.078   0.224  -0.210  0.00  0.00    -0.314 N 
ATOM      8  C   UNL     1      -2.693  -0.014   0.979  0.00  0.00    +0.112 A 
ATOM      9  C   UNL     1      -3.266  -1.219   1.232  0.00  0.00    +0.051 A 
ATOM     10  C   UNL     1      -3.225  -2.232   0.257  0.00  0.00    +0.030 A 
ATOM     11  C   UNL     1      -2.607  -1.986  -0.933  0.00  0.00    +0.072 A 
ATOM     12  C   UNL     1      -2.029  -0.726  -1.163  0.00  0.00    +0.251 A 
ATOM     13  O   UNL     1      -1.477  -0.494  -2.227  0.00  0.00    -0.268 OA
BRANCH   7  15
ATOM     14  C   UNL     1      -2.501   2.467  -1.089  0.00  0.00    +0.027 C 
ATOM     15  C   UNL     1      -1.466   1.532  -0.460  0.00  0.00    +0.121 C 
ENDBRANCH   7  15
ENDBRANCH   1   9
BRANCH   4  16
ATOM     16  C   UNL     1      -7.236  -2.355   3.716  0.00  0.00    +0.148 C 
BRANCH  16  17
ATOM     17  C   UNL     1      -7.701  -2.427   5.148  0.00  0.00    +0.008 A 
ATOM     18  C   UNL     1      -8.259  -1.457   5.913  0.00  0.00    +0.028 A 
ATOM     19  C   UNL     1      -8.613  -1.753   7.217  0.00  0.00    +0.025 A 
ATOM     20  C   UNL     1      -8.390  -3.003   7.691  0.00  0.00    +0.060 A 
ATOM     21  S   UNL     1      -7.667  -3.812   6.273  0.00  0.00    -0.099 S 
ATOM     22 BR   UNL     1      -9.394  -0.432   8.323  0.00  0.00    -0.050 Br
ENDBRANCH  16  17
ENDBRANCH   4  16
TORSDOF 4
