REMARK  Name = ZINC40040058
REMARK  6 active torsions:
REMARK  status: ('A' for Active; 'I' for Inactive)
REMARK    1  A    between atoms: C_1  and  C_2
REMARK    2  A    between atoms: N_11  and  C_15
REMARK    3  A    between atoms: C_15  and  C_16
REMARK    4  A    between atoms: C_21  and  C_24
REMARK    5  A    between atoms: C_24  and  C_26
REMARK    6  A    between atoms: C_29  and  O_32
REMARK                            x       y       z     vdW  Elec       q    Type
REMARK                         _______ _______ _______ _____ _____    ______ ____
ROOT
ATOM      1  C   UNL     1       3.425   2.876   2.253  0.00  0.00    +0.234 C 
ATOM      2  O   UNL     1       2.503   3.237   1.554  0.00  0.00    -0.274 OA
ATOM      3  N   UNL     1       4.441   3.721   2.519  0.00  0.00    -0.300 N 
ATOM      4  C   UNL     1       5.568   3.296   3.360  0.00  0.00    +0.108 C 
ATOM      5  C   UNL     1       5.745   4.308   4.496  0.00  0.00    +0.030 C 
ATOM      6  C   UNL     1       5.896   5.712   3.905  0.00  0.00    +0.063 C 
ATOM      7  C   UNL     1       4.630   6.077   3.125  0.00  0.00    +0.030 C 
ATOM      8  C   UNL     1       4.444   5.084   1.968  0.00  0.00    +0.108 C 
ENDROOT
BRANCH   6   9
ATOM      9  C   UNL     1       6.104   6.706   5.018  0.00  0.00    +0.166 C 
ATOM     10  O   UNL     1       5.695   6.461   6.134  0.00  0.00    -0.292 OA
BRANCH   9  11
ATOM     11  C   UNL     1       6.801   7.971   4.753  0.00  0.00    +0.018 A 
ATOM     12  C   UNL     1       7.268   8.259   3.464  0.00  0.00    +0.015 A 
ATOM     13  C   UNL     1       7.918   9.441   3.221  0.00  0.00    +0.046 A 
ATOM     14  C   UNL     1       8.113  10.354   4.252  0.00  0.00    +0.117 A 
ATOM     15  C   UNL     1       7.652  10.073   5.533  0.00  0.00    +0.046 A 
ATOM     16  C   UNL     1       6.995   8.896   5.785  0.00  0.00    +0.015 A 
BRANCH  14  17
ATOM     17  O   UNL     1       8.757  11.523   4.006  0.00  0.00    -0.507 OA
ATOM     18  H   UNL     1       8.172  12.246   3.741  0.00  0.00    +0.292 HD
ENDBRANCH  14  17
ENDBRANCH   9  11
ENDBRANCH   6   9
BRANCH   1  19
ATOM     19  C   UNL     1       3.436   1.482   2.825  0.00  0.00    +0.213 C 
BRANCH  19  29
ATOM     20  C   UNL     1      -0.019   1.526   0.010  0.00  0.00    +0.010 C 
ATOM     21  C   UNL     1       0.002  -0.004   0.002  0.00  0.00    +0.018 C 
ATOM     22  C   UNL     1      -1.434  -0.534   0.012  0.00  0.00    +0.006 C 
ATOM     23  C   UNL     1      -1.412  -2.064   0.024  0.00  0.00    +0.000 C 
ATOM     24  C   UNL     1      -0.687  -2.556   1.279  0.00  0.00    +0.003 C 
ATOM     25  C   UNL     1       0.752  -2.033   1.273  0.00  0.00    +0.035 C 
ATOM     26  C   UNL     1       0.740  -0.509   1.237  0.00  0.00    +0.115 C 
ATOM     27  C   UNL     1       2.151   0.030   1.266  0.00  0.00    +0.247 C 
ATOM     28  O   UNL     1       3.026  -0.158   0.448  0.00  0.00    -0.273 OA
ATOM     29  N   UNL     1       2.233   0.767   2.394  0.00  0.00    -0.215 N 
ATOM     30  C   UNL     1       1.077   0.763   3.069  0.00  0.00    +0.310 C 
ATOM     31  O   UNL     1       0.904   1.356   4.116  0.00  0.00    -0.252 OA
ATOM     32  N   UNL     1       0.127   0.030   2.458  0.00  0.00    -0.285 N 
ATOM     33  H   UNL     1      -0.782  -0.114   2.764  0.00  0.00    +0.151 HD
ENDBRANCH  19  29
ENDBRANCH   1  19
TORSDOF 5
