REMARK  Name = ZINC05960449
REMARK  7 active torsions:
REMARK  status: ('A' for Active; 'I' for Inactive)
REMARK    1  A    between atoms: C_1  and  C_2
REMARK    2  A    between atoms: C_4  and  N_20
REMARK    3  A    between atoms: C_7  and  N_8
REMARK    4  A    between atoms: C_9  and  C_11
REMARK    5  A    between atoms: C_21  and  C_22
REMARK    6  A    between atoms: C_26  and  C_29
REMARK    7  A    between atoms: C_27  and  O_28
REMARK                            x       y       z     vdW  Elec       q    Type
REMARK                         _______ _______ _______ _____ _____    ______ ____
ROOT
ATOM      1  C   UNL     1       2.455   3.943  -0.006  0.00  0.00    +0.046 C 
ATOM      2  C   UNL     1       1.160   3.172  -0.003  0.00  0.00    -0.027 A 
ATOM      3  C   UNL     1      -0.042   3.846   0.004  0.00  0.00    +0.033 A 
ATOM      4  C   UNL     1      -1.242   3.130   0.007  0.00  0.00    +0.064 A 
ATOM      5  C   UNL     1      -1.218   1.733  -0.003  0.00  0.00    +0.029 A 
ATOM      6  C   UNL     1      -0.013   1.066  -0.005  0.00  0.00    +0.025 A 
ATOM      7  C   UNL     1       1.180   1.782  -0.008  0.00  0.00    +0.037 A 
ENDROOT
BRANCH   7   8
ATOM      8  N   UNL     1       2.401   1.102  -0.015  0.00  0.00    -0.279 N 
ATOM      9  C   UNL     1       2.526  -0.066   0.646  0.00  0.00    +0.284 C 
ATOM     10  O   UNL     1       1.556  -0.569   1.181  0.00  0.00    -0.266 OA
ATOM     11  H   UNL     1       3.158   1.470  -0.497  0.00  0.00    +0.155 HD
BRANCH   9  12
ATOM     12  C   UNL     1       3.834  -0.730   0.722  0.00  0.00    +0.191 A 
ATOM     13  C   UNL     1       4.079  -1.905   1.359  0.00  0.00    +0.063 A 
ATOM     14  C   UNL     1       5.503  -2.177   1.174  0.00  0.00    +0.021 A 
ATOM     15  C   UNL     1       6.358  -3.207   1.576  0.00  0.00    +0.011 A 
ATOM     16  C   UNL     1       7.679  -3.164   1.229  0.00  0.00    +0.001 A 
ATOM     17  C   UNL     1       8.176  -2.106   0.480  0.00  0.00    +0.004 A 
ATOM     18  C   UNL     1       7.349  -1.081   0.073  0.00  0.00    +0.047 A 
ATOM     19  C   UNL     1       6.002  -1.102   0.415  0.00  0.00    +0.136 A 
ATOM     20  O   UNL     1       4.973  -0.269   0.164  0.00  0.00    -0.450 OA
ENDBRANCH   9  12
ENDBRANCH   7   8
BRANCH   4  21
ATOM     21  N   UNL     1      -2.437   3.796   0.013  0.00  0.00    -0.255 NA
ATOM     22  C   UNL     1      -3.398   3.418  -0.782  0.00  0.00    +0.123 C 
BRANCH  22  23
ATOM     23  C   UNL     1      -4.683   4.133  -0.775  0.00  0.00    +0.036 A 
ATOM     24  C   UNL     1      -5.717   3.731  -1.627  0.00  0.00    +0.033 A 
ATOM     25  C   UNL     1      -6.919   4.406  -1.614  0.00  0.00    +0.042 A 
ATOM     26  C   UNL     1      -7.107   5.482  -0.761  0.00  0.00    +0.027 A 
ATOM     27  C   UNL     1      -6.094   5.890   0.085  0.00  0.00    -0.007 A 
ATOM     28  C   UNL     1      -4.881   5.220   0.090  0.00  0.00    +0.128 A 
ATOM     29  C   UNL     1      -6.310   7.061   1.009  0.00  0.00    +0.047 C 
ATOM     30 CL   UNL     1      -8.202   3.907  -2.672  0.00  0.00    -0.084 Cl
BRANCH  28  31
ATOM     31  O   UNL     1      -3.887   5.616   0.925  0.00  0.00    -0.506 OA
ATOM     32  H   UNL     1      -3.296   6.281   0.546  0.00  0.00    +0.292 HD
ENDBRANCH  28  31
ENDBRANCH  22  23
ENDBRANCH   4  21
TORSDOF 5
