REMARK  Name = ZINC15016409
REMARK  6 active torsions:
REMARK  status: ('A' for Active; 'I' for Inactive)
REMARK    1  A    between atoms: C_1  and  C_2
REMARK    2  A    between atoms: N_7  and  C_8
REMARK    3  A    between atoms: C_8  and  C_10
REMARK    4  A    between atoms: C_8  and  C_19
REMARK    5  A    between atoms: C_13  and  N_16
REMARK    6  A    between atoms: C_28  and  O_29
REMARK                            x       y       z     vdW  Elec       q    Type
REMARK                         _______ _______ _______ _____ _____    ______ ____
ROOT
ATOM      1  C   UNL     1       1.453   2.394   4.804  0.00  0.00    +0.136 C 
ENDROOT
BRANCH   1   8
ATOM      2  C   UNL     1      -0.679   0.586   9.103  0.00  0.00    +0.044 C 
ATOM      3  C   UNL     1      -1.196   1.250   7.853  0.00  0.00    -0.046 A 
ATOM      4  C   UNL     1      -2.548   1.528   7.703  0.00  0.00    +0.021 A 
ATOM      5  C   UNL     1      -2.989   2.140   6.548  0.00  0.00    +0.084 A 
ATOM      6  C   UNL     1      -0.849   2.201   5.686  0.00  0.00    +0.097 A 
ATOM      7  C   UNL     1      -0.335   1.590   6.825  0.00  0.00    +0.045 A 
ATOM      8  N   UNL     1       0.005   2.549   4.646  0.00  0.00    -0.320 N 
ATOM      9  H   UNL     1      -0.358   2.893   3.815  0.00  0.00    +0.148 HD
ATOM     10  N   UNL     1      -2.172   2.489   5.518  0.00  0.00    -0.350 N 
ATOM     11  H   UNL     1      -2.528   2.941   4.668  0.00  0.00    +0.166 HD
ENDBRANCH   1   8
BRANCH   1  12
ATOM     12  C   UNL     1       1.853   0.992   4.426  0.00  0.00    +0.021 A 
ATOM     13  C   UNL     1       1.066   0.272   3.531  0.00  0.00    +0.010 A 
ATOM     14  C   UNL     1       1.400  -0.997   3.168  0.00  0.00    +0.010 A 
ATOM     15  C   UNL     1       2.554  -1.593   3.702  0.00  0.00    +0.004 A 
ATOM     16  C   UNL     1       2.932  -2.903   3.350  0.00  0.00    +0.011 A 
ATOM     17  C   UNL     1       4.068  -3.417   3.908  0.00  0.00    +0.020 A 
ATOM     18  C   UNL     1       4.816  -2.648   4.797  0.00  0.00    +0.111 A 
ATOM     19  N   UNL     1       4.460  -1.429   5.122  0.00  0.00    -0.251 NA
ATOM     20  C   UNL     1       3.361  -0.867   4.612  0.00  0.00    +0.113 A 
ATOM     21  C   UNL     1       2.986   0.448   4.961  0.00  0.00    +0.148 A 
BRANCH  21  22
ATOM     22  O   UNL     1       3.745   1.167   5.828  0.00  0.00    -0.504 OA
ATOM     23  H   UNL     1       3.493   1.058   6.755  0.00  0.00    +0.292 HD
ENDBRANCH  21  22
ENDBRANCH   1  12
BRANCH   1  24
ATOM     24  C   UNL     1       2.164   3.378   3.911  0.00  0.00    -0.023 A 
ATOM     25  C   UNL     1       1.773   3.522   2.592  0.00  0.00    +0.008 A 
ATOM     26  C   UNL     1       2.422   4.428   1.774  0.00  0.00    +0.033 A 
ATOM     27  C   UNL     1       3.469   5.182   2.271  0.00  0.00    +0.126 A 
ATOM     28  C   UNL     1       3.863   5.034   3.587  0.00  0.00    +0.033 A 
ATOM     29  C   UNL     1       3.211   4.132   4.407  0.00  0.00    +0.008 A 
BRANCH  27  30
ATOM     30  N   UNL     1       4.167   6.148   1.393  0.00  0.00    +0.056 N 
ATOM     31  O   UNL     1       5.089   6.812   1.831  0.00  0.00    -0.126 OA
ATOM     32  O   UNL     1       3.819   6.279   0.233  0.00  0.00    -0.126 OA
ENDBRANCH  27  30
ENDBRANCH   1  24
TORSDOF 5
