REMARK  Name = ZINC45682828
REMARK  10 active torsions:
REMARK  status: ('A' for Active; 'I' for Inactive)
REMARK    1  A    between atoms: C_1  and  C_2
REMARK    2  A    between atoms: C_5  and  C_37
REMARK    3  A    between atoms: C_6  and  N_8
REMARK    4  A    between atoms: C_9  and  C_11
REMARK    5  A    between atoms: C_11  and  C_13
REMARK    6  A    between atoms: C_11  and  O_19
REMARK    7  A    between atoms: O_19  and  C_20
REMARK    8  A    between atoms: C_20  and  C_22
REMARK    9  A    between atoms: C_24  and  C_32
REMARK   10  A    between atoms: C_28  and  C_31
REMARK                            x       y       z     vdW  Elec       q    Type
REMARK                         _______ _______ _______ _____ _____    ______ ____
ROOT
ATOM      1  C   UNL     1       0.432  -2.906   4.817  0.00  0.00    +0.292 C 
ENDROOT
BRANCH   1   2
ATOM      2  C   UNL     1      -0.827  -3.703   5.043  0.00  0.00    +0.002 A 
ATOM      3  C   UNL     1      -1.956  -3.083   5.545  0.00  0.00    +0.008 A 
ATOM      4  C   UNL     1      -3.111  -3.815   5.752  0.00  0.00    +0.000 A 
ATOM      5  C   UNL     1      -3.137  -5.165   5.457  0.00  0.00    +0.000 A 
ATOM      6  C   UNL     1      -2.008  -5.784   4.955  0.00  0.00    +0.000 A 
ATOM      7  C   UNL     1      -0.854  -5.052   4.744  0.00  0.00    +0.008 A 
ENDBRANCH   1   2
BRANCH   1   9
ATOM      8  N   UNL     1       0.238  -2.803   2.354  0.00  0.00    -0.282 N 
ATOM      9  C   UNL     1       0.317  -2.140   3.525  0.00  0.00    +0.263 C 
ATOM     10  O   UNL     1       0.294  -0.928   3.538  0.00  0.00    -0.271 OA
ATOM     11  H   UNL     1       0.175  -3.771   2.347  0.00  0.00    +0.155 HD
BRANCH   8  17
ATOM     12  C   UNL     1       1.444   1.240  -0.172  0.00  0.00    +0.044 C 
ATOM     13  C   UNL     1       0.825  -0.133  -0.105  0.00  0.00    -0.049 A 
ATOM     14  C   UNL     1       0.265  -0.693  -1.239  0.00  0.00    +0.004 A 
ATOM     15  C   UNL     1      -0.304  -1.952  -1.183  0.00  0.00    +0.005 A 
ATOM     16  C   UNL     1      -0.314  -2.654   0.007  0.00  0.00    -0.029 A 
ATOM     17  C   UNL     1       0.247  -2.094   1.147  0.00  0.00    +0.037 A 
ATOM     18  C   UNL     1       0.823  -0.832   1.086  0.00  0.00    +0.027 A 
ATOM     19  C   UNL     1      -0.935  -4.026   0.068  0.00  0.00    +0.045 C 
ENDBRANCH   8  17
ENDBRANCH   1   9
BRANCH   1  20
ATOM     20  O   UNL     1       0.616  -1.990   5.899  0.00  0.00    -0.444 OA
BRANCH  20  21
ATOM     21  C   UNL     1       1.327  -2.428   6.956  0.00  0.00    +0.341 C 
ATOM     22  O   UNL     1       1.778  -3.555   6.960  0.00  0.00    -0.245 OA
BRANCH  21  23
ATOM     23  C   UNL     1       1.558  -1.534   8.112  0.00  0.00    +0.075 A 
ATOM     24  C   UNL     1       1.571  -0.152   7.959  0.00  0.00    +0.047 A 
ATOM     25  C   UNL     1       1.794   0.655   9.081  0.00  0.00    +0.111 A 
ATOM     26  N   UNL     1       1.993   0.128  10.282  0.00  0.00    -0.207 NA
ATOM     27  C   UNL     1       1.991  -1.179  10.481  0.00  0.00    +0.260 A 
ATOM     28  C   UNL     1       1.768  -2.058   9.406  0.00  0.00    +0.077 A 
ATOM     29  C   UNL     1       1.819  -3.412   9.954  0.00  0.00    +0.091 A 
ATOM     30  N   UNL     1       2.046  -3.306  11.228  0.00  0.00    -0.080 NA
ATOM     31  O   UNL     1       2.165  -1.942  11.580  0.00  0.00    -0.334 OA
ATOM     32  C   UNL     1       1.642  -4.694   9.183  0.00  0.00    +0.070 C 
BRANCH  25  33
ATOM     33  C   UNL     1       1.808   2.122   8.924  0.00  0.00    +0.153 A 
ATOM     34  C   UNL     1       2.016   3.030   9.917  0.00  0.00    +0.051 A 
ATOM     35  C   UNL     1       1.945   4.304   9.323  0.00  0.00    +0.042 A 
ATOM     36  C   UNL     1       1.700   4.115   8.010  0.00  0.00    +0.196 A 
ATOM     37  O   UNL     1       1.622   2.796   7.772  0.00  0.00    -0.461 OA
ENDBRANCH  25  33
ENDBRANCH  21  23
ENDBRANCH  20  21
ENDBRANCH   1  20
TORSDOF 7
