REMARK  Name = ZINC33249918
REMARK  9 active torsions:
REMARK  status: ('A' for Active; 'I' for Inactive)
REMARK    1  A    between atoms: C_1  and  C_2
REMARK    2  A    between atoms: C_2  and  C_3
REMARK    3  A    between atoms: C_3  and  C_5
REMARK    4  A    between atoms: C_3  and  N_6
REMARK    5  A    between atoms: C_7  and  C_9
REMARK    6  A    between atoms: C_15  and  C_20
REMARK    7  A    between atoms: C_15  and  C_21
REMARK    8  A    between atoms: N_16  and  C_19
REMARK    9  A    between atoms: N_23  and  C_24
REMARK                            x       y       z     vdW  Elec       q    Type
REMARK                         _______ _______ _______ _____ _____    ______ ____
ROOT
ATOM      1  C   UNL     1       3.250   2.855  -0.105  0.00  0.00    +0.148 A 
ATOM      2  C   UNL     1       2.508   1.660  -0.253  0.00  0.00    +0.067 A 
ATOM      3  C   UNL     1       1.226   2.006   0.001  0.00  0.00    +0.124 A 
ATOM      4  N   UNL     1       1.211   3.356   0.289  0.00  0.00    -0.256 N 
ATOM      5  N   UNL     1       2.399   3.815   0.219  0.00  0.00    -0.166 NA
ATOM      6  C   UNL     1      -0.044   4.046   0.610  0.00  0.00    +0.179 C 
ATOM      7  C   UNL     1      -1.197   3.363  -0.123  0.00  0.00    +0.130 C 
ATOM      8  N   UNL     1      -1.175   1.912   0.018  0.00  0.00    -0.284 N 
ATOM      9  C   UNL     1      -0.014   1.212   0.009  0.00  0.00    +0.265 C 
ATOM     10  O   UNL     1       0.002  -0.004   0.002  0.00  0.00    -0.268 OA
ATOM     11  C   UNL     1      -2.441   1.192   0.177  0.00  0.00    +0.133 C 
ATOM     12  C   UNL     1      -2.520   3.895   0.433  0.00  0.00    +0.044 C 
ENDROOT
BRANCH   1  14
ATOM     13  N   UNL     1       5.290   4.208  -0.104  0.00  0.00    -0.307 N 
ATOM     14  C   UNL     1       4.710   3.004  -0.278  0.00  0.00    +0.264 C 
ATOM     15  O   UNL     1       5.387   2.040  -0.577  0.00  0.00    -0.268 OA
ATOM     16  H   UNL     1       4.676   5.080   0.166  0.00  0.00    +0.149 HD
BRANCH  13  17
ATOM     17  C   UNL     1       6.737   4.355  -0.277  0.00  0.00    +0.070 C 
ATOM     18  C   UNL     1       7.446   3.989   1.029  0.00  0.00    +0.028 C 
BRANCH  17  20
ATOM     19  C   UNL     1       6.456   6.132  -2.011  0.00  0.00    +0.005 C 
ATOM     20  C   UNL     1       7.062   5.804  -0.644  0.00  0.00    +0.018 C 
ENDBRANCH  17  20
ENDBRANCH  13  17
ENDBRANCH   1  14
BRANCH   7  21
ATOM     21  C   UNL     1      -1.113   3.704  -1.588  0.00  0.00    +0.238 C 
ATOM     22  O   UNL     1      -0.557   4.722  -1.942  0.00  0.00    -0.273 OA
ATOM     23  N   UNL     1      -1.656   2.879  -2.505  0.00  0.00    -0.311 N 
ATOM     24  H   UNL     1      -2.160   1.956  -2.183  0.00  0.00    +0.149 HD
BRANCH  23  25
ATOM     25  C   UNL     1      -1.574   3.211  -3.929  0.00  0.00    +0.073 C 
ATOM     26  C   UNL     1      -2.727   4.144  -4.302  0.00  0.00    +0.022 C 
ATOM     27  C   UNL     1      -2.642   4.491  -5.790  0.00  0.00    +0.002 C 
ATOM     28  C   UNL     1      -2.736   3.209  -6.619  0.00  0.00    +0.000 C 
ATOM     29  C   UNL     1      -1.582   2.275  -6.246  0.00  0.00    +0.002 C 
ATOM     30  C   UNL     1      -1.667   1.928  -4.758  0.00  0.00    +0.022 C 
ENDBRANCH  23  25
ENDBRANCH   7  21
TORSDOF 5
