REMARK  Name = ZINC64390174
REMARK  9 active torsions:
REMARK  status: ('A' for Active; 'I' for Inactive)
REMARK    1  A    between atoms: C_1  and  C_2
REMARK    2  A    between atoms: C_5  and  C_8
REMARK    3  A    between atoms: C_8  and  S_9
REMARK    4  A    between atoms: S_9  and  C_10
REMARK    5  A    between atoms: C_20  and  C_23
REMARK    6  A    between atoms: C_26  and  O_31
REMARK    7  A    between atoms: C_27  and  O_29
REMARK    8  A    between atoms: O_29  and  C_30
REMARK    9  A    between atoms: O_31  and  C_32
REMARK                            x       y       z     vdW  Elec       q    Type
REMARK                         _______ _______ _______ _____ _____    ______ ____
ROOT
ATOM      1  C   UNL     1       1.732  -6.667  -0.155  0.00  0.00    +0.269 C 
ATOM      2  N   UNL     1       0.931  -7.224   0.948  0.00  0.00    -0.163 NA
ATOM      3  N   UNL     1      -0.270  -7.484   0.852  0.00  0.00    -0.081 NA
ATOM      4  C   UNL     1      -1.002  -7.258  -0.267  0.00  0.00    +0.272 C 
ATOM      5  O   UNL     1      -2.152  -7.615  -0.358  0.00  0.00    -0.270 OA
ATOM      6  C   UNL     1      -0.309  -6.540  -1.387  0.00  0.00    +0.167 C 
ATOM      7  N   UNL     1       1.092  -7.064  -1.396  0.00  0.00    -0.196 NA
ATOM      8  N   UNL     1       1.620  -6.601  -2.660  0.00  0.00    -0.243 NA
ATOM      9  C   UNL     1       0.525  -6.884  -3.635  0.00  0.00    +0.102 C 
ATOM     10  C   UNL     1      -0.798  -6.885  -2.795  0.00  0.00    +0.054 C 
ATOM     11  H   UNL     1       2.461  -7.101  -2.906  0.00  0.00    +0.142 HD
ENDROOT
BRANCH   9  12
ATOM     12  C   UNL     1       0.466  -5.801  -4.682  0.00  0.00    -0.025 A 
ATOM     13  C   UNL     1       0.686  -4.484  -4.325  0.00  0.00    +0.009 A 
ATOM     14  C   UNL     1       0.633  -3.487  -5.281  0.00  0.00    +0.050 A 
ATOM     15  C   UNL     1       0.360  -3.808  -6.601  0.00  0.00    +0.162 A 
ATOM     16  C   UNL     1       0.139  -5.134  -6.961  0.00  0.00    +0.162 A 
ATOM     17  C   UNL     1       0.198  -6.128  -5.998  0.00  0.00    +0.054 A 
BRANCH  16  18
ATOM     18  O   UNL     1      -0.129  -5.453  -8.255  0.00  0.00    -0.491 OA
ATOM     19  C   UNL     1      -0.345  -6.834  -8.551  0.00  0.00    +0.277 C 
ENDBRANCH  16  18
BRANCH  15  20
ATOM     20  O   UNL     1       0.308  -2.828  -7.543  0.00  0.00    -0.491 OA
ATOM     21  C   UNL     1       0.544  -1.490  -7.102  0.00  0.00    +0.277 C 
ENDBRANCH  15  20
ENDBRANCH   9  12
BRANCH   1  22
ATOM     22  S   UNL     1       1.777  -4.858  -0.034  0.00  0.00    -0.111 S 
BRANCH  22  23
ATOM     23  C   UNL     1       2.981  -4.536   1.285  0.00  0.00    +0.107 C 
BRANCH  23  28
ATOM     24  C   UNL     1       3.604   1.167   1.978  0.00  0.00    +0.044 C 
ATOM     25  C   UNL     1       3.441  -0.320   1.797  0.00  0.00    -0.050 A 
ATOM     26  C   UNL     1       2.482  -1.004   2.521  0.00  0.00    +0.003 A 
ATOM     27  C   UNL     1       2.333  -2.368   2.355  0.00  0.00    +0.005 A 
ATOM     28  C   UNL     1       3.143  -3.049   1.465  0.00  0.00    -0.037 A 
ATOM     29  C   UNL     1       4.101  -2.365   0.741  0.00  0.00    +0.005 A 
ATOM     30  C   UNL     1       4.248  -1.000   0.904  0.00  0.00    +0.003 A 
ENDBRANCH  23  28
ENDBRANCH  22  23
ENDBRANCH   1  22
TORSDOF 6
