REMARK  Name = ZINC39682503
REMARK  7 active torsions:
REMARK  status: ('A' for Active; 'I' for Inactive)
REMARK    1  A    between atoms: C_1  and  C_2
REMARK    2  A    between atoms: C_7  and  C_8
REMARK    3  A    between atoms: C_12  and  C_21
REMARK    4  A    between atoms: N_23  and  C_24
REMARK    5  A    between atoms: C_24  and  C_26
REMARK    6  A    between atoms: C_24  and  C_30
REMARK    7  A    between atoms: C_26  and  C_27
REMARK                            x       y       z     vdW  Elec       q    Type
REMARK                         _______ _______ _______ _____ _____    ______ ____
ROOT
ATOM      1  C   UNL     1       0.094   0.298   2.494  0.00  0.00    +0.247 C 
ATOM      2  O   UNL     1      -0.119   1.494   2.482  0.00  0.00    -0.270 OA
ATOM      3  N   UNL     1       0.267  -0.345   3.666  0.00  0.00    -0.296 N 
ATOM      4  C   UNL     1       0.633  -1.765   3.878  0.00  0.00    +0.121 C 
ATOM      5  C   UNL     1       1.612  -1.742   5.072  0.00  0.00    +0.100 C 
ATOM      6  C   UNL     1       1.278  -0.445   5.828  0.00  0.00    -0.004 C 
ATOM      7  C   UNL     1       0.140   0.211   5.034  0.00  0.00    +0.115 C 
ATOM      8  C   UNL     1       2.493   0.478   5.857  0.00  0.00    -0.010 C 
ATOM      9  C   UNL     1       2.154   1.735   6.662  0.00  0.00    -0.082 C 
ATOM     10  N   UNL     1       1.771   1.355   8.028  0.00  0.00    +0.379 N 
ATOM     11  C   UNL     1       0.548   0.544   7.997  0.00  0.00    -0.082 C 
ATOM     12  C   UNL     1       0.819  -0.763   7.248  0.00  0.00    -0.010 C 
ATOM     13  H   UNL     1       2.517   0.822   8.448  0.00  0.00    -0.086 HD
ATOM     14  H   UNL     1       1.607   2.188   8.573  0.00  0.00    -0.086 HD
ENDROOT
BRANCH   1  21
ATOM     15  C   UNL     1      -2.040   0.559   0.559  0.00  0.00    +0.044 C 
ATOM     16  C   UNL     1      -0.859  -0.335   0.281  0.00  0.00    -0.038 A 
ATOM     17  C   UNL     1      -0.786  -1.033  -0.907  0.00  0.00    +0.007 A 
ATOM     18  C   UNL     1       0.297  -1.854  -1.165  0.00  0.00    +0.038 A 
ATOM     19  C   UNL     1       1.315  -1.981  -0.233  0.00  0.00    +0.124 A 
ATOM     20  C   UNL     1       1.252  -1.287   0.960  0.00  0.00    +0.051 A 
ATOM     21  C   UNL     1       0.165  -0.453   1.222  0.00  0.00    +0.043 A 
ATOM     22  F   UNL     1       2.369  -2.785  -0.492  0.00  0.00    -0.205 F 
ENDBRANCH   1  21
BRANCH   5  23
ATOM     23  C   UNL     1       1.388  -2.941   5.958  0.00  0.00    +0.219 C 
ATOM     24  O   UNL     1       0.269  -3.384   6.107  0.00  0.00    -0.275 OA
ATOM     25  N   UNL     1       2.432  -3.520   6.584  0.00  0.00    -0.308 N 
ATOM     26  H   UNL     1       3.315  -3.123   6.524  0.00  0.00    +0.149 HD
BRANCH  25  27
ATOM     27  C   UNL     1       2.232  -4.750   7.356  0.00  0.00    +0.114 C 
BRANCH  27  28
ATOM     28  C   UNL     1       2.360  -5.942   6.442  0.00  0.00    -0.027 A 
ATOM     29  C   UNL     1       3.337  -5.962   5.465  0.00  0.00    +0.005 A 
ATOM     30  C   UNL     1       3.455  -7.055   4.627  0.00  0.00    +0.000 A 
ATOM     31  C   UNL     1       2.595  -8.129   4.768  0.00  0.00    +0.000 A 
ATOM     32  C   UNL     1       1.619  -8.109   5.746  0.00  0.00    +0.000 A 
ATOM     33  C   UNL     1       1.504  -7.017   6.586  0.00  0.00    +0.005 A 
ENDBRANCH  27  28
BRANCH  27  34
ATOM     34  C   UNL     1       3.289  -4.837   8.459  0.00  0.00    +0.152 C 
BRANCH  34  35
ATOM     35  C   UNL     1       3.072  -3.723   9.451  0.00  0.00    +0.358 C 
ATOM     36  O   UNL     1       2.094  -3.001   9.353  0.00  0.00    -0.246 OA
ATOM     37  O   UNL     1       3.875  -3.543  10.350  0.00  0.00    -0.246 OA
ENDBRANCH  34  35
ENDBRANCH  27  34
ENDBRANCH  25  27
ENDBRANCH   5  23
TORSDOF 6
