REMARK  Name = ZINC24543539
REMARK  5 active torsions:
REMARK  status: ('A' for Active; 'I' for Inactive)
REMARK    1  A    between atoms: C_4  and  N_7
REMARK    2  A    between atoms: C_10  and  C_24
REMARK    3  A    between atoms: N_14  and  N_15
REMARK    4  A    between atoms: C_16  and  C_17
REMARK    5  A    between atoms: C_24  and  C_25
REMARK                            x       y       z     vdW  Elec       q    Type
REMARK                         _______ _______ _______ _____ _____    ______ ____
ROOT
ATOM      1  N   UNL     1       3.623  -0.652  -0.036  0.00  0.00    -0.217 N 
ATOM      2  C   UNL     1       3.617  -1.971   0.053  0.00  0.00    +0.240 C 
ATOM      3  O   UNL     1       2.588  -2.606   0.147  0.00  0.00    -0.274 OA
ATOM      4  C   UNL     1       4.981  -2.642   0.029  0.00  0.00    +0.151 C 
ATOM      5  S   UNL     1       6.071  -1.167  -0.125  0.00  0.00    -0.075 S 
ATOM      6  C   UNL     1       4.789   0.077  -0.150  0.00  0.00    +0.190 C 
ATOM      7  N   UNL     1       4.925   1.383  -0.251  0.00  0.00    -0.126 NA
ENDROOT
BRANCH   1  11
ATOM      8  C   UNL     1      -0.016   1.379   0.011  0.00  0.00    +0.000 A 
ATOM      9  C   UNL     1       0.647   1.125   1.197  0.00  0.00    +0.002 A 
ATOM     10  C   UNL     1       1.854   0.453   1.185  0.00  0.00    +0.024 A 
ATOM     11  C   UNL     1       2.400   0.031  -0.021  0.00  0.00    +0.043 A 
ATOM     12  C   UNL     1       1.731   0.287  -1.210  0.00  0.00    +0.024 A 
ATOM     13  C   UNL     1       0.525   0.961  -1.191  0.00  0.00    +0.002 A 
ENDBRANCH   1  11
BRANCH   7  14
ATOM     14  N   UNL     1       6.101   1.904  -0.350  0.00  0.00    -0.155 NA
ATOM     15  C   UNL     1       6.236   3.198  -0.449  0.00  0.00    +0.144 C 
BRANCH  15  16
ATOM     16  C   UNL     1       7.578   3.792  -0.563  0.00  0.00    +0.013 A 
ATOM     17  C   UNL     1       7.727   5.179  -0.664  0.00  0.00    +0.011 A 
ATOM     18  C   UNL     1       8.988   5.727  -0.769  0.00  0.00    +0.001 A 
ATOM     19  C   UNL     1      10.105   4.910  -0.775  0.00  0.00    +0.001 A 
ATOM     20  C   UNL     1       9.967   3.537  -0.676  0.00  0.00    +0.020 A 
ATOM     21  C   UNL     1       8.712   2.972  -0.564  0.00  0.00    +0.050 A 
ATOM     22 CL   UNL     1       8.541   1.249  -0.432  0.00  0.00    -0.083 Cl
ENDBRANCH  15  16
ENDBRANCH   7  14
BRANCH   4  23
ATOM     23  C   UNL     1       5.123  -3.566  -1.181  0.00  0.00    +0.149 C 
BRANCH  23  24
ATOM     24  C   UNL     1       6.436  -4.302  -1.101  0.00  0.00    +0.358 C 
ATOM     25  O   UNL     1       7.188  -4.105  -0.162  0.00  0.00    -0.246 OA
ATOM     26  O   UNL     1       6.746  -5.094  -1.974  0.00  0.00    -0.246 OA
ENDBRANCH  23  24
ENDBRANCH   4  23
TORSDOF 5
