REMARK  Name = ZINC01082656
REMARK  11 active torsions:
REMARK  status: ('A' for Active; 'I' for Inactive)
REMARK    1  A    between atoms: C_1  and  C_2
REMARK    2  A    between atoms: C_2  and  O_3
REMARK    3  A    between atoms: O_3  and  C_4
REMARK    4  A    between atoms: C_4  and  C_6
REMARK    5  A    between atoms: C_7  and  N_28
REMARK    6  A    between atoms: C_17  and  C_19
REMARK    7  A    between atoms: C_19  and  C_21
REMARK    8  A    between atoms: C_19  and  C_23
REMARK    9  A    between atoms: C_23  and  O_25
REMARK   10  A    between atoms: O_25  and  C_26
REMARK   11  A    between atoms: C_26  and  C_27
REMARK                            x       y       z     vdW  Elec       q    Type
REMARK                         _______ _______ _______ _____ _____    ______ ____
ROOT
ATOM      1  C   UNL     1      -0.153   1.552  -2.469  0.00  0.00    +0.103 C 
ATOM      2  C   UNL     1       0.534   2.392  -3.285  0.00  0.00    +0.195 C 
ATOM      3  O   UNL     1       0.773   3.669  -2.949  0.00  0.00    -0.440 OA
ATOM      4  C   UNL     1       0.024   4.269  -1.992  0.00  0.00    +0.148 A 
ATOM      5  C   UNL     1      -0.705   3.518  -1.084  0.00  0.00    +0.007 A 
ATOM      6  C   UNL     1      -1.463   4.151  -0.115  0.00  0.00    +0.023 A 
ATOM      7  C   UNL     1      -1.495   5.532  -0.049  0.00  0.00    +0.019 A 
ATOM      8  C   UNL     1      -0.768   6.285  -0.954  0.00  0.00    +0.034 A 
ATOM      9  C   UNL     1      -0.010   5.658  -1.923  0.00  0.00    +0.061 A 
ATOM     10 BR   UNL     1       0.983   6.688  -3.160  0.00  0.00    -0.046 Br
ATOM     11 BR   UNL     1      -2.531   6.391   1.278  0.00  0.00    -0.050 Br
ATOM     12  C   UNL     1      -0.682   2.014  -1.140  0.00  0.00    +0.092 C 
ENDROOT
BRANCH   2  13
ATOM     13  N   UNL     1       0.996   1.923  -4.485  0.00  0.00    -0.329 N 
ATOM     14  H   UNL     1       1.572   2.478  -5.034  0.00  0.00    +0.145 HD
ATOM     15  H   UNL     1       0.746   1.035  -4.787  0.00  0.00    +0.145 HD
ENDBRANCH   2  13
BRANCH   1  16
ATOM     16  C   UNL     1      -0.373   0.228  -2.874  0.00  0.00    +0.341 C 
ATOM     17  O   UNL     1      -1.452  -0.097  -3.337  0.00  0.00    -0.245 OA
BRANCH  16  18
ATOM     18  O   UNL     1       0.612  -0.689  -2.751  0.00  0.00    -0.462 OA
BRANCH  18  20
ATOM     19  C   UNL     1       1.544  -2.908  -2.967  0.00  0.00    +0.048 C 
ATOM     20  C   UNL     1       0.318  -2.019  -3.183  0.00  0.00    +0.229 C 
ENDBRANCH  18  20
ENDBRANCH  16  18
ENDBRANCH   1  16
BRANCH  12  21
ATOM     21  C   UNL     1       0.217   1.479  -0.023  0.00  0.00    +0.212 C 
BRANCH  21  22
ATOM     22  C   UNL     1      -0.371   1.816   1.283  0.00  0.00    +0.078 C 
ATOM     23  N   UNL     1      -0.825   2.075   2.292  0.00  0.00    -0.196 NA
ENDBRANCH  21  22
BRANCH  21  24
ATOM     24  C   UNL     1       1.583   2.104  -0.135  0.00  0.00    +0.325 C 
ATOM     25  O   UNL     1       1.869   2.761  -1.108  0.00  0.00    -0.249 OA
BRANCH  24  26
ATOM     26  O   UNL     1       2.483   1.930   0.846  0.00  0.00    -0.464 OA
BRANCH  26  27
ATOM     27  C   UNL     1       3.779   2.561   0.671  0.00  0.00    +0.229 C 
ATOM     28  C   UNL     1       4.663   2.254   1.881  0.00  0.00    +0.048 C 
ENDBRANCH  26  27
ENDBRANCH  24  26
ENDBRANCH  21  24
ENDBRANCH  12  21
TORSDOF 9
