REMARK  Name = ZINC66120840
REMARK  6 active torsions:
REMARK  status: ('A' for Active; 'I' for Inactive)
REMARK    1  A    between atoms: C_1  and  C_2
REMARK    2  A    between atoms: C_11  and  C_14
REMARK    3  A    between atoms: C_14  and  N_15
REMARK    4  A    between atoms: C_22  and  C_25
REMARK    5  A    between atoms: C_25  and  C_26
REMARK    6  A    between atoms: C_26  and  C_27
REMARK                            x       y       z     vdW  Elec       q    Type
REMARK                         _______ _______ _______ _____ _____    ______ ____
ROOT
ATOM      1  N   UNL     1      -2.311  -7.683   4.224  0.00  0.00    -0.295 N 
ATOM      2  C   UNL     1      -2.664  -8.757   4.959  0.00  0.00    +0.302 C 
ATOM      3  O   UNL     1      -3.237  -8.605   6.021  0.00  0.00    -0.253 OA
ATOM      4  N   UNL     1      -2.383  -9.998   4.516  0.00  0.00    -0.285 N 
ATOM      5  C   UNL     1      -1.584 -10.196   3.299  0.00  0.00    +0.109 C 
ATOM      6  C   UNL     1      -2.360 -11.107   2.343  0.00  0.00    +0.019 C 
ATOM      7  C   UNL     1      -2.731 -12.403   3.068  0.00  0.00    +0.006 C 
ATOM      8  C   UNL     1      -3.631 -12.080   4.263  0.00  0.00    +0.007 C 
ATOM      9  C   UNL     1      -2.865 -11.180   5.245  0.00  0.00    +0.112 C 
ATOM     10  H   UNL     1      -1.924  -7.804   3.343  0.00  0.00    +0.151 HD
ENDROOT
BRANCH   1  11
ATOM     11  C   UNL     1      -2.512  -6.333   4.757  0.00  0.00    +0.142 C 
BRANCH  11  22
ATOM     12  C   UNL     1       1.421  -1.762  -2.598  0.00  0.00    +0.007 C 
ATOM     13  C   UNL     1       0.671  -1.595  -1.274  0.00  0.00    -0.011 C 
ATOM     14  C   UNL     1       1.484  -2.231  -0.144  0.00  0.00    +0.022 C 
ATOM     15  C   UNL     1       0.747  -2.031   1.184  0.00  0.00    +0.107 C 
ATOM     16  N   UNL     1      -0.619  -2.557   1.051  0.00  0.00    -0.317 N 
ATOM     17  C   UNL     1      -1.456  -2.080  -0.058  0.00  0.00    +0.107 C 
ATOM     18  C   UNL     1      -0.694  -2.279  -1.372  0.00  0.00    +0.022 C 
ATOM     19  C   UNL     1      -1.109  -3.490   1.958  0.00  0.00    +0.099 A 
ATOM     20  C   UNL     1      -2.439  -3.890   1.884  0.00  0.00    +0.042 A 
ATOM     21  C   UNL     1      -2.914  -4.819   2.792  0.00  0.00    +0.010 A 
ATOM     22  C   UNL     1      -2.038  -5.319   3.747  0.00  0.00    -0.014 A 
ATOM     23  C   UNL     1      -0.731  -4.879   3.762  0.00  0.00    +0.089 A 
ATOM     24  N   UNL     1      -0.304  -3.995   2.880  0.00  0.00    -0.349 N 
ATOM     25  H   UNL     1       0.621  -3.705   2.910  0.00  0.00    +0.167 HD
ENDBRANCH  11  22
ENDBRANCH   1  11
BRANCH   8  26
ATOM     26  C   UNL     1      -4.029 -13.379   4.968  0.00  0.00    +0.014 C 
BRANCH  26  27
ATOM     27  C   UNL     1      -5.027 -13.067   6.085  0.00  0.00    +0.096 C 
BRANCH  27  28
ATOM     28  C   UNL     1      -5.419 -14.346   6.779  0.00  0.00    +0.210 C 
ATOM     29  O   UNL     1      -4.947 -15.403   6.416  0.00  0.00    -0.276 OA
ATOM     30  N   UNL     1      -6.294 -14.316   7.804  0.00  0.00    -0.329 N 
ATOM     31  H   UNL     1      -6.671 -13.471   8.094  0.00  0.00    +0.145 HD
ATOM     32  H   UNL     1      -6.547 -15.139   8.250  0.00  0.00    +0.145 HD
ENDBRANCH  27  28
ENDBRANCH  26  27
ENDBRANCH   8  26
TORSDOF 5
