REMARK  Name = ZINC39734907
REMARK  10 active torsions:
REMARK  status: ('A' for Active; 'I' for Inactive)
REMARK    1  A    between atoms: C_1  and  C_2
REMARK    2  A    between atoms: C_3  and  C_16
REMARK    3  A    between atoms: C_4  and  C_15
REMARK    4  A    between atoms: N_5  and  C_7
REMARK    5  A    between atoms: C_16  and  N_17
REMARK    6  A    between atoms: N_17  and  C_18
REMARK    7  A    between atoms: N_17  and  C_19
REMARK    8  A    between atoms: C_19  and  C_21
REMARK    9  A    between atoms: C_19  and  C_27
REMARK   10  A    between atoms: C_27  and  C_29
REMARK                            x       y       z     vdW  Elec       q    Type
REMARK                         _______ _______ _______ _____ _____    ______ ____
ROOT
ATOM      1  C   UNL     1       1.387  -0.002  -4.606  0.00  0.00    +0.159 C 
ENDROOT
BRANCH   1   2
ATOM      2  C   UNL     1       2.783  -0.102  -5.166  0.00  0.00    -0.023 A 
ATOM      3  C   UNL     1       3.213   0.806  -6.116  0.00  0.00    +0.005 A 
ATOM      4  C   UNL     1       4.493   0.715  -6.630  0.00  0.00    +0.000 A 
ATOM      5  C   UNL     1       5.343  -0.284  -6.193  0.00  0.00    +0.000 A 
ATOM      6  C   UNL     1       4.913  -1.191  -5.242  0.00  0.00    +0.000 A 
ATOM      7  C   UNL     1       3.635  -1.097  -4.726  0.00  0.00    +0.005 A 
ENDBRANCH   1   2
BRANCH   1   8
ATOM      8  N   UNL     1       1.441  -0.082  -3.140  0.00  0.00    -0.288 NA
ATOM      9  C   UNL     1       2.415   0.874  -2.597  0.00  0.00    +0.106 C 
BRANCH   8  10
ATOM     10  C   UNL     1       0.111   0.131  -2.553  0.00  0.00    +0.124 C 
BRANCH  10  13
ATOM     11  C   UNL     1       0.784   2.156  -0.210  0.00  0.00    +0.068 C 
ATOM     12  C   UNL     1       0.450   0.696  -0.048  0.00  0.00    +0.065 A 
ATOM     13  C   UNL     1       0.153  -0.198  -1.083  0.00  0.00    +0.010 A 
ATOM     14  C   UNL     1      -0.089  -1.409  -0.530  0.00  0.00    +0.041 A 
ATOM     15  N   UNL     1       0.049  -1.286   0.807  0.00  0.00    -0.263 N 
ATOM     16  N   UNL     1       0.392   0.043   1.085  0.00  0.00    -0.176 NA
ATOM     17  C   UNL     1      -0.450  -2.669  -1.274  0.00  0.00    +0.065 C 
BRANCH  15  18
ATOM     18  C   UNL     1      -0.125  -2.356   1.793  0.00  0.00    +0.130 C 
ATOM     19  C   UNL     1       1.183  -2.543   2.579  0.00  0.00    +0.051 C 
ATOM     20  C   UNL     1       0.883  -3.446   3.809  0.00  0.00    +0.168 C 
ATOM     21  S   UNL     1      -0.747  -2.768   4.337  0.00  0.00    -0.029 S 
ATOM     22  O   UNL     1      -1.623  -3.847   4.630  0.00  0.00    -0.174 OA
ATOM     23  O   UNL     1      -0.533  -1.756   5.311  0.00  0.00    -0.174 OA
ATOM     24  C   UNL     1      -1.273  -1.980   2.761  0.00  0.00    +0.192 C 
ENDBRANCH  15  18
ENDBRANCH  10  13
ENDBRANCH   8  10
ENDBRANCH   1   8
BRANCH   1  25
ATOM     25  C   UNL     1       0.549  -1.135  -5.141  0.00  0.00    +0.183 C 
ATOM     26  O   UNL     1       0.274  -2.077  -4.424  0.00  0.00    -0.290 OA
BRANCH  25  27
ATOM     27  C   UNL     1       0.086  -1.103  -6.473  0.00  0.00    +0.025 C 
ATOM     28  C   UNL     1      -0.692  -2.052  -7.111  0.00  0.00    +0.006 A 
ATOM     29  C   UNL     1      -1.247  -3.284  -6.690  0.00  0.00    +0.010 A 
ATOM     30  C   UNL     1      -1.984  -4.027  -7.545  0.00  0.00    +0.001 A 
ATOM     31  C   UNL     1      -2.234  -3.628  -8.867  0.00  0.00    +0.002 A 
ATOM     32  C   UNL     1      -1.751  -2.471  -9.369  0.00  0.00    +0.026 A 
ATOM     33  C   UNL     1      -0.937  -1.601  -8.503  0.00  0.00    +0.043 A 
ATOM     34  N   UNL     1      -0.357  -0.455  -8.720  0.00  0.00    -0.380 N 
ATOM     35  C   UNL     1       0.329  -0.019  -7.500  0.00  0.00    +0.152 C 
ATOM     36  H   UNL     1      -0.379   0.035  -9.557  0.00  0.00    +0.160 HD
ENDBRANCH  25  27
ENDBRANCH   1  25
TORSDOF 7
