REMARK  Name = ZINC43632298
REMARK  3 active torsions:
REMARK  status: ('A' for Active; 'I' for Inactive)
REMARK    1  A    between atoms: C_5  and  C_7
REMARK    2  A    between atoms: C_7  and  C_8
REMARK    3  A    between atoms: C_22  and  C_24
REMARK                            x       y       z     vdW  Elec       q    Type
REMARK                         _______ _______ _______ _____ _____    ______ ____
ROOT
ATOM      1  C   UNL     1       1.600  -2.550   2.247  0.00  0.00    +0.220 C 
ATOM      2  O   UNL     1       1.614  -1.931   3.290  0.00  0.00    -0.275 OA
ATOM      3  N   UNL     1       1.599  -3.897   2.263  0.00  0.00    -0.301 N 
ATOM      4  C   UNL     1       1.589  -4.664   1.009  0.00  0.00    +0.109 C 
ATOM      5  C   UNL     1       2.766  -5.642   1.025  0.00  0.00    +0.042 C 
ATOM      6  C   UNL     1       2.691  -6.517   2.280  0.00  0.00    +0.082 C 
ATOM      7  C   UNL     1       2.747  -5.631   3.527  0.00  0.00    +0.027 C 
ATOM      8  C   UNL     1       1.615  -4.634   3.534  0.00  0.00    +0.113 C 
ATOM      9  C   UNL     1       4.075  -4.875   3.554  0.00  0.00    +0.008 C 
ATOM     10  C   UNL     1       5.228  -5.880   3.638  0.00  0.00    +0.019 C 
ATOM     11  C   UNL     1       5.199  -6.794   2.410  0.00  0.00    +0.108 C 
ATOM     12  N   UNL     1       3.857  -7.417   2.289  0.00  0.00    -0.298 N 
ATOM     13  C   UNL     1       3.700  -8.753   2.207  0.00  0.00    +0.220 C 
ATOM     14  O   UNL     1       2.586  -9.232   2.188  0.00  0.00    -0.275 OA
ENDROOT
BRANCH  13  15
ATOM     15  C   UNL     1       4.908  -9.651   2.137  0.00  0.00    +0.092 C 
ATOM     16  C   UNL     1       5.639  -9.422   0.813  0.00  0.00    +0.016 C 
ATOM     17  C   UNL     1       6.885 -10.310   0.755  0.00  0.00    +0.020 C 
ATOM     18  C   UNL     1       6.462 -11.780   0.826  0.00  0.00    +0.106 C 
ATOM     19  N   UNL     1       5.634 -11.978   2.024  0.00  0.00    -0.316 N 
ATOM     20  C   UNL     1       4.463 -11.114   2.224  0.00  0.00    +0.119 C 
ATOM     21  C   UNL     1       5.954 -12.963   2.951  0.00  0.00    +0.099 A 
ATOM     22  C   UNL     1       5.086 -13.225   4.006  0.00  0.00    +0.042 A 
ATOM     23  C   UNL     1       5.416 -14.208   4.921  0.00  0.00    +0.005 A 
ATOM     24  C   UNL     1       6.609 -14.898   4.750  0.00  0.00    +0.018 A 
ATOM     25  C   UNL     1       7.423 -14.587   3.680  0.00  0.00    +0.084 A 
ATOM     26  N   UNL     1       7.080 -13.647   2.819  0.00  0.00    -0.350 N 
ATOM     27  H   UNL     1       7.669 -13.451   2.074  0.00  0.00    +0.166 HD
ENDBRANCH  13  15
BRANCH   1  28
ATOM     28  C   UNL     1       1.584  -1.812   0.933  0.00  0.00    +0.134 C 
BRANCH  28  33
ATOM     29  C   UNL     1       0.401   1.735   1.458  0.00  0.00    +0.000 A 
ATOM     30  C   UNL     1       1.596   2.399   1.664  0.00  0.00    +0.003 A 
ATOM     31  C   UNL     1       2.788   1.701   1.634  0.00  0.00    +0.038 A 
ATOM     32  C   UNL     1       2.785   0.337   1.398  0.00  0.00    +0.127 A 
ATOM     33  C   UNL     1       1.588  -0.327   1.191  0.00  0.00    -0.003 A 
ATOM     34  C   UNL     1       0.397   0.373   1.222  0.00  0.00    +0.007 A 
ATOM     35  F   UNL     1       3.951  -0.347   1.368  0.00  0.00    -0.205 F 
ENDBRANCH  28  33
ENDBRANCH   1  28
TORSDOF 3
