REMARK  Name = ZINC36029142
REMARK  7 active torsions:
REMARK  status: ('A' for Active; 'I' for Inactive)
REMARK    1  A    between atoms: C_1  and  C_2
REMARK    2  A    between atoms: C_2  and  C_3
REMARK    3  A    between atoms: C_3  and  C_5
REMARK    4  A    between atoms: C_3  and  C_6
REMARK    5  A    between atoms: N_10  and  C_29
REMARK    6  A    between atoms: N_15  and  S_18
REMARK    7  A    between atoms: S_18  and  C_21
REMARK                            x       y       z     vdW  Elec       q    Type
REMARK                         _______ _______ _______ _____ _____    ______ ____
ROOT
ATOM      1  C   UNL     1       0.810  -2.104   1.153  0.00  0.00    +0.022 C 
ATOM      2  C   UNL     1       1.605  -2.554  -0.054  0.00  0.00    +0.201 C 
ATOM      3  O   UNL     1       1.401  -2.219  -1.201  0.00  0.00    -0.277 OA
ATOM      4  N   UNL     1       2.579  -3.390   0.362  0.00  0.00    -0.311 N 
ATOM      5  C   UNL     1       2.497  -3.551   1.817  0.00  0.00    +0.006 C 
ATOM      6  N   UNL     1       1.668  -2.432   2.318  0.00  0.00    +0.401 N 
ATOM      7  C   UNL     1       1.829  -4.881   2.163  0.00  0.00    +0.023 C 
ATOM      8  C   UNL     1       2.671  -6.033   1.607  0.00  0.00    +0.109 C 
ATOM      9  N   UNL     1       4.048  -5.892   2.100  0.00  0.00    -0.177 NA
ATOM     10  C   UNL     1       4.751  -4.621   1.881  0.00  0.00    +0.109 C 
ATOM     11  C   UNL     1       3.891  -3.481   2.436  0.00  0.00    +0.023 C 
ATOM     12  H   UNL     1       2.247  -1.645   2.567  0.00  0.00    -0.082 HD
ATOM     13  H   UNL     1       1.106  -2.726   3.103  0.00  0.00    -0.082 HD
ENDROOT
BRANCH   9  14
ATOM     14  S   UNL     1       4.793  -7.144   2.887  0.00  0.00    +0.061 S 
ATOM     15  O   UNL     1       5.809  -6.567   3.697  0.00  0.00    -0.153 OA
ATOM     16  O   UNL     1       3.760  -7.957   3.426  0.00  0.00    -0.153 OA
BRANCH  14  17
ATOM     17  C   UNL     1       5.613  -8.114   1.666  0.00  0.00    +0.107 A 
ATOM     18  C   UNL     1       4.947  -9.159   1.053  0.00  0.00    +0.030 A 
ATOM     19  C   UNL     1       5.589  -9.921   0.095  0.00  0.00    +0.023 A 
ATOM     20  C   UNL     1       6.898  -9.638  -0.251  0.00  0.00    +0.059 A 
ATOM     21  C   UNL     1       7.565  -8.591   0.362  0.00  0.00    +0.061 A 
ATOM     22  C   UNL     1       6.919  -7.826   1.317  0.00  0.00    +0.050 A 
ATOM     23 CL   UNL     1       9.207  -8.235  -0.071  0.00  0.00    -0.082 Cl
ATOM     24 CL   UNL     1       7.705 -10.595  -1.454  0.00  0.00    -0.082 Cl
ENDBRANCH  14  17
ENDBRANCH   9  14
BRANCH   4  25
ATOM     25  C   UNL     1       3.566  -4.037  -0.506  0.00  0.00    +0.075 C 
ATOM     26  C   UNL     1       4.593  -3.139  -1.199  0.00  0.00    +0.024 C 
ATOM     27  C   UNL     1       3.463  -3.776  -2.010  0.00  0.00    +0.024 C 
ENDBRANCH   4  25
BRANCH   1  28
ATOM     28  C   UNL     1       0.552  -0.598   1.090  0.00  0.00    -0.020 C 
ATOM     29  C   UNL     1      -0.187  -0.153   2.353  0.00  0.00    +0.006 C 
BRANCH  28  31
ATOM     30  C   UNL     1      -0.456   1.238  -0.273  0.00  0.00    +0.004 C 
ATOM     31  C   UNL     1      -0.302  -0.278  -0.139  0.00  0.00    -0.001 C 
ENDBRANCH  28  31
ENDBRANCH   1  28
TORSDOF 5
