REMARK  Name = ZINC46087814
REMARK  6 active torsions:
REMARK  status: ('A' for Active; 'I' for Inactive)
REMARK    1  A    between atoms: C_1  and  C_2
REMARK    2  A    between atoms: C_2  and  N_3
REMARK    3  A    between atoms: C_4  and  C_8
REMARK    4  A    between atoms: C_8  and  N_9
REMARK    5  A    between atoms: N_9  and  C_10
REMARK    6  A    between atoms: C_19  and  C_22
REMARK                            x       y       z     vdW  Elec       q    Type
REMARK                         _______ _______ _______ _____ _____    ______ ____
ROOT
ATOM      1  N   UNL     1      -2.134  -1.546  -2.021  0.00  0.00    -0.312 N 
ATOM      2  C   UNL     1      -2.710  -1.441  -0.679  0.00  0.00    +0.131 C 
ATOM      3  C   UNL     1      -2.332  -2.694  -2.773  0.00  0.00    +0.130 A 
ATOM      4  C   UNL     1      -3.378  -2.769  -3.689  0.00  0.00    +0.032 A 
ATOM      5  C   UNL     1      -3.535  -3.939  -4.415  0.00  0.00    +0.127 A 
ATOM      6  N   UNL     1      -2.684  -4.946  -4.217  0.00  0.00    -0.221 NA
ATOM      7  C   UNL     1      -1.706  -4.838  -3.341  0.00  0.00    +0.225 A 
ATOM      8  N   UNL     1      -1.521  -3.742  -2.634  0.00  0.00    -0.220 NA
ATOM      9  N   UNL     1      -4.563  -4.074  -5.335  0.00  0.00    -0.328 N 
ATOM     10  C   UNL     1      -5.296  -2.873  -5.763  0.00  0.00    +0.106 C 
ATOM     11  C   UNL     1      -5.612  -2.043  -4.512  0.00  0.00    +0.008 C 
ATOM     12  C   UNL     1      -4.298  -1.595  -3.870  0.00  0.00    +0.047 C 
ATOM     13  C   UNL     1      -6.438  -0.817  -4.906  0.00  0.00    +0.009 C 
ATOM     14  H   UNL     1      -4.795  -4.946  -5.691  0.00  0.00    +0.147 HD
ENDROOT
BRANCH   1  15
ATOM     15  C   UNL     1      -1.347  -0.438  -2.570  0.00  0.00    +0.161 C 
BRANCH  15  17
ATOM     16  N   UNL     1       1.145  -0.201  -3.042  0.00  0.00    -0.267 N 
ATOM     17  C   UNL     1       0.117  -0.687  -2.315  0.00  0.00    +0.056 A 
ATOM     18  C   UNL     1       0.637  -1.438  -1.316  0.00  0.00    +0.046 A 
ATOM     19  C   UNL     1       2.030  -1.409  -1.437  0.00  0.00    +0.134 A 
ATOM     20  N   UNL     1       2.335  -0.673  -2.475  0.00  0.00    -0.179 NA
BRANCH  16  22
ATOM     21  C   UNL     1       1.072  -0.195  -5.487  0.00  0.00    +0.029 C 
ATOM     22  C   UNL     1       1.034   0.663  -4.220  0.00  0.00    +0.140 C 
ENDBRANCH  16  22
ENDBRANCH  15  17
ENDBRANCH   1  15
TORSDOF 3
