REMARK  Name = ZINC02911055
REMARK  5 active torsions:
REMARK  status: ('A' for Active; 'I' for Inactive)
REMARK    1  A    between atoms: C_1  and  C_2
REMARK    2  A    between atoms: C_2  and  C_3
REMARK    3  A    between atoms: C_3  and  S_4
REMARK    4  A    between atoms: S_4  and  C_5
REMARK    5  A    between atoms: C_18  and  C_21
REMARK                            x       y       z     vdW  Elec       q    Type
REMARK                         _______ _______ _______ _____ _____    ______ ____
ROOT
ATOM      1  C   UNL     1       0.062   1.126   2.742  0.00  0.00    +0.212 A 
ATOM      2  N   UNL     1      -0.189   1.330   4.032  0.00  0.00    -0.184 NA
ATOM      3  C   UNL     1       0.550   0.715   4.940  0.00  0.00    +0.248 A 
ATOM      4  C   UNL     1       1.589  -0.139   4.505  0.00  0.00    +0.156 A 
ATOM      5  N   UNL     1       1.784  -0.302   3.206  0.00  0.00    -0.141 NA
ATOM      6  N   UNL     1       1.035   0.311   2.355  0.00  0.00    -0.122 NA
ATOM      7  C   UNL     1       2.434  -0.827   5.503  0.00  0.00    +0.028 A 
ATOM      8  C   UNL     1       2.723  -2.182   5.401  0.00  0.00    +0.012 A 
ATOM      9  C   UNL     1       3.544  -2.781   6.337  0.00  0.00    +0.001 A 
ATOM     10  C   UNL     1       4.079  -2.039   7.376  0.00  0.00    +0.002 A 
ATOM     11  C   UNL     1       3.794  -0.691   7.494  0.00  0.00    +0.024 A 
ATOM     12  C   UNL     1       2.970  -0.078   6.567  0.00  0.00    +0.039 A 
ATOM     13  N   UNL     1       2.649   1.279   6.663  0.00  0.00    -0.305 N 
ATOM     14  C   UNL     1       1.278   1.655   6.994  0.00  0.00    +0.295 C 
ATOM     15  O   UNL     1       0.328   0.886   6.265  0.00  0.00    -0.449 OA
ATOM     16  H   UNL     1       3.325   1.958   6.513  0.00  0.00    +0.150 HD
ENDROOT
BRANCH  14  17
ATOM     17  C   UNL     1       1.054   1.441   8.469  0.00  0.00    +0.029 A 
ATOM     18  C   UNL     1       0.458   0.276   8.915  0.00  0.00    +0.059 A 
ATOM     19  C   UNL     1       0.256   0.074  10.270  0.00  0.00    +0.167 A 
ATOM     20  C   UNL     1       0.645   1.053  11.182  0.00  0.00    +0.167 A 
ATOM     21  C   UNL     1       1.237   2.221  10.729  0.00  0.00    +0.065 A 
ATOM     22  C   UNL     1       1.440   2.413   9.374  0.00  0.00    +0.030 A 
ATOM     23 BR   UNL     1       2.248   4.008   8.758  0.00  0.00    -0.050 Br
ATOM     24  O   UNL     1       0.337   0.624  12.440  0.00  0.00    -0.453 OA
ATOM     25  C   UNL     1      -0.613  -0.443  12.261  0.00  0.00    +0.466 C 
ATOM     26  O   UNL     1      -0.296  -0.968  10.958  0.00  0.00    -0.453 OA
ENDBRANCH  14  17
BRANCH   1  27
ATOM     27  S   UNL     1      -0.919   1.944   1.528  0.00  0.00    -0.084 S 
BRANCH  27  28
ATOM     28  C   UNL     1      -0.147   1.307   0.020  0.00  0.00    +0.077 C 
BRANCH  28  30
ATOM     29  C   UNL     1      -0.201   1.358  -2.478  0.00  0.00    +0.004 C 
ATOM     30  C   UNL     1      -0.853   1.897  -1.203  0.00  0.00    +0.008 C 
ENDBRANCH  28  30
ENDBRANCH  27  28
ENDBRANCH   1  27
TORSDOF 4
