REMARK  Name = ZINC10439321
REMARK  10 active torsions:
REMARK  status: ('A' for Active; 'I' for Inactive)
REMARK    1  A    between atoms: C_1  and  C_2
REMARK    2  A    between atoms: N_13  and  C_25
REMARK    3  A    between atoms: C_14  and  S_16
REMARK    4  A    between atoms: S_16  and  C_17
REMARK    5  A    between atoms: C_17  and  C_18
REMARK    6  A    between atoms: N_20  and  C_21
REMARK    7  A    between atoms: C_21  and  C_22
REMARK    8  A    between atoms: C_21  and  C_23
REMARK    9  A    between atoms: C_21  and  C_24
REMARK   10  A    between atoms: C_25  and  C_26
REMARK                            x       y       z     vdW  Elec       q    Type
REMARK                         _______ _______ _______ _____ _____    ______ ____
ROOT
ATOM      1  C   UNL     1      -0.201   6.626   9.538  0.00  0.00    +0.008 C 
ATOM      2  C   UNL     1      -0.595   5.844   8.283  0.00  0.00    -0.009 C 
ATOM      3  C   UNL     1       0.560   4.929   7.865  0.00  0.00    +0.008 C 
ATOM      4  C   UNL     1       0.277   4.334   6.485  0.00  0.00    +0.037 C 
ATOM      5  C   UNL     1      -1.105   3.685   6.503  0.00  0.00    -0.023 A 
ATOM      6  C   UNL     1      -2.004   4.005   7.456  0.00  0.00    -0.004 A 
ATOM      7  S   UNL     1      -3.435   3.026   7.085  0.00  0.00    -0.073 S 
ATOM      8  C   UNL     1      -2.818   2.186   5.648  0.00  0.00    +0.117 A 
ATOM      9  C   UNL     1      -1.518   2.698   5.504  0.00  0.00    +0.076 A 
ATOM     10  C   UNL     1      -0.764   2.183   4.402  0.00  0.00    +0.263 A 
ATOM     11  O   UNL     1       0.376   2.566   4.201  0.00  0.00    -0.267 OA
ATOM     12  N   UNL     1      -1.332   1.274   3.588  0.00  0.00    -0.285 N 
ATOM     13  C   UNL     1      -2.605   0.831   3.801  0.00  0.00    +0.173 A 
ATOM     14  N   UNL     1      -3.320   1.285   4.811  0.00  0.00    -0.216 NA
ATOM     15  C   UNL     1      -1.827   4.978   8.581  0.00  0.00    +0.046 C 
ENDROOT
BRANCH  13  16
ATOM     16  S   UNL     1      -3.303  -0.365   2.712  0.00  0.00    -0.078 S 
BRANCH  16  17
ATOM     17  C   UNL     1      -4.938  -0.558   3.463  0.00  0.00    +0.173 C 
BRANCH  17  18
ATOM     18  C   UNL     1      -5.737  -1.565   2.675  0.00  0.00    +0.224 C 
ATOM     19  O   UNL     1      -5.248  -2.099   1.702  0.00  0.00    -0.275 OA
ATOM     20  N   UNL     1      -6.994  -1.871   3.052  0.00  0.00    -0.310 N 
ATOM     21  H   UNL     1      -7.385  -1.444   3.830  0.00  0.00    +0.149 HD
BRANCH  20  22
ATOM     22  C   UNL     1      -7.771  -2.849   2.287  0.00  0.00    +0.026 C 
ATOM     23  C   UNL     1      -7.044  -4.196   2.294  0.00  0.00    +0.031 C 
ATOM     24  C   UNL     1      -9.153  -3.012   2.921  0.00  0.00    +0.031 C 
ATOM     25  C   UNL     1      -7.926  -2.362   0.845  0.00  0.00    +0.031 C 
ENDBRANCH  20  22
ENDBRANCH  17  18
ENDBRANCH  16  17
ENDBRANCH  13  16
BRANCH  12  26
ATOM     26  C   UNL     1      -0.568   0.746   2.455  0.00  0.00    +0.159 C 
BRANCH  26  27
ATOM     27  C   UNL     1      -0.810   1.621   1.224  0.00  0.00    +0.138 C 
ATOM     28  C   UNL     1      -0.013   1.086   0.008  0.00  0.00    +0.035 C 
ATOM     29  C   UNL     1      -0.833   1.634  -1.185  0.00  0.00    +0.031 C 
ATOM     30  C   UNL     1      -2.223   1.924  -0.587  0.00  0.00    +0.160 C 
ATOM     31  O   UNL     1      -2.186   1.524   0.793  0.00  0.00    -0.375 OA
ENDBRANCH  26  27
ENDBRANCH  12  26
TORSDOF 6
