REMARK  Name = ZINC40302259
REMARK  3 active torsions:
REMARK  status: ('A' for Active; 'I' for Inactive)
REMARK    1  A    between atoms: C_5  and  N_7
REMARK    2  A    between atoms: C_8  and  C_10
REMARK    3  A    between atoms: C_12  and  N_18
REMARK                            x       y       z     vdW  Elec       q    Type
REMARK                         _______ _______ _______ _____ _____    ______ ____
ROOT
ATOM      1  N   UNL     1       1.237  -2.079  -0.022  0.00  0.00    -0.281 N 
ATOM      2  C   UNL     1       0.087  -2.772   0.087  0.00  0.00    +0.248 C 
ATOM      3  O   UNL     1      -0.978  -2.185   0.102  0.00  0.00    -0.270 OA
ATOM      4  H   UNL     1       2.082  -2.550  -0.100  0.00  0.00    +0.155 HD
ENDROOT
BRANCH   2   5
ATOM      5  C   UNL     1       0.119  -4.246   0.189  0.00  0.00    +0.040 A 
ATOM      6  C   UNL     1      -1.072  -4.966   0.297  0.00  0.00    +0.037 A 
ATOM      7  C   UNL     1      -1.035  -6.348   0.392  0.00  0.00    +0.045 A 
ATOM      8  C   UNL     1       0.186  -7.014   0.381  0.00  0.00    +0.080 A 
ATOM      9  C   UNL     1       1.368  -6.300   0.274  0.00  0.00    +0.062 A 
ATOM     10  C   UNL     1       1.340  -4.923   0.172  0.00  0.00    +0.034 A 
ATOM     11 CL   UNL     1       2.888  -7.138   0.261  0.00  0.00    -0.082 Cl
ATOM     12 CL   UNL     1       0.230  -8.745   0.500  0.00  0.00    -0.080 Cl
BRANCH   7  13
ATOM     13  N   UNL     1      -2.225  -7.073   0.501  0.00  0.00    -0.357 N 
ATOM     14  H   UNL     1      -3.077  -6.609   0.509  0.00  0.00    +0.142 HD
ATOM     15  H   UNL     1      -2.199  -8.040   0.568  0.00  0.00    +0.142 HD
ENDBRANCH   7  13
ENDBRANCH   2   5
BRANCH   1  20
ATOM     16  C   UNL     1       0.136   1.378  -0.615  0.00  0.00    +0.002 A 
ATOM     17  C   UNL     1       1.168   2.086  -0.027  0.00  0.00    +0.001 A 
ATOM     18  C   UNL     1       2.224   1.415   0.562  0.00  0.00    +0.016 A 
ATOM     19  C   UNL     1       2.250   0.033   0.565  0.00  0.00    +0.035 A 
ATOM     20  C   UNL     1       1.214  -0.681  -0.024  0.00  0.00    +0.047 A 
ATOM     21  C   UNL     1       0.155  -0.003  -0.614  0.00  0.00    +0.024 A 
ATOM     22  I   UNL     1       3.851  -0.983   1.456  0.00  0.00    -0.042 I 
ENDBRANCH   1  20
TORSDOF 3
