REMARK  Name = ZINC61594933
REMARK  9 active torsions:
REMARK  status: ('A' for Active; 'I' for Inactive)
REMARK    1  A    between atoms: C_1  and  C_2
REMARK    2  A    between atoms: C_2  and  C_3
REMARK    3  A    between atoms: C_3  and  N_4
REMARK    4  A    between atoms: C_10  and  S_11
REMARK    5  A    between atoms: S_11  and  C_12
REMARK    6  A    between atoms: C_12  and  C_14
REMARK    7  A    between atoms: C_12  and  C_20
REMARK    8  A    between atoms: C_20  and  C_22
REMARK    9  A    between atoms: C_20  and  N_23
REMARK                            x       y       z     vdW  Elec       q    Type
REMARK                         _______ _______ _______ _____ _____    ______ ____
ROOT
ATOM      1  C   UNL     1      -2.429  -3.849  -3.017  0.00  0.00    +0.076 C 
ENDROOT
BRANCH   1   2
ATOM      2  C   UNL     1      -3.748  -3.630  -3.714  0.00  0.00    +0.003 A 
ATOM      3  C   UNL     1      -4.988  -4.024  -3.336  0.00  0.00    +0.013 A 
ATOM      4  C   UNL     1      -6.066  -3.709  -4.141  0.00  0.00    +0.023 A 
ATOM      5  C   UNL     1      -5.851  -3.013  -5.286  0.00  0.00    +0.055 A 
ATOM      6  S   UNL     1      -4.081  -2.778  -5.246  0.00  0.00    -0.085 S 
ATOM      7 BR   UNL     1      -7.100  -2.437  -6.583  0.00  0.00    -0.043 Br
ENDBRANCH   1   2
BRANCH   1   8
ATOM      8  C   UNL     1      -1.491  -4.634  -3.936  0.00  0.00    -0.060 C 
ATOM      9  C   UNL     1      -0.195  -4.952  -3.189  0.00  0.00    -0.013 C 
BRANCH   8  10
ATOM     10  N   UNL     1      -2.141  -5.886  -4.346  0.00  0.00    +0.381 N 
ATOM     11  H   UNL     1      -2.996  -5.676  -4.838  0.00  0.00    -0.090 HD
ATOM     12  H   UNL     1      -1.522  -6.403  -4.952  0.00  0.00    -0.090 HD
ATOM     13  H   UNL     1      -2.351  -6.439  -3.528  0.00  0.00    -0.090 HD
ENDBRANCH   8  10
ENDBRANCH   1   8
BRANCH   1  14
ATOM     14  S   UNL     1      -1.683  -2.244  -2.618  0.00  0.00    -0.079 S 
BRANCH  14  21
ATOM     15  N   UNL     1      -2.552  -0.390  -0.712  0.00  0.00    -0.271 N 
ATOM     16  C   UNL     1      -3.587  -0.204   0.131  0.00  0.00    +0.345 A 
ATOM     17  O   UNL     1      -3.739   0.738   0.888  0.00  0.00    -0.245 OA
ATOM     18  N   UNL     1      -4.425  -1.251  -0.017  0.00  0.00    -0.226 N 
ATOM     19  H   UNL     1      -5.258  -1.391   0.460  0.00  0.00    +0.194 HD
ATOM     20  N   UNL     1      -3.871  -2.098  -0.986  0.00  0.00    -0.145 NA
ATOM     21  C   UNL     1      -2.756  -1.567  -1.396  0.00  0.00    +0.193 A 
BRANCH  15  22
ATOM     22  C   UNL     1      -1.408   0.510  -0.876  0.00  0.00    +0.129 C 
BRANCH  22  24
ATOM     23  C   UNL     1      -0.529   2.484  -2.131  0.00  0.00    +0.005 C 
ATOM     24  C   UNL     1      -1.724   1.544  -1.960  0.00  0.00    +0.018 C 
ENDBRANCH  22  24
ENDBRANCH  15  22
ENDBRANCH  14  21
ENDBRANCH   1  14
TORSDOF 7
