REMARK  Name = ZINC67244671
REMARK  8 active torsions:
REMARK  status: ('A' for Active; 'I' for Inactive)
REMARK    1  A    between atoms: C_1  and  C_2
REMARK    2  A    between atoms: C_4  and  O_28
REMARK    3  A    between atoms: C_5  and  C_25
REMARK    4  A    between atoms: C_7  and  S_8
REMARK    5  A    between atoms: S_8  and  N_11
REMARK    6  A    between atoms: C_13  and  N_22
REMARK    7  A    between atoms: N_22  and  C_23
REMARK    8  A    between atoms: N_22  and  C_24
REMARK                            x       y       z     vdW  Elec       q    Type
REMARK                         _______ _______ _______ _____ _____    ______ ____
ROOT
ATOM      1  S   UNL     1       0.145   0.387   2.696  0.00  0.00    +0.075 S 
ATOM      2  O   UNL     1       0.397  -0.981   2.987  0.00  0.00    -0.150 OA
ATOM      3  O   UNL     1      -0.318   0.822   1.425  0.00  0.00    -0.150 OA
ENDROOT
BRANCH   1   4
ATOM      4  N   UNL     1       1.557   1.201   2.990  0.00  0.00    -0.204 N 
ATOM      5  C   UNL     1       2.739   0.488   3.493  0.00  0.00    +0.117 C 
ATOM      6  C   UNL     1       3.348   1.329   4.622  0.00  0.00    -0.046 C 
ATOM      7  C   UNL     1       3.816   2.665   4.046  0.00  0.00    +0.023 C 
ATOM      8  C   UNL     1       2.710   3.315   3.256  0.00  0.00    -0.026 A 
ATOM      9  C   UNL     1       1.645   2.578   2.758  0.00  0.00    +0.054 A 
ATOM     10  C   UNL     1       0.645   3.206   2.024  0.00  0.00    +0.025 A 
ATOM     11  C   UNL     1       0.712   4.565   1.786  0.00  0.00    +0.002 A 
ATOM     12  C   UNL     1       1.774   5.299   2.280  0.00  0.00    +0.000 A 
ATOM     13  C   UNL     1       2.767   4.678   3.020  0.00  0.00    +0.005 A 
BRANCH   6  14
ATOM     14  N   UNL     1       4.491   0.615   5.206  0.00  0.00    +0.379 N 
ATOM     15  C   UNL     1       5.073   1.422   6.287  0.00  0.00    -0.096 C 
ATOM     16  C   UNL     1       4.040  -0.674   5.746  0.00  0.00    -0.096 C 
ATOM     17  H   UNL     1       5.188   0.456   4.494  0.00  0.00    -0.082 HD
ENDBRANCH   6  14
ENDBRANCH   1   4
BRANCH   1  24
ATOM     18  C   UNL     1       0.354  -0.134   5.662  0.00  0.00    +0.046 C 
ATOM     19  C   UNL     1      -0.852   0.655   5.223  0.00  0.00    -0.020 A 
ATOM     20  C   UNL     1      -1.766   1.091   6.162  0.00  0.00    +0.051 A 
ATOM     21  C   UNL     1      -2.878   1.818   5.765  0.00  0.00    +0.131 A 
ATOM     22  C   UNL     1      -3.070   2.108   4.405  0.00  0.00    +0.106 A 
ATOM     23  C   UNL     1      -2.135   1.661   3.466  0.00  0.00    +0.048 A 
ATOM     24  C   UNL     1      -1.034   0.944   3.880  0.00  0.00    +0.113 A 
BRANCH  22  25
ATOM     25  C   UNL     1      -4.246   2.878   3.971  0.00  0.00    +0.390 C 
ATOM     26  O   UNL     1      -4.409   3.129   2.785  0.00  0.00    -0.240 OA
ATOM     27  O   UNL     1      -5.061   3.267   4.796  0.00  0.00    -0.240 OA
ENDBRANCH  22  25
BRANCH  21  28
ATOM     28  O   UNL     1      -3.777   2.245   6.686  0.00  0.00    -0.506 OA
ATOM     29  H   UNL     1      -3.582   3.120   7.050  0.00  0.00    +0.292 HD
ENDBRANCH  21  28
ENDBRANCH   1  24
TORSDOF 5
