REMARK  Name = ZINC38673646
REMARK  7 active torsions:
REMARK  status: ('A' for Active; 'I' for Inactive)
REMARK    1  A    between atoms: C_1  and  O_2
REMARK    2  A    between atoms: O_2  and  C_3
REMARK    3  A    between atoms: C_12  and  C_14
REMARK    4  A    between atoms: N_16  and  C_17
REMARK    5  A    between atoms: C_17  and  C_18
REMARK    6  A    between atoms: C_18  and  C_20
REMARK    7  A    between atoms: C_18  and  N_25
REMARK                            x       y       z     vdW  Elec       q    Type
REMARK                         _______ _______ _______ _____ _____    ______ ____
ROOT
ATOM      1  C   UNL     1       2.814  -8.505   1.268  0.00  0.00    +0.251 C 
ATOM      2  O   UNL     1       2.352  -7.676   2.029  0.00  0.00    -0.270 OA
ATOM      3  N   UNL     1       2.123  -8.871   0.170  0.00  0.00    -0.312 N 
ATOM      4  H   UNL     1       2.491  -9.531  -0.437  0.00  0.00    +0.149 HD
ENDROOT
BRANCH   1  14
ATOM      5  C   UNL     1       7.932 -10.742   2.020  0.00  0.00    +0.163 A 
ATOM      6  C   UNL     1       8.598 -10.571   3.221  0.00  0.00    +0.049 A 
ATOM      7  C   UNL     1       8.050  -9.786   4.226  0.00  0.00    +0.004 A 
ATOM      8  C   UNL     1       6.840  -9.179   4.052  0.00  0.00    +0.012 A 
ATOM      9  C   UNL     1       6.133  -9.357   2.853  0.00  0.00    +0.022 A 
ATOM     10  C   UNL     1       6.702 -10.121   1.818  0.00  0.00    +0.180 A 
ATOM     11  O   UNL     1       6.063 -10.237   0.628  0.00  0.00    -0.418 OA
ATOM     12  C   UNL     1       4.716 -10.114   0.642  0.00  0.00    +0.350 A 
ATOM     13  O   UNL     1       4.013 -10.812  -0.066  0.00  0.00    -0.244 OA
ATOM     14  C   UNL     1       4.128  -9.108   1.545  0.00  0.00    +0.122 A 
ATOM     15  C   UNL     1       4.859  -8.760   2.671  0.00  0.00    +0.032 A 
BRANCH   5  17
ATOM     16  C   UNL     1       9.743 -12.114   1.319  0.00  0.00    +0.277 C 
ATOM     17  O   UNL     1       8.479 -11.508   1.040  0.00  0.00    -0.491 OA
ENDBRANCH   5  17
ENDBRANCH   1  14
BRANCH   3  18
ATOM     18  C   UNL     1       0.815  -8.271  -0.106  0.00  0.00    +0.094 C 
BRANCH  18  19
ATOM     19  C   UNL     1       0.301  -8.767  -1.459  0.00  0.00    -0.020 C 
BRANCH  19  20
ATOM     20  N   UNL     1      -0.978  -8.114  -1.766  0.00  0.00    +0.385 N 
ATOM     21  C   UNL     1      -1.502  -8.670  -3.029  0.00  0.00    -0.078 C 
ATOM     22  C   UNL     1      -2.999  -8.491  -3.040  0.00  0.00    -0.019 C 
ATOM     23  C   UNL     1      -3.409  -7.218  -3.803  0.00  0.00    -0.002 C 
ATOM     24  C   UNL     1      -2.465  -6.038  -3.495  0.00  0.00    -0.002 C 
ATOM     25  C   UNL     1      -2.095  -5.964  -2.036  0.00  0.00    -0.019 C 
ATOM     26  C   UNL     1      -0.777  -6.733  -1.811  0.00  0.00    -0.078 C 
ATOM     27  H   UNL     1      -1.633  -8.322  -1.027  0.00  0.00    -0.081 HD
ENDBRANCH  19  20
BRANCH  19  28
ATOM     28  C   UNL     1       0.103 -10.260  -1.404  0.00  0.00    -0.052 A 
ATOM     29  C   UNL     1       1.053 -11.114  -1.931  0.00  0.00    +0.009 A 
ATOM     30  C   UNL     1       0.844 -12.451  -1.865  0.00  0.00    +0.045 A 
ATOM     31  S   UNL     1      -0.736 -12.538  -1.039  0.00  0.00    -0.105 S 
ATOM     32  C   UNL     1      -1.008 -10.786  -0.832  0.00  0.00    +0.047 A 
ENDBRANCH  19  28
ENDBRANCH  18  19
ENDBRANCH   3  18
TORSDOF 6
