REMARK  Name = ZINC63490349
REMARK  8 active torsions:
REMARK  status: ('A' for Active; 'I' for Inactive)
REMARK    1  A    between atoms: C_7  and  C_10
REMARK    2  A    between atoms: C_10  and  C_11
REMARK    3  A    between atoms: C_11  and  N_12
REMARK    4  A    between atoms: C_13  and  C_15
REMARK    5  A    between atoms: C_15  and  C_16
REMARK    6  A    between atoms: C_16  and  C_17
REMARK    7  A    between atoms: N_26  and  C_27
REMARK    8  A    between atoms: C_27  and  C_28
REMARK                            x       y       z     vdW  Elec       q    Type
REMARK                         _______ _______ _______ _____ _____    ______ ____
ROOT
ATOM      1  C   UNL     1      -1.986  -7.025  -4.059  0.00  0.00    +0.051 C 
ENDROOT
BRANCH   1   2
ATOM      2  C   UNL     1      -2.941  -8.220  -4.058  0.00  0.00    +0.160 C 
ATOM      3  N   UNL     1      -2.343  -9.346  -3.330  0.00  0.00    -0.323 N 
ATOM      4  C   UNL     1      -2.223 -10.407  -4.237  0.00  0.00    +0.067 A 
ATOM      5  C   UNL     1      -1.725 -11.694  -4.071  0.00  0.00    +0.028 A 
ATOM      6  C   UNL     1      -1.728 -12.551  -5.162  0.00  0.00    +0.019 A 
ATOM      7  C   UNL     1      -2.222 -12.102  -6.370  0.00  0.00    +0.084 A 
ATOM      8  N   UNL     1      -2.689 -10.876  -6.500  0.00  0.00    -0.348 N 
ATOM      9  C   UNL     1      -2.707 -10.020  -5.486  0.00  0.00    +0.122 A 
ATOM     10  N   UNL     1      -3.156  -8.698  -5.428  0.00  0.00    -0.292 N 
ATOM     11  H   UNL     1      -2.079  -9.354  -2.397  0.00  0.00    +0.148 HD
ATOM     12  H   UNL     1      -3.029 -10.591  -7.363  0.00  0.00    +0.167 HD
BRANCH  10  13
ATOM     13  C   UNL     1      -3.736  -7.930  -6.533  0.00  0.00    +0.150 C 
BRANCH  13  14
ATOM     14  C   UNL     1      -2.638  -7.211  -7.274  0.00  0.00    +0.007 A 
ATOM     15  C   UNL     1      -1.907  -7.632  -8.335  0.00  0.00    +0.013 A 
ATOM     16  C   UNL     1      -0.941  -6.793  -8.859  0.00  0.00    +0.008 A 
ATOM     17  C   UNL     1      -0.754  -5.574  -8.296  0.00  0.00    +0.045 A 
ATOM     18  S   UNL     1      -1.969  -5.580  -6.988  0.00  0.00    -0.100 S 
ENDBRANCH  13  14
ENDBRANCH  10  13
ENDBRANCH   1   2
BRANCH   1  19
ATOM     19  C   UNL     1      -1.752  -6.557  -2.622  0.00  0.00    +0.099 C 
BRANCH  19  21
ATOM     20  N   UNL     1      -0.458  -4.798  -1.460  0.00  0.00    -0.315 N 
ATOM     21  C   UNL     1      -0.811  -5.380  -2.623  0.00  0.00    +0.213 C 
ATOM     22  O   UNL     1      -0.371  -4.957  -3.671  0.00  0.00    -0.276 OA
ATOM     23  H   UNL     1      -0.810  -5.136  -0.622  0.00  0.00    +0.149 HD
BRANCH  20  24
ATOM     24  C   UNL     1       0.457  -3.653  -1.462  0.00  0.00    +0.108 C 
BRANCH  24  25
ATOM     25  C   UNL     1       0.691  -3.186  -0.024  0.00  0.00    +0.052 C 
BRANCH  25  32
ATOM     26  C   UNL     1      -0.016   1.348   0.009  0.00  0.00    +0.001 A 
ATOM     27  C   UNL     1       1.166   2.101   0.002  0.00  0.00    +0.002 A 
ATOM     28  C   UNL     1       2.391   1.535  -0.013  0.00  0.00    +0.026 A 
ATOM     29  C   UNL     1       2.529   0.120  -0.022  0.00  0.00    +0.043 A 
ATOM     30  N   UNL     1       3.587  -0.654  -0.037  0.00  0.00    -0.380 N 
ATOM     31  C   UNL     1       3.143  -2.053  -0.041  0.00  0.00    +0.144 C 
ATOM     32  C   UNL     1       1.631  -2.008  -0.025  0.00  0.00    -0.040 C 
ATOM     33  C   UNL     1       1.295  -0.698  -0.014  0.00  0.00    -0.001 A 
ATOM     34  C   UNL     1       0.002  -0.004   0.002  0.00  0.00    +0.010 A 
ATOM     35  H   UNL     1       4.509  -0.353  -0.045  0.00  0.00    +0.160 HD
ENDBRANCH  25  32
ENDBRANCH  24  25
ENDBRANCH  20  24
ENDBRANCH  19  21
ENDBRANCH   1  19
TORSDOF 8
