REMARK  Name = ZINC04575599
REMARK  9 active torsions:
REMARK  status: ('A' for Active; 'I' for Inactive)
REMARK    1  A    between atoms: C_1  and  C_2
REMARK    2  A    between atoms: C_2  and  N_61
REMARK    3  A    between atoms: C_6  and  C_8
REMARK    4  A    between atoms: C_8  and  N_9
REMARK    5  A    between atoms: C_10  and  C_12
REMARK    6  A    between atoms: C_12  and  O_31
REMARK    7  A    between atoms: N_22  and  C_23
REMARK    8  A    between atoms: C_26  and  C_30
REMARK    9  A    between atoms: C_27  and  C_29
REMARK                            x       y       z     vdW  Elec       q    Type
REMARK                         _______ _______ _______ _____ _____    ______ ____
ROOT
ATOM      1  C   UNL     1       3.825   2.179  -0.458  0.00  0.00    +0.247 C 
ATOM      2  C   UNL     1       2.511   1.449  -0.306  0.00  0.00    +0.033 A 
ATOM      3  C   UNL     1       2.398   0.110  -0.604  0.00  0.00    +0.010 A 
ATOM      4  C   UNL     1       1.178  -0.526  -0.453  0.00  0.00    +0.001 A 
ATOM      5  C   UNL     1       0.078   0.183  -0.006  0.00  0.00    +0.002 A 
ATOM      6  C   UNL     1       0.188   1.527   0.292  0.00  0.00    +0.024 A 
ATOM      7  C   UNL     1       1.410   2.170   0.144  0.00  0.00    +0.043 A 
ATOM      8  N   UNL     1       1.542   3.527   0.440  0.00  0.00    -0.269 N 
ATOM      9  C   UNL     1       2.698   4.191   0.312  0.00  0.00    +0.314 C 
ATOM     10  O   UNL     1       2.721   5.374   0.593  0.00  0.00    -0.252 OA
ATOM     11  N   UNL     1       3.835   3.611  -0.112  0.00  0.00    -0.214 N 
ATOM     12  H   UNL     1       0.762   4.011   0.752  0.00  0.00    +0.156 HD
ENDROOT
BRANCH  11  13
ATOM     13  C   UNL     1       5.013   4.358  -0.225  0.00  0.00    +0.042 A 
ATOM     14  C   UNL     1       5.961   4.321   0.790  0.00  0.00    +0.024 A 
ATOM     15  C   UNL     1       7.124   5.056   0.673  0.00  0.00    +0.005 A 
ATOM     16  C   UNL     1       7.341   5.838  -0.447  0.00  0.00    -0.047 A 
ATOM     17  C   UNL     1       6.396   5.881  -1.456  0.00  0.00    -0.046 A 
ATOM     18  C   UNL     1       5.233   5.144  -1.348  0.00  0.00    +0.027 A 
ATOM     19  C   UNL     1       6.637   6.734  -2.675  0.00  0.00    +0.044 C 
ATOM     20  C   UNL     1       8.608   6.643  -0.568  0.00  0.00    +0.044 C 
ENDBRANCH  11  13
BRANCH   1  22
ATOM     21  N   UNL     1       3.544   2.605  -2.878  0.00  0.00    -0.313 N 
ATOM     22  C   UNL     1       4.270   2.043  -1.891  0.00  0.00    +0.269 C 
ATOM     23  O   UNL     1       5.281   1.429  -2.157  0.00  0.00    -0.270 OA
ATOM     24  H   UNL     1       2.735   3.096  -2.666  0.00  0.00    +0.149 HD
BRANCH  21  25
ATOM     25  C   UNL     1       3.976   2.473  -4.272  0.00  0.00    +0.089 C 
BRANCH  25  29
ATOM     26  C   UNL     1       2.197   3.454  -7.358  0.00  0.00    -0.078 C 
ATOM     27  C   UNL     1       1.052   2.820  -6.539  0.00  0.00    -0.020 C 
ATOM     28  C   UNL     1       1.604   2.701  -5.104  0.00  0.00    -0.016 C 
ATOM     29  C   UNL     1       3.036   3.273  -5.175  0.00  0.00    -0.051 C 
ATOM     30  N   UNL     1       3.397   3.119  -6.583  0.00  0.00    +0.382 N 
ATOM     31  H   UNL     1       3.676   2.149  -6.769  0.00  0.00    -0.081 HD
BRANCH  30  33
ATOM     32  C   UNL     1       5.186   3.571  -8.245  0.00  0.00    -0.017 C 
ATOM     33  C   UNL     1       4.526   4.033  -6.945  0.00  0.00    -0.082 C 
ENDBRANCH  30  33
ENDBRANCH  25  29
ENDBRANCH  21  25
ENDBRANCH   1  22
BRANCH   1  34
ATOM     34  O   UNL     1       4.792   1.521   0.363  0.00  0.00    -0.360 OA
ATOM     35  H   UNL     1       4.938   0.593   0.133  0.00  0.00    +0.213 HD
ENDBRANCH   1  34
TORSDOF 6
