REMARK  Name = ZINC67215159
REMARK  6 active torsions:
REMARK  status: ('A' for Active; 'I' for Inactive)
REMARK    1  A    between atoms: C_4  and  C_7
REMARK    2  A    between atoms: C_10  and  C_12
REMARK    3  A    between atoms: C_12  and  N_13
REMARK    4  A    between atoms: N_13  and  C_14
REMARK    5  A    between atoms: C_14  and  C_15
REMARK    6  A    between atoms: C_20  and  C_21
REMARK                            x       y       z     vdW  Elec       q    Type
REMARK                         _______ _______ _______ _____ _____    ______ ____
ROOT
ATOM      1  C   UNL     1       5.535  -5.923  -1.814  0.00  0.00    -0.042 C 
ENDROOT
BRANCH   1   2
ATOM      2  C   UNL     1       5.668  -6.295  -3.269  0.00  0.00    -0.016 A 
ATOM      3  C   UNL     1       4.706  -6.842  -4.041  0.00  0.00    +0.107 A 
ATOM      4  N   UNL     1       5.216  -7.024  -5.279  0.00  0.00    -0.284 N 
ATOM      5  H   UNL     1       4.745  -7.401  -6.038  0.00  0.00    +0.188 HD
ATOM      6  N   UNL     1       6.542  -6.574  -5.275  0.00  0.00    -0.171 NA
ATOM      7  C   UNL     1       6.819  -6.127  -4.066  0.00  0.00    +0.129 A 
BRANCH   7   8
ATOM      8  C   UNL     1       8.109  -5.555  -3.624  0.00  0.00    +0.156 A 
ATOM      9  C   UNL     1       9.327  -5.953  -4.062  0.00  0.00    +0.060 A 
ATOM     10  C   UNL     1      10.304  -5.117  -3.360  0.00  0.00    +0.021 A 
ATOM     11  C   UNL     1      11.697  -5.032  -3.368  0.00  0.00    +0.011 A 
ATOM     12  C   UNL     1      12.324  -4.115  -2.570  0.00  0.00    +0.001 A 
ATOM     13  C   UNL     1      11.585  -3.271  -1.754  0.00  0.00    +0.004 A 
ATOM     14  C   UNL     1      10.208  -3.340  -1.733  0.00  0.00    +0.047 A 
ATOM     15  C   UNL     1       9.550  -4.263  -2.535  0.00  0.00    +0.136 A 
ATOM     16  O   UNL     1       8.248  -4.557  -2.730  0.00  0.00    -0.453 OA
ENDBRANCH   7   8
ENDBRANCH   1   2
BRANCH   1  17
ATOM     17  N   UNL     1       5.290  -4.479  -1.698  0.00  0.00    +0.386 N 
ATOM     18  H   UNL     1       4.438  -4.242  -2.186  0.00  0.00    -0.085 HD
ATOM     19  H   UNL     1       6.062  -3.973  -2.105  0.00  0.00    -0.085 HD
BRANCH  17  20
ATOM     20  C   UNL     1       5.159  -4.117  -0.281  0.00  0.00    -0.018 C 
BRANCH  20  24
ATOM     21  C   UNL     1       3.699  -0.689  -0.037  0.00  0.00    +0.078 A 
ATOM     22  C   UNL     1       4.893  -0.026   0.062  0.00  0.00    +0.075 A 
ATOM     23  S   UNL     1       6.036  -1.396  -0.016  0.00  0.00    -0.082 S 
ATOM     24  C   UNL     1       4.908  -2.636  -0.162  0.00  0.00    +0.062 A 
ATOM     25  N   UNL     1       3.761  -2.008  -0.143  0.00  0.00    -0.246 NA
BRANCH  21  29
ATOM     26  C   UNL     1      -0.017   1.379   0.010  0.00  0.00    +0.000 A 
ATOM     27  C   UNL     1       1.169   2.092   0.002  0.00  0.00    +0.001 A 
ATOM     28  C   UNL     1       2.377   1.426  -0.013  0.00  0.00    +0.010 A 
ATOM     29  C   UNL     1       2.402   0.033  -0.021  0.00  0.00    +0.001 A 
ATOM     30  C   UNL     1       1.205  -0.680  -0.013  0.00  0.00    +0.010 A 
ATOM     31  C   UNL     1       0.002  -0.004   0.002  0.00  0.00    +0.001 A 
ENDBRANCH  21  29
ENDBRANCH  20  24
ENDBRANCH  17  20
ENDBRANCH   1  17
TORSDOF 6
