REMARK  Name = ZINC22966518
REMARK  7 active torsions:
REMARK  status: ('A' for Active; 'I' for Inactive)
REMARK    1  A    between atoms: C_1  and  N_2
REMARK    2  A    between atoms: N_2  and  C_3
REMARK    3  A    between atoms: N_2  and  C_15
REMARK    4  A    between atoms: C_3  and  C_4
REMARK    5  A    between atoms: C_9  and  O_10
REMARK    6  A    between atoms: O_10  and  C_11
REMARK    7  A    between atoms: C_15  and  C_16
REMARK                            x       y       z     vdW  Elec       q    Type
REMARK                         _______ _______ _______ _____ _____    ______ ____
ROOT
ATOM      1  C   UNL     1      -3.403   0.992   4.396  0.00  0.00    -0.095 C 
ATOM      2  N   UNL     1      -3.163   1.904   3.270  0.00  0.00    +0.384 N 
ATOM      3  H   UNL     1      -2.952   1.294   2.380  0.00  0.00    -0.081 HD
ENDROOT
BRANCH   2   4
ATOM      4  C   UNL     1      -1.993   2.756   3.522  0.00  0.00    -0.039 C 
BRANCH   4   5
ATOM      5  C   UNL     1      -0.751   1.903   3.563  0.00  0.00    -0.022 A 
ATOM      6  C   UNL     1      -0.207   1.531   4.777  0.00  0.00    +0.005 A 
ATOM      7  C   UNL     1       0.932   0.749   4.816  0.00  0.00    +0.000 A 
ATOM      8  C   UNL     1       1.530   0.336   3.639  0.00  0.00    +0.004 A 
ATOM      9  C   UNL     1       0.987   0.701   2.422  0.00  0.00    +0.046 A 
ATOM     10  C   UNL     1      -0.153   1.491   2.381  0.00  0.00    +0.131 A 
BRANCH  10  11
ATOM     11  O   UNL     1      -0.686   1.856   1.185  0.00  0.00    -0.406 OA
BRANCH  11  12
ATOM     12  C   UNL     1      -0.017   1.395   0.010  0.00  0.00    +0.575 C 
ATOM     13  F   UNL     1       0.002  -0.004   0.002  0.00  0.00    -0.133 F 
ATOM     14  F   UNL     1       1.296   1.879  -0.000  0.00  0.00    -0.133 F 
ATOM     15  F   UNL     1      -0.694   1.858  -1.124  0.00  0.00    -0.133 F 
ENDBRANCH  11  12
ENDBRANCH  10  11
ENDBRANCH   4   5
ENDBRANCH   2   4
BRANCH   2  16
ATOM     16  C   UNL     1      -4.355   2.717   2.988  0.00  0.00    -0.022 C 
BRANCH  16  17
ATOM     17  C   UNL     1      -5.466   1.825   2.497  0.00  0.00    +0.032 A 
ATOM     18  C   UNL     1      -6.613   1.673   3.251  0.00  0.00    +0.092 A 
ATOM     19  C   UNL     1      -7.634   0.844   2.772  0.00  0.00    +0.259 A 
ATOM     20  O   UNL     1      -8.662   0.693   3.412  0.00  0.00    -0.267 OA
ATOM     21  N   UNL     1      -7.461   0.210   1.592  0.00  0.00    -0.267 N 
ATOM     22  C   UNL     1      -8.443  -0.605   1.115  0.00  0.00    +0.116 A 
ATOM     23  C   UNL     1      -8.292  -1.251  -0.065  0.00  0.00    +0.058 A 
ATOM     24  C   UNL     1      -7.116  -1.088  -0.812  0.00  0.00    +0.025 A 
ATOM     25  C   UNL     1      -6.129  -0.275  -0.342  0.00  0.00    +0.048 A 
ATOM     26  C   UNL     1      -6.304   0.388   0.886  0.00  0.00    +0.140 A 
ATOM     27  N   UNL     1      -5.339   1.184   1.346  0.00  0.00    -0.236 NA
ATOM     28 CL   UNL     1      -9.557  -2.283  -0.654  0.00  0.00    -0.082 Cl
ENDBRANCH  16  17
ENDBRANCH   2  16
TORSDOF 6
