REMARK  Name = ZINC27197276
REMARK  7 active torsions:
REMARK  status: ('A' for Active; 'I' for Inactive)
REMARK    1  A    between atoms: C_1  and  C_2
REMARK    2  A    between atoms: C_2  and  N_3
REMARK    3  A    between atoms: N_3  and  C_4
REMARK    4  A    between atoms: N_3  and  C_23
REMARK    5  A    between atoms: C_4  and  N_5
REMARK    6  A    between atoms: N_8  and  C_22
REMARK    7  A    between atoms: C_9  and  C_11
REMARK                            x       y       z     vdW  Elec       q    Type
REMARK                         _______ _______ _______ _____ _____    ______ ____
ROOT
ATOM      1  N   UNL     1      -1.053  -2.202  -1.574  0.00  0.00    -0.257 N 
ATOM      2  C   UNL     1      -1.819  -2.776  -0.624  0.00  0.00    +0.176 A 
ATOM      3  S   UNL     1      -1.296  -3.307   0.917  0.00  0.00    -0.011 S 
ATOM      4  N   UNL     1      -3.074  -2.855  -1.111  0.00  0.00    -0.307 N 
ATOM      5  C   UNL     1      -3.080  -2.322  -2.377  0.00  0.00    +0.176 A 
ATOM      6  N   UNL     1      -1.884  -1.922  -2.667  0.00  0.00    -0.154 NA
ATOM      7  C   UNL     1      -4.233  -3.413  -0.410  0.00  0.00    +0.153 C 
ENDROOT
BRANCH   5   8
ATOM      8  C   UNL     1      -4.284  -2.216  -3.277  0.00  0.00    +0.278 C 
ATOM      9  C   UNL     1      -3.831  -1.907  -4.711  0.00  0.00    +0.281 C 
ATOM     10  O   UNL     1      -4.997  -1.799  -5.535  0.00  0.00    -0.484 OA
ATOM     11  C   UNL     1      -6.023  -1.049  -5.048  0.00  0.00    +0.162 A 
ATOM     12  C   UNL     1      -7.011  -0.603  -5.913  0.00  0.00    +0.049 A 
ATOM     13  C   UNL     1      -8.061   0.156  -5.433  0.00  0.00    +0.004 A 
ATOM     14  C   UNL     1      -8.129   0.474  -4.089  0.00  0.00    +0.004 A 
ATOM     15  C   UNL     1      -7.147   0.034  -3.222  0.00  0.00    +0.049 A 
ATOM     16  C   UNL     1      -6.090  -0.728  -3.698  0.00  0.00    +0.163 A 
ATOM     17  O   UNL     1      -5.126  -1.147  -2.832  0.00  0.00    -0.474 OA
ENDBRANCH   5   8
BRANCH   1  18
ATOM     18  C   UNL     1       0.381  -1.918  -1.478  0.00  0.00    +0.072 C 
BRANCH  18  19
ATOM     19  N   UNL     1       0.582  -0.479  -1.261  0.00  0.00    +0.394 N 
ATOM     20  H   UNL     1       0.117   0.039  -1.992  0.00  0.00    -0.079 HD
BRANCH  19  21
ATOM     21  C   UNL     1       2.019  -0.176  -1.285  0.00  0.00    -0.066 C 
ATOM     22  C   UNL     1       2.573  -0.440  -2.687  0.00  0.00    -0.015 C 
ATOM     23  C   UNL     1       4.070  -0.124  -2.711  0.00  0.00    -0.002 C 
ATOM     24  C   UNL     1       4.795  -1.014  -1.700  0.00  0.00    -0.000 C 
ATOM     25  C   UNL     1       4.242  -0.751  -0.299  0.00  0.00    -0.002 C 
ATOM     26  C   UNL     1       2.745  -1.066  -0.274  0.00  0.00    -0.015 C 
ENDBRANCH  19  21
BRANCH  19  28
ATOM     27  C   UNL     1       0.107   1.421   0.209  0.00  0.00    -0.017 C 
ATOM     28  C   UNL     1       0.022  -0.098   0.042  0.00  0.00    -0.079 C 
ENDBRANCH  19  28
ENDBRANCH  18  19
ENDBRANCH   1  18
TORSDOF 5
