REMARK  Name = ZINC35176501
REMARK  10 active torsions:
REMARK  status: ('A' for Active; 'I' for Inactive)
REMARK    1  A    between atoms: C_1  and  C_2
REMARK    2  A    between atoms: C_3  and  C_30
REMARK    3  A    between atoms: C_4  and  C_9
REMARK    4  A    between atoms: C_6  and  C_8
REMARK    5  A    between atoms: C_15  and  C_18
REMARK    6  A    between atoms: C_19  and  C_21
REMARK    7  A    between atoms: C_24  and  N_27
REMARK    8  A    between atoms: C_30  and  O_32
REMARK    9  A    between atoms: O_32  and  C_33
REMARK   10  A    between atoms: C_33  and  C_34
REMARK                            x       y       z     vdW  Elec       q    Type
REMARK                         _______ _______ _______ _____ _____    ______ ____
ROOT
ATOM      1  C   UNL     1       2.335  -2.718  -2.020  0.00  0.00    +0.266 C 
ATOM      2  O   UNL     1       2.285  -2.061  -3.040  0.00  0.00    -0.268 OA
ATOM      3  N   UNL     1       1.846  -3.974  -2.002  0.00  0.00    -0.293 N 
ATOM      4  C   UNL     1       1.786  -4.736  -0.747  0.00  0.00    +0.127 C 
ATOM      5  C   UNL     1       2.530  -6.063  -0.944  0.00  0.00    +0.127 C 
ATOM      6  N   UNL     1       2.047  -6.694  -2.179  0.00  0.00    -0.292 N 
ATOM      7  C   UNL     1       2.107  -5.932  -3.435  0.00  0.00    +0.091 C 
ATOM      8  C   UNL     1       1.357  -4.603  -3.237  0.00  0.00    +0.130 C 
ATOM      9  C   UNL     1       1.445  -6.736  -4.556  0.00  0.00    +0.029 C 
ATOM     10  C   UNL     1       1.558  -7.950  -2.163  0.00  0.00    +0.247 C 
ATOM     11  O   UNL     1       1.260  -8.501  -3.204  0.00  0.00    -0.270 OA
ENDROOT
BRANCH   1  15
ATOM     12  C   UNL     1       4.820   0.945   0.387  0.00  0.00    +0.066 C 
ATOM     13  C   UNL     1       4.121  -0.390   0.363  0.00  0.00    +0.056 A 
ATOM     14  C   UNL     1       3.575  -0.885  -0.828  0.00  0.00    +0.110 A 
ATOM     15  C   UNL     1       2.935  -2.138  -0.790  0.00  0.00    +0.143 A 
ATOM     16  N   UNL     1       2.877  -2.792   0.364  0.00  0.00    -0.227 NA
ATOM     17  C   UNL     1       3.407  -2.282   1.457  0.00  0.00    +0.127 A 
ATOM     18  N   UNL     1       4.020  -1.114   1.463  0.00  0.00    -0.237 NA
ATOM     19  C   UNL     1       3.316  -3.062   2.743  0.00  0.00    +0.088 C 
BRANCH  14  20
ATOM     20  C   UNL     1       3.668  -0.115  -2.086  0.00  0.00    +0.343 C 
ATOM     21  O   UNL     1       4.619  -0.271  -2.825  0.00  0.00    -0.245 OA
BRANCH  20  22
ATOM     22  O   UNL     1       2.697   0.760  -2.413  0.00  0.00    -0.456 OA
BRANCH  22  23
ATOM     23  C   UNL     1       2.851   1.470  -3.643  0.00  0.00    +0.268 C 
BRANCH  23  24
ATOM     24  C   UNL     1       1.679   2.396  -3.840  0.00  0.00    -0.010 A 
ATOM     25  C   UNL     1       0.549   1.950  -4.500  0.00  0.00    +0.007 A 
ATOM     26  C   UNL     1      -0.527   2.800  -4.679  0.00  0.00    +0.000 A 
ATOM     27  C   UNL     1      -0.473   4.095  -4.199  0.00  0.00    +0.000 A 
ATOM     28  C   UNL     1       0.656   4.540  -3.538  0.00  0.00    +0.000 A 
ATOM     29  C   UNL     1       1.730   3.689  -3.354  0.00  0.00    +0.007 A 
ENDBRANCH  23  24
ENDBRANCH  22  23
ENDBRANCH  20  22
ENDBRANCH  14  20
ENDBRANCH   1  15
BRANCH  10  30
ATOM     30  C   UNL     1       1.383  -8.658  -0.876  0.00  0.00    +0.037 A 
ATOM     31  C   UNL     1       1.035  -7.947   0.273  0.00  0.00    +0.015 A 
ATOM     32  C   UNL     1       0.873  -8.614   1.470  0.00  0.00    +0.033 A 
ATOM     33  C   UNL     1       1.055  -9.984   1.533  0.00  0.00    +0.126 A 
ATOM     34  C   UNL     1       1.401 -10.694   0.397  0.00  0.00    +0.033 A 
ATOM     35  C   UNL     1       1.560 -10.041  -0.808  0.00  0.00    +0.015 A 
BRANCH  33  36
ATOM     36  N   UNL     1       0.880 -10.692   2.820  0.00  0.00    +0.056 N 
ATOM     37  O   UNL     1       0.579 -10.074   3.814  0.00  0.00    -0.126 OA
ATOM     38  O   UNL     1       1.039 -11.889   2.878  0.00  0.00    -0.126 OA
ENDBRANCH  33  36
ENDBRANCH  10  30
TORSDOF 7
