REMARK  Name = ZINC16746317
REMARK  7 active torsions:
REMARK  status: ('A' for Active; 'I' for Inactive)
REMARK    1  A    between atoms: C_1  and  C_2
REMARK    2  A    between atoms: C_2  and  C_4
REMARK    3  A    between atoms: C_2  and  N_23
REMARK    4  A    between atoms: C_4  and  O_6
REMARK    5  A    between atoms: O_6  and  C_7
REMARK    6  A    between atoms: C_7  and  C_9
REMARK    7  A    between atoms: C_7  and  C_10
REMARK                            x       y       z     vdW  Elec       q    Type
REMARK                         _______ _______ _______ _____ _____    ______ ____
ROOT
ATOM      1  C   UNL     1       3.517   1.423  -0.619  0.00  0.00    +0.329 C 
ATOM      2  O   UNL     1       3.588   2.521  -1.118  0.00  0.00    -0.249 OA
ENDROOT
BRANCH   1   4
ATOM      3  C   UNL     1       5.142   0.145   0.751  0.00  0.00    +0.040 C 
ATOM      4  C   UNL     1       4.703   0.494  -0.672  0.00  0.00    +0.190 C 
BRANCH   4   5
ATOM      5  N   UNL     1       5.807   1.151  -1.376  0.00  0.00    -0.220 N 
ATOM      6  C   UNL     1       6.380   2.304  -0.986  0.00  0.00    +0.255 C 
ATOM      7  O   UNL     1       6.068   2.955  -0.009  0.00  0.00    -0.270 OA
ATOM      8  C   UNL     1       7.453   2.644  -1.943  0.00  0.00    +0.051 A 
ATOM      9  C   UNL     1       8.360   3.687  -2.049  0.00  0.00    +0.035 A 
ATOM     10  C   UNL     1       9.259   3.711  -3.105  0.00  0.00    +0.060 A 
ATOM     11  C   UNL     1       9.256   2.701  -4.053  0.00  0.00    +0.060 A 
ATOM     12  C   UNL     1       8.353   1.652  -3.958  0.00  0.00    +0.035 A 
ATOM     13  C   UNL     1       7.449   1.616  -2.908  0.00  0.00    +0.051 A 
ATOM     14  C   UNL     1       6.378   0.683  -2.501  0.00  0.00    +0.255 C 
ATOM     15  O   UNL     1       6.065  -0.335  -3.085  0.00  0.00    -0.270 OA
ATOM     16 CL   UNL     1      10.388   2.748  -5.367  0.00  0.00    -0.082 Cl
ATOM     17 CL   UNL     1      10.395   5.017  -3.239  0.00  0.00    -0.082 Cl
ENDBRANCH   4   5
ENDBRANCH   1   4
BRANCH   1  18
ATOM     18  O   UNL     1       2.384   1.030  -0.018  0.00  0.00    -0.451 OA
BRANCH  18  19
ATOM     19  C   UNL     1       1.282   1.976  -0.004  0.00  0.00    +0.259 C 
ATOM     20  C   UNL     1       1.373   2.847   1.251  0.00  0.00    +0.062 C 
BRANCH  19  21
ATOM     21  C   UNL     1      -0.025   1.226  -0.002  0.00  0.00    +0.261 C 
ATOM     22  O   UNL     1      -0.039   0.033   0.214  0.00  0.00    -0.271 OA
ATOM     23  N   UNL     1      -1.177   1.881  -0.247  0.00  0.00    -0.258 N 
ATOM     24  C   UNL     1      -1.178   3.304  -0.616  0.00  0.00    +0.209 C 
ATOM     25  C   UNL     1      -2.293   4.003   0.112  0.00  0.00    +0.235 C 
ATOM     26  O   UNL     1      -2.183   5.179   0.387  0.00  0.00    -0.274 OA
ATOM     27  N   UNL     1      -3.410   3.340   0.465  0.00  0.00    -0.283 N 
ATOM     28  C   UNL     1      -3.542   1.971   0.204  0.00  0.00    +0.055 A 
ATOM     29  C   UNL     1      -2.416   1.226  -0.152  0.00  0.00    +0.058 A 
ATOM     30  C   UNL     1      -2.529  -0.128  -0.405  0.00  0.00    +0.025 A 
ATOM     31  C   UNL     1      -3.765  -0.743  -0.308  0.00  0.00    +0.002 A 
ATOM     32  C   UNL     1      -4.882  -0.008   0.042  0.00  0.00    +0.002 A 
ATOM     33  C   UNL     1      -4.775   1.347   0.298  0.00  0.00    +0.025 A 
ATOM     34  H   UNL     1      -4.132   3.815   0.905  0.00  0.00    +0.155 HD
ENDBRANCH  19  21
ENDBRANCH  18  19
ENDBRANCH   1  18
TORSDOF 5
