REMARK  Name = ZINC13575662
REMARK  5 active torsions:
REMARK  status: ('A' for Active; 'I' for Inactive)
REMARK    1  A    between atoms: C_1  and  C_2
REMARK    2  A    between atoms: N_16  and  N_17
REMARK    3  A    between atoms: C_18  and  C_19
REMARK    4  A    between atoms: C_18  and  C_20
REMARK    5  A    between atoms: C_23  and  C_25
REMARK                            x       y       z     vdW  Elec       q    Type
REMARK                         _______ _______ _______ _____ _____    ______ ____
ROOT
ATOM      1  C   UNL     1     -10.027  -1.298  -0.744  0.00  0.00    +0.046 C 
ATOM      2  C   UNL     1     -10.014   0.205  -0.845  0.00  0.00    -0.026 A 
ATOM      3  C   UNL     1     -11.190   0.891  -1.069  0.00  0.00    +0.005 A 
ATOM      4  C   UNL     1     -11.192   2.273  -1.165  0.00  0.00    +0.001 A 
ATOM      5  C   UNL     1     -10.015   2.980  -1.035  0.00  0.00    +0.012 A 
ATOM      6  C   UNL     1      -8.821   2.301  -0.809  0.00  0.00    +0.029 A 
ATOM      7  C   UNL     1      -8.817   0.900  -0.712  0.00  0.00    +0.053 A 
ATOM      8  N   UNL     1      -7.516   0.480  -0.487  0.00  0.00    -0.337 N 
ATOM      9  H   UNL     1      -7.243  -0.445  -0.383  0.00  0.00    +0.167 HD
ATOM     10  C   UNL     1      -6.668   1.558  -0.434  0.00  0.00    +0.163 A 
ATOM     11  C   UNL     1      -7.425   2.733  -0.628  0.00  0.00    +0.138 A 
ATOM     12  N   UNL     1      -6.815   3.909  -0.617  0.00  0.00    -0.142 NA
ATOM     13  N   UNL     1      -5.541   3.975  -0.430  0.00  0.00    -0.111 NA
ATOM     14  C   UNL     1      -4.807   2.883  -0.245  0.00  0.00    +0.256 A 
ATOM     15  N   UNL     1      -5.357   1.675  -0.249  0.00  0.00    -0.192 NA
ATOM     16  N   UNL     1      -3.443   3.007  -0.048  0.00  0.00    -0.203 N 
ATOM     17  H   UNL     1      -2.898   2.216   0.088  0.00  0.00    +0.178 HD
ENDROOT
BRANCH  16  18
ATOM     18  N   UNL     1      -2.848   4.276  -0.046  0.00  0.00    -0.181 NA
ATOM     19  C   UNL     1      -1.559   4.389   0.085  0.00  0.00    +0.098 C 
ATOM     20  C   UNL     1      -0.901   5.737  -0.068  0.00  0.00    +0.071 C 
BRANCH  19  21
ATOM     21  C   UNL     1      -0.745   3.206   0.382  0.00  0.00    +0.150 A 
ATOM     22  C   UNL     1       0.582   3.055   0.103  0.00  0.00    +0.051 A 
ATOM     23  C   UNL     1       0.948   1.773   0.554  0.00  0.00    +0.045 A 
ATOM     24  C   UNL     1      -0.155   1.212   1.089  0.00  0.00    +0.103 A 
ATOM     25  O   UNL     1      -1.176   2.079   0.984  0.00  0.00    -0.459 OA
ATOM     26  C   UNL     1      -0.231  -0.162   1.705  0.00  0.00    +0.086 C 
ENDBRANCH  19  21
ENDBRANCH  16  18
TORSDOF 2
