REMARK  Name = ZINC60390840
REMARK  16 active torsions:
REMARK  status: ('A' for Active; 'I' for Inactive)
REMARK    1  A    between atoms: C_1  and  N_2
REMARK    2  A    between atoms: N_2  and  C_3
REMARK    3  A    between atoms: N_2  and  C_4
REMARK    4  A    between atoms: C_4  and  C_6
REMARK    5  A    between atoms: C_4  and  C_28
REMARK    6  A    between atoms: C_6  and  N_7
REMARK    7  A    between atoms: C_8  and  C_10
REMARK    8  A    between atoms: C_10  and  C_12
REMARK    9  A    between atoms: C_10  and  N_16
REMARK   10  A    between atoms: C_12  and  C_13
REMARK   11  A    between atoms: C_13  and  S_14
REMARK   12  A    between atoms: S_14  and  C_15
REMARK   13  A    between atoms: C_17  and  C_19
REMARK   14  A    between atoms: C_23  and  N_25
REMARK   15  A    between atoms: C_32  and  O_34
REMARK   16  A    between atoms: O_34  and  C_35
REMARK                            x       y       z     vdW  Elec       q    Type
REMARK                         _______ _______ _______ _____ _____    ______ ____
ROOT
ATOM      1  N   UNL     1      -1.766   1.531  -1.169  0.00  0.00    -0.315 N 
ATOM      2  C   UNL     1      -2.260   2.263  -2.188  0.00  0.00    +0.233 C 
ATOM      3  O   UNL     1      -2.935   1.732  -3.045  0.00  0.00    -0.274 OA
ATOM      4  H   UNL     1      -1.227   1.956  -0.484  0.00  0.00    +0.149 HD
ENDROOT
BRANCH   1   5
ATOM      5  C   UNL     1      -2.044   0.095  -1.098  0.00  0.00    +0.093 C 
BRANCH   5   6
ATOM      6  C   UNL     1      -1.281  -0.514   0.081  0.00  0.00    -0.021 C 
BRANCH   6   7
ATOM      7  C   UNL     1      -1.799   0.070   1.370  0.00  0.00    -0.056 A 
ATOM      8  C   UNL     1      -2.968  -0.415   1.928  0.00  0.00    +0.002 A 
ATOM      9  C   UNL     1      -3.445   0.119   3.110  0.00  0.00    +0.004 A 
ATOM     10  C   UNL     1      -2.755   1.139   3.737  0.00  0.00    +0.045 A 
ATOM     11  C   UNL     1      -1.583   1.626   3.180  0.00  0.00    +0.120 A 
ATOM     12  C   UNL     1      -1.102   1.085   1.996  0.00  0.00    +0.047 A 
BRANCH  11  13
ATOM     13  O   UNL     1      -0.902   2.629   3.795  0.00  0.00    -0.495 OA
ATOM     14  C   UNL     1      -1.452   3.134   5.014  0.00  0.00    +0.277 C 
ENDBRANCH  11  13
ENDBRANCH   6   7
BRANCH   6  16
ATOM     15  C   UNL     1      -0.970  -2.540  -1.166  0.00  0.00    -0.096 C 
ATOM     16  N   UNL     1      -1.476  -1.970   0.090  0.00  0.00    +0.382 N 
ATOM     17  C   UNL     1      -0.745  -2.555   1.222  0.00  0.00    -0.096 C 
ATOM     18  H   UNL     1      -2.459  -2.178   0.181  0.00  0.00    -0.082 HD
ENDBRANCH   6  16
ENDBRANCH   5   6
ENDBRANCH   1   5
BRANCH   2  19
ATOM     19  C   UNL     1      -1.974   3.741  -2.262  0.00  0.00    +0.160 C 
BRANCH  19  20
ATOM     20  N   UNL     1      -2.617   4.304  -3.451  0.00  0.00    -0.300 N 
ATOM     21  C   UNL     1      -2.943   5.611  -3.487  0.00  0.00    +0.245 C 
ATOM     22  O   UNL     1      -2.703   6.323  -2.531  0.00  0.00    -0.270 OA
ATOM     23  H   UNL     1      -2.809   3.736  -4.214  0.00  0.00    +0.150 HD
BRANCH  21  24
ATOM     24  C   UNL     1      -3.592   6.179  -4.688  0.00  0.00    +0.039 A 
ATOM     25  C   UNL     1      -3.874   5.363  -5.784  0.00  0.00    +0.013 A 
ATOM     26  C   UNL     1      -4.480   5.899  -6.901  0.00  0.00    +0.003 A 
ATOM     27  C   UNL     1      -4.808   7.243  -6.936  0.00  0.00    +0.033 A 
ATOM     28  C   UNL     1      -4.530   8.058  -5.853  0.00  0.00    +0.127 A 
ATOM     29  C   UNL     1      -3.930   7.532  -4.727  0.00  0.00    +0.045 A 
BRANCH  28  30
ATOM     30  N   UNL     1      -4.884   9.494  -5.900  0.00  0.00    +0.056 N 
ATOM     31  O   UNL     1      -5.415   9.955  -6.884  0.00  0.00    -0.126 OA
ATOM     32  O   UNL     1      -4.642  10.207  -4.954  0.00  0.00    -0.126 OA
ENDBRANCH  28  30
ENDBRANCH  21  24
ENDBRANCH  19  20
BRANCH  19  33
ATOM     33  C   UNL     1      -0.463   3.964  -2.345  0.00  0.00    +0.042 C 
BRANCH  33  34
ATOM     34  C   UNL     1      -0.165   5.464  -2.294  0.00  0.00    +0.071 C 
BRANCH  34  35
ATOM     35  S   UNL     1       1.627   5.729  -2.393  0.00  0.00    -0.164 S 
ATOM     36  C   UNL     1       1.808   7.532  -2.321  0.00  0.00    +0.084 C 
ENDBRANCH  34  35
ENDBRANCH  33  34
ENDBRANCH  19  33
ENDBRANCH   2  19
TORSDOF 12
