REMARK  Name = ZINC63480122
REMARK  4 active torsions:
REMARK  status: ('A' for Active; 'I' for Inactive)
REMARK    1  A    between atoms: C_7  and  C_10
REMARK    2  A    between atoms: C_10  and  C_11
REMARK    3  A    between atoms: N_19  and  C_22
REMARK    4  A    between atoms: C_26  and  N_28
REMARK                            x       y       z     vdW  Elec       q    Type
REMARK                         _______ _______ _______ _____ _____    ______ ____
ROOT
ATOM      1  C   UNL     1       0.457  -3.653  -1.462  0.00  0.00    +0.072 C 
ATOM      2  C   UNL     1      -0.460  -4.873  -1.499  0.00  0.00    +0.107 C 
ATOM      3  C   UNL     1      -0.807  -4.822  -3.033  0.00  0.00    +0.123 C 
ATOM      4  C   UNL     1      -1.356  -6.136  -3.261  0.00  0.00    +0.233 C 
ATOM      5  O   UNL     1      -2.229  -6.447  -4.043  0.00  0.00    -0.274 OA
ATOM      6  N   UNL     1      -0.673  -6.960  -2.399  0.00  0.00    -0.210 N 
ATOM      7  C   UNL     1       0.091  -6.263  -1.481  0.00  0.00    +0.232 C 
ATOM      8  O   UNL     1       1.010  -6.680  -0.809  0.00  0.00    -0.274 OA
ATOM      9  C   UNL     1      -1.014  -3.412  -3.346  0.00  0.00    +0.136 C 
ATOM     10  N   UNL     1      -0.356  -2.647  -2.232  0.00  0.00    -0.295 NA
ATOM     11  C   UNL     1      -0.411  -2.962  -4.654  0.00  0.00    +0.003 A 
ATOM     12  C   UNL     1       0.860  -3.040  -5.179  0.00  0.00    +0.008 A 
ATOM     13  C   UNL     1       1.121  -2.524  -6.436  0.00  0.00    +0.000 A 
ATOM     14  C   UNL     1       0.103  -1.931  -7.161  0.00  0.00    +0.002 A 
ATOM     15  C   UNL     1      -1.171  -1.852  -6.638  0.00  0.00    +0.023 A 
ATOM     16  C   UNL     1      -1.442  -2.370  -5.373  0.00  0.00    +0.039 A 
ATOM     17  N   UNL     1      -2.628  -2.410  -4.639  0.00  0.00    -0.283 N 
ATOM     18  C   UNL     1      -2.466  -3.003  -3.443  0.00  0.00    +0.243 C 
ATOM     19  O   UNL     1      -3.322  -3.176  -2.602  0.00  0.00    -0.273 OA
ATOM     20  H   UNL     1      -1.050  -2.213  -1.641  0.00  0.00    +0.124 HD
ATOM     21  H   UNL     1      -3.472  -2.052  -4.956  0.00  0.00    +0.155 HD
ENDROOT
BRANCH   6  22
ATOM     22  C   UNL     1      -0.750  -8.359  -2.436  0.00  0.00    +0.046 A 
ATOM     23  C   UNL     1      -1.545  -8.988  -3.384  0.00  0.00    +0.024 A 
ATOM     24  C   UNL     1      -1.619 -10.367  -3.417  0.00  0.00    +0.004 A 
ATOM     25  C   UNL     1      -0.901 -11.121  -2.507  0.00  0.00    +0.033 A 
ATOM     26  C   UNL     1      -0.108 -10.498  -1.562  0.00  0.00    +0.128 A 
ATOM     27  C   UNL     1      -0.026  -9.119  -1.527  0.00  0.00    +0.056 A 
BRANCH  26  28
ATOM     28  N   UNL     1       0.658 -11.309  -0.589  0.00  0.00    +0.056 N 
ATOM     29  O   UNL     1       0.591 -12.515  -0.622  0.00  0.00    -0.126 OA
ATOM     30  O   UNL     1       1.351 -10.764   0.239  0.00  0.00    -0.126 OA
ENDBRANCH  26  28
ENDBRANCH   6  22
BRANCH   1  31
ATOM     31  C   UNL     1       0.691  -3.186  -0.024  0.00  0.00    +0.052 C 
BRANCH  31  38
ATOM     32  C   UNL     1      -0.016   1.348   0.009  0.00  0.00    +0.001 A 
ATOM     33  C   UNL     1       1.166   2.101   0.002  0.00  0.00    +0.002 A 
ATOM     34  C   UNL     1       2.391   1.535  -0.013  0.00  0.00    +0.026 A 
ATOM     35  C   UNL     1       2.529   0.120  -0.022  0.00  0.00    +0.043 A 
ATOM     36  N   UNL     1       3.587  -0.654  -0.037  0.00  0.00    -0.380 N 
ATOM     37  C   UNL     1       3.143  -2.053  -0.041  0.00  0.00    +0.144 C 
ATOM     38  C   UNL     1       1.631  -2.008  -0.025  0.00  0.00    -0.040 C 
ATOM     39  C   UNL     1       1.295  -0.698  -0.014  0.00  0.00    -0.001 A 
ATOM     40  C   UNL     1       0.002  -0.004   0.002  0.00  0.00    +0.010 A 
ATOM     41  H   UNL     1       4.509  -0.353  -0.045  0.00  0.00    +0.160 HD
ENDBRANCH  31  38
ENDBRANCH   1  31
TORSDOF 4
