REMARK  Name = ZINC14234086
REMARK  11 active torsions:
REMARK  status: ('A' for Active; 'I' for Inactive)
REMARK    1  A    between atoms: C_1  and  C_2
REMARK    2  A    between atoms: C_2  and  C_3
REMARK    3  A    between atoms: C_6  and  C_9
REMARK    4  A    between atoms: C_9  and  N_53
REMARK    5  A    between atoms: C_10  and  N_53
REMARK    6  A    between atoms: C_11  and  N_12
REMARK    7  A    between atoms: C_11  and  N_53
REMARK    8  A    between atoms: N_15  and  C_26
REMARK    9  A    between atoms: C_16  and  C_18
REMARK   10  A    between atoms: C_23  and  O_24
REMARK   11  A    between atoms: O_24  and  C_25
REMARK                            x       y       z     vdW  Elec       q    Type
REMARK                         _______ _______ _______ _____ _____    ______ ____
ROOT
ATOM      1  N   UNL     1       1.316   1.740   0.142  0.00  0.00    -0.257 N 
ATOM      2  C   UNL     1       2.101   0.643   0.132  0.00  0.00    +0.176 A 
ATOM      3  S   UNL     1       3.801   0.615   0.335  0.00  0.00    -0.011 S 
ATOM      4  N   UNL     1       1.306  -0.427  -0.069  0.00  0.00    -0.306 N 
ATOM      5  C   UNL     1       0.004   0.017  -0.184  0.00  0.00    +0.166 A 
ATOM      6  N   UNL     1      -0.004   1.315  -0.060  0.00  0.00    -0.152 NA
ATOM      7  C   UNL     1       1.748  -1.821  -0.150  0.00  0.00    +0.153 C 
ENDROOT
BRANCH   5   8
ATOM      8  C   UNL     1      -1.182  -0.836  -0.411  0.00  0.00    +0.061 A 
ATOM      9  C   UNL     1      -1.159  -1.821  -1.399  0.00  0.00    +0.015 A 
ATOM     10  C   UNL     1      -2.268  -2.614  -1.606  0.00  0.00    +0.001 A 
ATOM     11  C   UNL     1      -3.406  -2.437  -0.838  0.00  0.00    +0.004 A 
ATOM     12  C   UNL     1      -3.441  -1.463   0.143  0.00  0.00    +0.046 A 
ATOM     13  C   UNL     1      -2.333  -0.663   0.367  0.00  0.00    +0.131 A 
BRANCH  13  14
ATOM     14  O   UNL     1      -2.364   0.289   1.335  0.00  0.00    -0.494 OA
ATOM     15  C   UNL     1      -3.572   0.408   2.090  0.00  0.00    +0.277 C 
ENDBRANCH  13  14
ENDBRANCH   5   8
BRANCH   1  16
ATOM     16  C   UNL     1       1.762   3.123   0.330  0.00  0.00    +0.072 C 
BRANCH  16  18
ATOM     17  C   UNL     1       0.372   3.454   2.284  0.00  0.00    -0.093 C 
ATOM     18  N   UNL     1       1.759   3.433   1.775  0.00  0.00    +0.394 N 
ATOM     19  H   UNL     1       2.286   2.706   2.273  0.00  0.00    -0.079 HD
BRANCH  18  20
ATOM     20  C   UNL     1       2.405   4.741   2.012  0.00  0.00    -0.041 C 
BRANCH  20  24
ATOM     21  C   UNL     1       2.922   5.280   6.218  0.00  0.00    -0.048 A 
ATOM     22  C   UNL     1       3.907   4.657   5.475  0.00  0.00    +0.004 A 
ATOM     23  C   UNL     1       3.740   4.483   4.114  0.00  0.00    +0.002 A 
ATOM     24  C   UNL     1       2.587   4.931   3.496  0.00  0.00    -0.064 A 
ATOM     25  C   UNL     1       1.605   5.559   4.238  0.00  0.00    +0.002 A 
ATOM     26  C   UNL     1       1.770   5.730   5.600  0.00  0.00    +0.004 A 
BRANCH  21  28
ATOM     27  C   UNL     1       3.793   6.811   7.964  0.00  0.00    +0.009 C 
ATOM     28  C   UNL     1       3.104   5.470   7.702  0.00  0.00    +0.032 C 
ENDBRANCH  21  28
ENDBRANCH  20  24
ENDBRANCH  18  20
ENDBRANCH  16  18
ENDBRANCH   1  16
TORSDOF 7
