REMARK  Name = ZINC12559349
REMARK  3 active torsions:
REMARK  status: ('A' for Active; 'I' for Inactive)
REMARK    1  A    between atoms: C_4  and  O_7
REMARK    2  A    between atoms: O_7  and  C_8
REMARK    3  A    between atoms: C_12  and  C_14
REMARK                            x       y       z     vdW  Elec       q    Type
REMARK                         _______ _______ _______ _____ _____    ______ ____
ROOT
ATOM      1  C   UNL     1       6.303  -4.682   0.145  0.00  0.00    +0.209 C 
ATOM      2  N   UNL     1       6.297  -5.888  -0.701  0.00  0.00    -0.294 N 
ATOM      3  C   UNL     1       5.763  -7.055  -0.222  0.00  0.00    +0.160 C 
ATOM      4  N   UNL     1       5.786  -7.342   1.068  0.00  0.00    -0.302 N 
ATOM      5  C   UNL     1       6.296  -6.427   1.924  0.00  0.00    +0.213 A 
ATOM      6  N   UNL     1       6.570  -5.128   1.518  0.00  0.00    -0.287 N 
ATOM      7  C   UNL     1       7.083  -4.461   2.589  0.00  0.00    +0.072 A 
ATOM      8  C   UNL     1       7.544  -3.162   2.763  0.00  0.00    +0.028 A 
ATOM      9  C   UNL     1       8.006  -2.818   4.024  0.00  0.00    +0.002 A 
ATOM     10  C   UNL     1       8.013  -3.719   5.074  0.00  0.00    +0.002 A 
ATOM     11  C   UNL     1       7.559  -5.018   4.928  0.00  0.00    +0.030 A 
ATOM     12  C   UNL     1       7.089  -5.388   3.663  0.00  0.00    +0.091 A 
ATOM     13  N   UNL     1       6.590  -6.556   3.196  0.00  0.00    -0.212 NA
ATOM     14  N   UNL     1       5.195  -7.941  -1.096  0.00  0.00    -0.332 N 
ATOM     15  H   UNL     1       5.173  -7.740  -2.045  0.00  0.00    +0.145 HD
ATOM     16  H   UNL     1       4.815  -8.771  -0.767  0.00  0.00    +0.145 HD
ATOM     17  H   UNL     1       6.669  -5.856  -1.597  0.00  0.00    +0.151 HD
ATOM     18  H   UNL     1       5.445  -8.190   1.394  0.00  0.00    +0.171 HD
ENDROOT
BRANCH   1  23
ATOM     19  C   UNL     1       3.657  -1.988  -0.010  0.00  0.00    +0.129 A 
ATOM     20  C   UNL     1       2.495  -2.747  -0.046  0.00  0.00    +0.046 A 
ATOM     21  C   UNL     1       2.571  -4.125  -0.020  0.00  0.00    +0.004 A 
ATOM     22  C   UNL     1       3.803  -4.750   0.042  0.00  0.00    +0.007 A 
ATOM     23  C   UNL     1       4.962  -3.997   0.077  0.00  0.00    -0.003 A 
ATOM     24  C   UNL     1       4.892  -2.618   0.046  0.00  0.00    +0.053 A 
BRANCH  19  25
ATOM     25  O   UNL     1       3.586  -0.632  -0.036  0.00  0.00    -0.456 OA
BRANCH  25  29
ATOM     26  C   UNL     1       3.336   1.363   3.566  0.00  0.00    +0.000 A 
ATOM     27  C   UNL     1       3.418  -0.017   3.546  0.00  0.00    +0.004 A 
ATOM     28  C   UNL     1       3.502  -0.687   2.341  0.00  0.00    +0.046 A 
ATOM     29  C   UNL     1       3.503   0.025   1.151  0.00  0.00    +0.128 A 
ATOM     30  C   UNL     1       3.420   1.410   1.174  0.00  0.00    +0.046 A 
ATOM     31  C   UNL     1       3.337   2.076   2.381  0.00  0.00    +0.004 A 
ENDBRANCH  25  29
ENDBRANCH  19  25
ENDBRANCH   1  23
TORSDOF 3
