REMARK  Name = ZINC12413588
REMARK  8 active torsions:
REMARK  status: ('A' for Active; 'I' for Inactive)
REMARK    1  A    between atoms: C_1  and  C_2
REMARK    2  A    between atoms: C_2  and  O_3
REMARK    3  A    between atoms: O_3  and  C_4
REMARK    4  A    between atoms: N_6  and  C_7
REMARK    5  A    between atoms: C_7  and  C_28
REMARK    6  A    between atoms: C_11  and  C_15
REMARK    7  A    between atoms: C_11  and  C_16
REMARK    8  A    between atoms: N_17  and  C_20
REMARK                            x       y       z     vdW  Elec       q    Type
REMARK                         _______ _______ _______ _____ _____    ______ ____
ROOT
ATOM      1  C   UNL     1      -1.406   1.735   0.004  0.00  0.00    +0.240 C 
ATOM      2  C   UNL     1       0.038   1.326  -0.095  0.00  0.00    +0.054 C 
ATOM      3  C   UNL     1       0.057  -0.033  -0.155  0.00  0.00    +0.028 C 
ATOM      4  C   UNL     1       1.359  -0.802  -0.258  0.00  0.00    +0.058 C 
ATOM      5  C   UNL     1       2.465   0.045   0.381  0.00  0.00    -0.023 C 
ATOM      6  C   UNL     1       2.527   1.423  -0.281  0.00  0.00    +0.086 C 
ATOM      7  C   UNL     1       1.193   2.121  -0.132  0.00  0.00    +0.164 C 
ATOM      8  O   UNL     1       1.124   3.331  -0.047  0.00  0.00    -0.292 OA
ATOM      9  C   UNL     1       2.177   0.213   1.874  0.00  0.00    +0.011 C 
ATOM     10  C   UNL     1       3.810  -0.662   0.205  0.00  0.00    +0.011 C 
ATOM     11  N   UNL     1      -1.200  -0.547  -0.108  0.00  0.00    -0.241 N 
ATOM     12  C   UNL     1      -2.145   0.409  -0.009  0.00  0.00    +0.261 C 
ATOM     13  O   UNL     1      -3.345   0.244   0.052  0.00  0.00    -0.272 OA
ENDROOT
BRANCH  11  14
ATOM     14  C   UNL     1      -1.483  -1.919  -0.157  0.00  0.00    +0.043 A 
ATOM     15  C   UNL     1      -1.201  -2.647  -1.305  0.00  0.00    +0.027 A 
ATOM     16  C   UNL     1      -1.474  -4.000  -1.350  0.00  0.00    +0.041 A 
ATOM     17  C   UNL     1      -2.041  -4.629  -0.255  0.00  0.00    +0.142 A 
ATOM     18  C   UNL     1      -2.329  -3.904   0.891  0.00  0.00    +0.078 A 
ATOM     19  C   UNL     1      -2.051  -2.551   0.941  0.00  0.00    +0.046 A 
ATOM     20 CL   UNL     1      -3.040  -4.696   2.263  0.00  0.00    -0.081 Cl
ATOM     21  F   UNL     1      -2.312  -5.952  -0.302  0.00  0.00    -0.204 F 
ENDBRANCH  11  14
BRANCH   1  24
ATOM     22  C   UNL     1      -1.357   1.864   2.436  0.00  0.00    +0.402 C 
ATOM     23  O   UNL     1      -0.978   0.710   2.463  0.00  0.00    -0.226 OA
ATOM     24  N   UNL     1      -1.656   2.448   1.259  0.00  0.00    -0.256 N 
ATOM     25  H   UNL     1      -2.037   3.340   1.243  0.00  0.00    +0.154 HD
BRANCH  22  26
ATOM     26  O   UNL     1      -1.479   2.559   3.583  0.00  0.00    -0.451 OA
BRANCH  26  28
ATOM     27  C   UNL     1      -1.339   2.810   6.001  0.00  0.00    +0.048 C 
ATOM     28  C   UNL     1      -1.140   1.867   4.813  0.00  0.00    +0.230 C 
ENDBRANCH  26  28
ENDBRANCH  22  26
ENDBRANCH   1  24
BRANCH   1  29
ATOM     29  C   UNL     1      -1.806   2.596  -1.196  0.00  0.00    +0.424 C 
ATOM     30  F   UNL     1      -1.717   1.835  -2.367  0.00  0.00    -0.167 F 
ATOM     31  F   UNL     1      -3.122   3.043  -1.031  0.00  0.00    -0.167 F 
ATOM     32  F   UNL     1      -0.947   3.696  -1.289  0.00  0.00    -0.167 F 
ENDBRANCH   1  29
TORSDOF 5
