REMARK  Name = ZINC35929041
REMARK  7 active torsions:
REMARK  status: ('A' for Active; 'I' for Inactive)
REMARK    1  A    between atoms: C_1  and  C_2
REMARK    2  A    between atoms: C_10  and  C_25
REMARK    3  A    between atoms: C_12  and  N_24
REMARK    4  A    between atoms: N_13  and  C_17
REMARK    5  A    between atoms: C_17  and  C_18
REMARK    6  A    between atoms: C_28  and  O_32
REMARK    7  A    between atoms: O_32  and  C_33
REMARK                            x       y       z     vdW  Elec       q    Type
REMARK                         _______ _______ _______ _____ _____    ______ ____
ROOT
ATOM      1  C   UNL     1       0.968   0.272  -1.333  0.00  0.00    +0.007 C 
ATOM      2  C   UNL     1       0.627  -1.189  -1.033  0.00  0.00    -0.011 C 
ATOM      3  C   UNL     1      -0.877  -1.320  -0.784  0.00  0.00    +0.022 C 
ATOM      4  C   UNL     1      -1.220  -2.789  -0.518  0.00  0.00    +0.108 C 
ATOM      5  N   UNL     1      -0.381  -3.279   0.585  0.00  0.00    -0.300 N 
ATOM      6  C   UNL     1       1.076  -3.119   0.488  0.00  0.00    +0.108 C 
ATOM      7  C   UNL     1       1.393  -1.647   0.210  0.00  0.00    +0.022 C 
ATOM      8  C   UNL     1      -0.953  -3.878   1.693  0.00  0.00    +0.220 A 
ATOM      9  N   UNL     1      -0.149  -4.299   2.664  0.00  0.00    -0.213 NA
ATOM     10  C   UNL     1      -0.613  -4.884   3.762  0.00  0.00    +0.091 A 
ATOM     11  C   UNL     1      -2.011  -5.058   3.887  0.00  0.00    +0.086 A 
ATOM     12  C   UNL     1      -2.865  -5.602   4.838  0.00  0.00    +0.126 A 
ATOM     13  N   UNL     1      -4.121  -5.473   4.377  0.00  0.00    -0.244 N 
ATOM     14  N   UNL     1      -4.107  -4.846   3.125  0.00  0.00    -0.149 NA
ATOM     15  C   UNL     1      -2.865  -4.578   2.787  0.00  0.00    +0.188 A 
ATOM     16  N   UNL     1      -2.264  -3.996   1.730  0.00  0.00    -0.193 NA
ENDROOT
BRANCH  10  17
ATOM     17  C   UNL     1       0.306  -5.341   4.825  0.00  0.00    +0.037 A 
ATOM     18  C   UNL     1       0.294  -6.676   5.235  0.00  0.00    +0.016 A 
ATOM     19  C   UNL     1       1.153  -7.099   6.225  0.00  0.00    +0.046 A 
ATOM     20  C   UNL     1       2.031  -6.199   6.819  0.00  0.00    +0.123 A 
ATOM     21  C   UNL     1       2.048  -4.871   6.416  0.00  0.00    +0.084 A 
ATOM     22  C   UNL     1       1.195  -4.440   5.419  0.00  0.00    +0.136 A 
ATOM     23  F   UNL     1       1.215  -3.148   5.023  0.00  0.00    -0.205 F 
BRANCH  20  24
ATOM     24  O   UNL     1       2.874  -6.621   7.796  0.00  0.00    -0.495 OA
ATOM     25  C   UNL     1       3.750  -5.645   8.363  0.00  0.00    +0.277 C 
ENDBRANCH  20  24
ENDBRANCH  10  17
BRANCH  12  26
ATOM     26  N   UNL     1      -2.491  -6.173   6.041  0.00  0.00    -0.343 N 
ATOM     27  H   UNL     1      -1.570  -6.114   6.341  0.00  0.00    +0.144 HD
ATOM     28  H   UNL     1      -3.149  -6.634   6.585  0.00  0.00    +0.144 HD
ENDBRANCH  12  26
BRANCH  13  29
ATOM     29  C   UNL     1      -5.326  -5.920   5.080  0.00  0.00    +0.180 C 
BRANCH  29  30
ATOM     30  C   UNL     1      -5.841  -4.806   5.954  0.00  0.00    -0.026 A 
ATOM     31  C   UNL     1      -5.397  -4.689   7.258  0.00  0.00    +0.005 A 
ATOM     32  C   UNL     1      -5.870  -3.667   8.059  0.00  0.00    +0.000 A 
ATOM     33  C   UNL     1      -6.785  -2.762   7.557  0.00  0.00    +0.000 A 
ATOM     34  C   UNL     1      -7.228  -2.878   6.253  0.00  0.00    +0.000 A 
ATOM     35  C   UNL     1      -6.753  -3.898   5.450  0.00  0.00    +0.005 A 
ENDBRANCH  29  30
ENDBRANCH  13  29
TORSDOF 5
