REMARK  Name = ZINC08580591
REMARK  7 active torsions:
REMARK  status: ('A' for Active; 'I' for Inactive)
REMARK    1  A    between atoms: C_1  and  C_2
REMARK    2  A    between atoms: C_7  and  C_8
REMARK    3  A    between atoms: N_9  and  C_20
REMARK    4  A    between atoms: C_20  and  C_21
REMARK    5  A    between atoms: N_22  and  N_23
REMARK    6  A    between atoms: N_23  and  C_24
REMARK    7  A    between atoms: C_24  and  N_26
REMARK                            x       y       z     vdW  Elec       q    Type
REMARK                         _______ _______ _______ _____ _____    ______ ____
ROOT
ATOM      1  C   UNL     1      -3.602   6.363   0.102  0.00  0.00    +0.044 C 
ATOM      2  C   UNL     1      -2.299   5.606   0.088  0.00  0.00    -0.045 A 
ATOM      3  C   UNL     1      -2.312   4.244   0.110  0.00  0.00    +0.033 A 
ATOM      4  C   UNL     1      -1.098   3.530   0.097  0.00  0.00    +0.089 A 
ATOM      5  C   UNL     1       0.122   4.242   0.062  0.00  0.00    +0.070 A 
ATOM      6  C   UNL     1       0.105   5.634   0.040  0.00  0.00    +0.031 A 
ATOM      7  C   UNL     1      -1.097   6.306   0.053  0.00  0.00    -0.045 A 
ATOM      8  C   UNL     1      -1.111   7.812   0.029  0.00  0.00    +0.044 C 
ATOM      9  N   UNL     1       1.324   3.566   0.049  0.00  0.00    -0.317 N 
ATOM     10  C   UNL     1       1.303   2.203   0.071  0.00  0.00    +0.171 A 
ATOM     11  N   UNL     1       2.410   1.480   0.062  0.00  0.00    -0.173 NA
ATOM     12  C   UNL     1       2.372   0.150   0.085  0.00  0.00    +0.351 A 
ATOM     13  O   UNL     1       3.431  -0.452   0.075  0.00  0.00    -0.245 OA
ATOM     14  N   UNL     1       1.241  -0.569   0.118  0.00  0.00    -0.272 N 
ATOM     15  H   UNL     1       1.293  -1.538   0.133  0.00  0.00    +0.174 HD
ATOM     16  C   UNL     1       0.027   0.030   0.131  0.00  0.00    +0.282 A 
ATOM     17  O   UNL     1      -1.000  -0.619   0.161  0.00  0.00    -0.265 OA
ATOM     18  C   UNL     1       0.005   1.510   0.108  0.00  0.00    +0.171 A 
ATOM     19  N   UNL     1      -1.113   2.190   0.123  0.00  0.00    -0.237 NA
ENDROOT
BRANCH   9  20
ATOM     20  C   UNL     1       2.594   4.295   0.013  0.00  0.00    +0.172 C 
BRANCH  20  21
ATOM     21  C   UNL     1       3.002   4.522  -1.420  0.00  0.00    +0.124 C 
ATOM     22  N   UNL     1       4.152   4.133  -1.827  0.00  0.00    -0.192 NA
BRANCH  22  23
ATOM     23  N   UNL     1       4.979   3.383  -0.980  0.00  0.00    -0.219 N 
ATOM     24  H   UNL     1       4.650   3.093  -0.115  0.00  0.00    +0.176 HD
BRANCH  23  25
ATOM     25  C   UNL     1       6.230   3.067  -1.367  0.00  0.00    +0.147 C 
ATOM     26  S   UNL     1       7.240   2.151  -0.331  0.00  0.00    -0.017 S 
BRANCH  25  27
ATOM     27  N   UNL     1       6.686   3.471  -2.569  0.00  0.00    -0.339 N 
ATOM     28  H   UNL     1       6.114   3.990  -3.155  0.00  0.00    +0.144 HD
ATOM     29  H   UNL     1       7.587   3.243  -2.847  0.00  0.00    +0.144 HD
ENDBRANCH  25  27
ENDBRANCH  23  25
ENDBRANCH  22  23
ENDBRANCH  20  21
ENDBRANCH   9  20
TORSDOF 5
