REMARK  Name = ZINC43137129
REMARK  6 active torsions:
REMARK  status: ('A' for Active; 'I' for Inactive)
REMARK    1  A    between atoms: C_5  and  C_7
REMARK    2  A    between atoms: N_9  and  N_10
REMARK    3  A    between atoms: N_13  and  C_14
REMARK    4  A    between atoms: C_14  and  C_15
REMARK    5  A    between atoms: C_15  and  C_17
REMARK    6  A    between atoms: C_15  and  N_22
REMARK                            x       y       z     vdW  Elec       q    Type
REMARK                         _______ _______ _______ _____ _____    ______ ____
ROOT
ATOM      1  N   UNL     1      -2.957  -7.506  -2.814  0.00  0.00    -0.218 N 
ATOM      2  C   UNL     1      -2.831  -6.846  -1.646  0.00  0.00    +0.316 C 
ATOM      3  O   UNL     1      -1.939  -7.141  -0.874  0.00  0.00    -0.251 OA
ATOM      4  N   UNL     1      -3.694  -5.859  -1.334  0.00  0.00    -0.299 N 
ATOM      5  H   UNL     1      -2.336  -8.217  -3.039  0.00  0.00    +0.174 HD
ATOM      6  H   UNL     1      -4.405  -5.624  -1.950  0.00  0.00    +0.150 HD
ENDROOT
BRANCH   1   9
ATOM      7  C   UNL     1      -4.110  -7.827  -4.872  0.00  0.00    +0.263 C 
ATOM      8  O   UNL     1      -3.332  -8.717  -5.154  0.00  0.00    -0.269 OA
ATOM      9  N   UNL     1      -3.984  -7.167  -3.704  0.00  0.00    -0.229 N 
ATOM     10  H   UNL     1      -4.605  -6.456  -3.479  0.00  0.00    +0.173 HD
BRANCH   7  15
ATOM     11  C   UNL     1      -7.099  -6.118  -6.369  0.00  0.00    +0.001 A 
ATOM     12  C   UNL     1      -7.227  -6.797  -7.569  0.00  0.00    +0.003 A 
ATOM     13  C   UNL     1      -6.345  -7.810  -7.895  0.00  0.00    +0.039 A 
ATOM     14  C   UNL     1      -5.327  -8.152  -7.023  0.00  0.00    +0.136 A 
ATOM     15  C   UNL     1      -5.193  -7.469  -5.810  0.00  0.00    +0.073 A 
ATOM     16  C   UNL     1      -6.090  -6.447  -5.490  0.00  0.00    +0.016 A 
ATOM     17  F   UNL     1      -4.465  -9.142  -7.342  0.00  0.00    -0.205 F 
ENDBRANCH   7  15
ENDBRANCH   1   9
BRANCH   4  18
ATOM     18  C   UNL     1      -3.557  -5.141  -0.064  0.00  0.00    +0.098 C 
BRANCH  18  19
ATOM     19  C   UNL     1      -4.569  -3.995  -0.015  0.00  0.00    +0.016 C 
BRANCH  19  20
ATOM     20  N   UNL     1      -4.406  -3.146  -1.202  0.00  0.00    +0.387 N 
ATOM     21  C   UNL     1      -3.047  -2.590  -1.222  0.00  0.00    -0.078 C 
ATOM     22  C   UNL     1      -2.846  -1.771  -2.498  0.00  0.00    -0.019 C 
ATOM     23  C   UNL     1      -3.866  -0.629  -2.532  0.00  0.00    -0.004 C 
ATOM     24  C   UNL     1      -5.277  -1.216  -2.437  0.00  0.00    -0.019 C 
ATOM     25  C   UNL     1      -5.389  -2.057  -1.163  0.00  0.00    -0.078 C 
ATOM     26  H   UNL     1      -4.553  -3.700  -2.033  0.00  0.00    -0.081 HD
ENDBRANCH  19  20
BRANCH  19  27
ATOM     27  C   UNL     1      -5.966  -4.559   0.011  0.00  0.00    +0.093 A 
ATOM     28  C   UNL     1      -6.740  -4.694   1.103  0.00  0.00    +0.043 A 
ATOM     29  C   UNL     1      -7.961  -5.262   0.672  0.00  0.00    +0.041 A 
ATOM     30  C   UNL     1      -7.861  -5.440  -0.657  0.00  0.00    +0.195 A 
ATOM     31  O   UNL     1      -6.652  -5.007  -1.053  0.00  0.00    -0.469 OA
ENDBRANCH  19  27
ENDBRANCH  18  19
ENDBRANCH   4  18
TORSDOF 6
