REMARK  Name = ZINC09339134
REMARK  8 active torsions:
REMARK  status: ('A' for Active; 'I' for Inactive)
REMARK    1  A    between atoms: C_1  and  C_2
REMARK    2  A    between atoms: C_3  and  C_8
REMARK    3  A    between atoms: C_4  and  C_7
REMARK    4  A    between atoms: C_8  and  O_9
REMARK    5  A    between atoms: O_9  and  C_10
REMARK    6  A    between atoms: C_13  and  C_16
REMARK    7  A    between atoms: N_27  and  C_28
REMARK    8  A    between atoms: C_28  and  C_29
REMARK                            x       y       z     vdW  Elec       q    Type
REMARK                         _______ _______ _______ _____ _____    ______ ____
ROOT
ATOM      1  C   UNL     1       1.644   1.635  -0.162  0.00  0.00    +0.193 C 
ATOM      2  N   UNL     1       0.508   0.715  -0.304  0.00  0.00    -0.321 N 
ATOM      3  C   UNL     1      -0.771   1.249  -0.397  0.00  0.00    +0.041 A 
ATOM      4  C   UNL     1      -1.783   0.619  -1.096  0.00  0.00    +0.024 A 
ATOM      5  C   UNL     1      -3.038   1.195  -1.154  0.00  0.00    +0.002 A 
ATOM      6  C   UNL     1      -3.291   2.397  -0.513  0.00  0.00    +0.001 A 
ATOM      7  C   UNL     1      -2.295   3.037   0.196  0.00  0.00    +0.015 A 
ATOM      8  C   UNL     1      -1.027   2.467   0.263  0.00  0.00    +0.058 A 
ATOM      9  C   UNL     1       0.073   3.106   1.009  0.00  0.00    +0.250 C 
ATOM     10  O   UNL     1      -0.157   4.016   1.783  0.00  0.00    -0.270 OA
ATOM     11  N   UNL     1       1.336   2.671   0.823  0.00  0.00    -0.272 N 
ATOM     12  H   UNL     1       0.648  -0.244  -0.336  0.00  0.00    +0.148 HD
ENDROOT
BRANCH   1  16
ATOM     13  C   UNL     1       2.463   3.465  -3.935  0.00  0.00    +0.121 A 
ATOM     14  C   UNL     1       2.042   2.145  -3.881  0.00  0.00    +0.046 A 
ATOM     15  C   UNL     1       1.778   1.555  -2.659  0.00  0.00    +0.010 A 
ATOM     16  C   UNL     1       1.933   2.280  -1.492  0.00  0.00    -0.009 A 
ATOM     17  C   UNL     1       2.347   3.598  -1.544  0.00  0.00    +0.010 A 
ATOM     18  C   UNL     1       2.618   4.191  -2.763  0.00  0.00    +0.046 A 
BRANCH  13  19
ATOM     19  O   UNL     1       2.724   4.048  -5.135  0.00  0.00    -0.487 OA
BRANCH  19  20
ATOM     20  C   UNL     1       3.154   5.410  -5.115  0.00  0.00    +0.269 C 
BRANCH  20  23
ATOM     21  C   UNL     1       5.917   5.270  -6.810  0.00  0.00    +0.069 C 
ATOM     22  C   UNL     1       4.593   5.825  -7.271  0.00  0.00    +0.087 A 
ATOM     23  C   UNL     1       3.393   5.882  -6.526  0.00  0.00    +0.054 A 
ATOM     24  C   UNL     1       2.510   6.464  -7.372  0.00  0.00    +0.141 A 
ATOM     25  O   UNL     1       3.178   6.707  -8.509  0.00  0.00    -0.359 OA
ATOM     26  N   UNL     1       4.328   6.343  -8.436  0.00  0.00    -0.083 NA
ATOM     27  C   UNL     1       1.063   6.777  -7.091  0.00  0.00    +0.089 C 
ENDBRANCH  20  23
ENDBRANCH  19  20
ENDBRANCH  13  19
ENDBRANCH   1  16
BRANCH  11  28
ATOM     28  C   UNL     1       2.420   3.248   1.622  0.00  0.00    +0.141 C 
BRANCH  28  29
ATOM     29  C   UNL     1       2.676   2.366   2.846  0.00  0.00    +0.136 C 
ATOM     30  C   UNL     1       3.901   2.889   3.622  0.00  0.00    +0.035 C 
ATOM     31  C   UNL     1       3.352   3.191   5.037  0.00  0.00    +0.031 C 
ATOM     32  C   UNL     1       2.068   2.325   5.080  0.00  0.00    +0.160 C 
ATOM     33  O   UNL     1       1.549   2.425   3.736  0.00  0.00    -0.375 OA
ENDBRANCH  28  29
ENDBRANCH  11  28
TORSDOF 6
