REMARK  Name = ZINC21456848
REMARK  8 active torsions:
REMARK  status: ('A' for Active; 'I' for Inactive)
REMARK    1  A    between atoms: C_1  and  C_2
REMARK    2  A    between atoms: C_7  and  C_8
REMARK    3  A    between atoms: C_11  and  S_14
REMARK    4  A    between atoms: N_12  and  C_13
REMARK    5  A    between atoms: S_14  and  C_15
REMARK    6  A    between atoms: C_15  and  C_17
REMARK    7  A    between atoms: C_15  and  C_18
REMARK    8  A    between atoms: N_20  and  C_21
REMARK                            x       y       z     vdW  Elec       q    Type
REMARK                         _______ _______ _______ _____ _____    ______ ____
ROOT
ATOM      1  S   UNL     1      -0.266  -5.759   0.045  0.00  0.00    -0.074 S 
ENDROOT
BRANCH   1   5
ATOM      2  C   UNL     1       1.229  -2.153  -0.128  0.00  0.00    +0.165 A 
ATOM      3  N   UNL     1       2.297  -2.911  -0.214  0.00  0.00    -0.128 NA
ATOM      4  N   UNL     1       1.959  -4.151  -0.171  0.00  0.00    -0.122 NA
ATOM      5  C   UNL     1       0.654  -4.259  -0.054  0.00  0.00    +0.192 A 
ATOM      6  N   UNL     1       0.145  -2.992  -0.016  0.00  0.00    -0.305 N 
ATOM      7  C   UNL     1      -1.263  -2.608   0.112  0.00  0.00    +0.153 C 
BRANCH   2  14
ATOM      8  C   UNL     1       2.999  -0.669   1.615  0.00  0.00    +0.044 C 
ATOM      9  C   UNL     1       2.047   0.052   0.695  0.00  0.00    -0.040 A 
ATOM     10  C   UNL     1       2.014   1.431   0.678  0.00  0.00    +0.004 A 
ATOM     11  C   UNL     1       1.141   2.094  -0.166  0.00  0.00    +0.000 A 
ATOM     12  C   UNL     1       0.296   1.380  -0.997  0.00  0.00    +0.001 A 
ATOM     13  C   UNL     1       0.319   0.001  -0.990  0.00  0.00    +0.012 A 
ATOM     14  C   UNL     1       1.198  -0.675  -0.141  0.00  0.00    +0.022 A 
ENDBRANCH   2  14
ENDBRANCH   1   5
BRANCH   1  15
ATOM     15  C   UNL     1       1.083  -6.962  -0.062  0.00  0.00    +0.137 C 
ATOM     16  C   UNL     1       1.982  -6.831   1.169  0.00  0.00    +0.029 C 
BRANCH  15  17
ATOM     17  C   UNL     1       0.510  -8.354  -0.120  0.00  0.00    +0.230 C 
ATOM     18  O   UNL     1      -0.622  -8.561   0.264  0.00  0.00    -0.274 OA
ATOM     19  N   UNL     1       1.255  -9.370  -0.598  0.00  0.00    -0.283 N 
ATOM     20  H   UNL     1       2.311  -9.203  -0.857  0.00  0.00    +0.155 HD
BRANCH  19  21
ATOM     21  C   UNL     1       0.686 -10.639  -0.764  0.00  0.00    +0.052 A 
ATOM     22  C   UNL     1      -0.648 -10.760  -1.131  0.00  0.00    +0.026 A 
ATOM     23  C   UNL     1      -1.207 -12.012  -1.294  0.00  0.00    +0.022 A 
ATOM     24  C   UNL     1      -0.440 -13.146  -1.092  0.00  0.00    +0.042 A 
ATOM     25  C   UNL     1       0.889 -13.029  -0.725  0.00  0.00    +0.041 A 
ATOM     26  C   UNL     1       1.455 -11.778  -0.566  0.00  0.00    +0.064 A 
ATOM     27 CL   UNL     1       3.125 -11.632  -0.114  0.00  0.00    -0.082 Cl
ATOM     28 CL   UNL     1      -1.147 -14.718  -1.298  0.00  0.00    -0.083 Cl
ENDBRANCH  19  21
ENDBRANCH  15  17
ENDBRANCH   1  15
TORSDOF 5
