REMARK  Name = ZINC15085154
REMARK  5 active torsions:
REMARK  status: ('A' for Active; 'I' for Inactive)
REMARK    1  A    between atoms: C_4  and  N_7
REMARK    2  A    between atoms: C_18  and  C_20
REMARK    3  A    between atoms: C_23  and  O_26
REMARK    4  A    between atoms: O_26  and  C_27
REMARK    5  A    between atoms: C_27  and  C_28
REMARK                            x       y       z     vdW  Elec       q    Type
REMARK                         _______ _______ _______ _____ _____    ______ ____
ROOT
ATOM      1  N   UNL     1       3.620  -0.649  -0.036  0.00  0.00    -0.298 N 
ATOM      2  C   UNL     1       3.644  -2.045   0.061  0.00  0.00    +0.150 A 
ATOM      3  C   UNL     1       4.784  -2.838   0.162  0.00  0.00    +0.042 A 
ATOM      4  C   UNL     1       4.383  -4.145   0.245  0.00  0.00    +0.126 A 
ATOM      5  N   UNL     1       3.038  -4.165   0.186  0.00  0.00    -0.262 N 
ATOM      6  H   UNL     1       2.477  -4.955   0.216  0.00  0.00    +0.190 HD
ATOM      7  N   UNL     1       2.593  -2.837   0.080  0.00  0.00    -0.157 NA
ATOM      8  N   UNL     1       5.298  -5.189   0.377  0.00  0.00    -0.270 N 
ATOM      9  C   UNL     1       6.588  -4.877   0.625  0.00  0.00    +0.219 C 
ATOM     10  O   UNL     1       7.427  -5.750   0.556  0.00  0.00    -0.275 OA
ATOM     11  C   UNL     1       7.017  -3.482   0.982  0.00  0.00    +0.109 C 
ATOM     12  C   UNL     1       6.237  -2.437   0.177  0.00  0.00    +0.064 C 
ATOM     13  H   UNL     1       4.450  -0.154  -0.121  0.00  0.00    +0.154 HD
ATOM     14  H   UNL     1       5.016  -6.113   0.294  0.00  0.00    +0.156 HD
ENDROOT
BRANCH   1  18
ATOM     15  C   UNL     1      -0.015   1.381   0.038  0.00  0.00    +0.000 A 
ATOM     16  C   UNL     1       0.093   0.137   0.633  0.00  0.00    +0.002 A 
ATOM     17  C   UNL     1       1.297  -0.539   0.610  0.00  0.00    +0.023 A 
ATOM     18  C   UNL     1       2.400   0.032  -0.012  0.00  0.00    +0.032 A 
ATOM     19  C   UNL     1       2.289   1.282  -0.609  0.00  0.00    +0.023 A 
ATOM     20  C   UNL     1       1.082   1.952  -0.582  0.00  0.00    +0.002 A 
ENDBRANCH   1  18
BRANCH  12  21
ATOM     21  C   UNL     1       6.384  -1.084   0.826  0.00  0.00    -0.039 A 
ATOM     22  C   UNL     1       5.979  -0.899   2.135  0.00  0.00    +0.008 A 
ATOM     23  C   UNL     1       6.112   0.340   2.731  0.00  0.00    +0.046 A 
ATOM     24  C   UNL     1       6.652   1.399   2.015  0.00  0.00    +0.121 A 
ATOM     25  C   UNL     1       7.057   1.210   0.702  0.00  0.00    +0.046 A 
ATOM     26  C   UNL     1       6.927  -0.032   0.112  0.00  0.00    +0.008 A 
BRANCH  24  27
ATOM     27  O   UNL     1       6.783   2.619   2.599  0.00  0.00    -0.487 OA
BRANCH  27  28
ATOM     28  C   UNL     1       7.347   3.662   1.802  0.00  0.00    +0.267 C 
BRANCH  28  29
ATOM     29  C   UNL     1       7.414   4.932   2.611  0.00  0.00    +0.025 A 
ATOM     30  C   UNL     1       6.967   4.943   3.919  0.00  0.00    +0.010 A 
ATOM     31  C   UNL     1       7.028   6.107   4.661  0.00  0.00    +0.001 A 
ATOM     32  C   UNL     1       7.536   7.263   4.096  0.00  0.00    +0.003 A 
ATOM     33  C   UNL     1       7.983   7.254   2.789  0.00  0.00    +0.039 A 
ATOM     34  C   UNL     1       7.927   6.087   2.046  0.00  0.00    +0.130 A 
ATOM     35  F   UNL     1       8.369   6.076   0.769  0.00  0.00    -0.205 F 
ENDBRANCH  28  29
ENDBRANCH  27  28
ENDBRANCH  24  27
ENDBRANCH  12  21
TORSDOF 5
