REMARK  Name = ZINC35314495
REMARK  4 active torsions:
REMARK  status: ('A' for Active; 'I' for Inactive)
REMARK    1  A    between atoms: C_3  and  C_6
REMARK    2  A    between atoms: C_9  and  C_27
REMARK    3  A    between atoms: C_14  and  C_16
REMARK    4  A    between atoms: N_18  and  C_19
REMARK                            x       y       z     vdW  Elec       q    Type
REMARK                         _______ _______ _______ _____ _____    ______ ____
ROOT
ATOM      1  C   UNL     1       3.627   0.626  -0.021  0.00  0.00    +0.140 C 
ATOM      2  C   UNL     1       4.157   0.343   1.389  0.00  0.00    +0.066 C 
ATOM      3  C   UNL     1       3.558  -0.965   1.918  0.00  0.00    +0.215 C 
ATOM      4  N   UNL     1       3.732  -2.010   0.906  0.00  0.00    -0.238 N 
ATOM      5  C   UNL     1       3.977  -1.755  -0.413  0.00  0.00    +0.119 A 
ATOM      6  C   UNL     1       4.086  -2.934  -1.056  0.00  0.00    +0.078 A 
ATOM      7  C   UNL     1       3.900  -3.960  -0.101  0.00  0.00    +0.149 A 
ATOM      8  N   UNL     1       3.688  -3.394   1.074  0.00  0.00    -0.164 NA
ATOM      9  N   UNL     1       4.079  -0.453  -0.922  0.00  0.00    -0.319 N 
ATOM     10  H   UNL     1       4.426  -0.270  -1.809  0.00  0.00    +0.148 HD
ENDROOT
BRANCH   1  13
ATOM     11  C   UNL     1       0.016   1.359   0.039  0.00  0.00    +0.041 A 
ATOM     12  C   UNL     1       1.365   1.781   0.021  0.00  0.00    +0.046 A 
ATOM     13  C   UNL     1       2.121   0.668   0.002  0.00  0.00    +0.125 A 
ATOM     14  O   UNL     1       1.305  -0.399   0.008  0.00  0.00    -0.466 OA
ATOM     15  C   UNL     1       0.028   0.014   0.030  0.00  0.00    +0.195 A 
ENDBRANCH   1  13
BRANCH   7  16
ATOM     16  C   UNL     1       3.936  -5.411  -0.371  0.00  0.00    +0.268 C 
ATOM     17  O   UNL     1       4.141  -5.816  -1.499  0.00  0.00    -0.268 OA
ATOM     18  N   UNL     1       3.742  -6.288   0.634  0.00  0.00    -0.280 N 
ATOM     19  H   UNL     1       3.646  -5.968   1.545  0.00  0.00    +0.155 HD
BRANCH  18  20
ATOM     20  C   UNL     1       3.680  -7.660   0.364  0.00  0.00    +0.034 A 
ATOM     21  C   UNL     1       2.823  -8.474   1.093  0.00  0.00    +0.026 A 
ATOM     22  C   UNL     1       2.763  -9.828   0.824  0.00  0.00    +0.040 A 
ATOM     23  C   UNL     1       3.556 -10.373  -0.171  0.00  0.00    +0.124 A 
ATOM     24  C   UNL     1       4.412  -9.563  -0.899  0.00  0.00    +0.040 A 
ATOM     25  C   UNL     1       4.471  -8.208  -0.637  0.00  0.00    +0.026 A 
ATOM     26  F   UNL     1       3.496 -11.697  -0.432  0.00  0.00    -0.205 F 
ENDBRANCH  18  20
ENDBRANCH   7  16
BRANCH   3  27
ATOM     27  C   UNL     1       4.274  -1.371   3.208  0.00  0.00    +0.412 C 
ATOM     28  F   UNL     1       4.116  -0.365   4.167  0.00  0.00    -0.168 F 
ATOM     29  F   UNL     1       3.726  -2.565   3.689  0.00  0.00    -0.168 F 
ATOM     30  F   UNL     1       5.636  -1.556   2.946  0.00  0.00    -0.168 F 
ENDBRANCH   3  27
TORSDOF 4
