REMARK  Name = ZINC39362852
REMARK  8 active torsions:
REMARK  status: ('A' for Active; 'I' for Inactive)
REMARK    1  A    between atoms: C_5  and  C_7
REMARK    2  A    between atoms: C_7  and  N_8
REMARK    3  A    between atoms: C_9  and  C_11
REMARK    4  A    between atoms: C_11  and  S_12
REMARK    5  A    between atoms: S_12  and  C_13
REMARK    6  A    between atoms: C_16  and  C_26
REMARK    7  A    between atoms: N_18  and  C_19
REMARK    8  A    between atoms: C_26  and  C_27
REMARK                            x       y       z     vdW  Elec       q    Type
REMARK                         _______ _______ _______ _____ _____    ______ ____
ROOT
ATOM      1  C   UNL     1       2.195  -6.757   4.623  0.00  0.00    +0.180 C 
ATOM      2  N   UNL     1       2.345  -5.898   5.574  0.00  0.00    -0.162 NA
ATOM      3  N   UNL     1       2.545  -6.529   6.809  0.00  0.00    -0.246 N 
ATOM      4  C   UNL     1       2.506  -7.976   6.540  0.00  0.00    +0.187 C 
ATOM      5  N   UNL     1       2.268  -8.062   5.089  0.00  0.00    -0.258 N 
ATOM      6  H   UNL     1       2.681  -6.098   7.667  0.00  0.00    +0.170 HD
ENDROOT
BRANCH   5   7
ATOM      7  C   UNL     1       2.143  -9.229   4.330  0.00  0.00    +0.038 A 
ATOM      8  C   UNL     1       3.232 -10.077   4.172  0.00  0.00    +0.026 A 
ATOM      9  C   UNL     1       3.106 -11.229   3.422  0.00  0.00    +0.040 A 
ATOM     10  C   UNL     1       1.895 -11.540   2.826  0.00  0.00    +0.124 A 
ATOM     11  C   UNL     1       0.808 -10.696   2.982  0.00  0.00    +0.040 A 
ATOM     12  C   UNL     1       0.928  -9.546   3.736  0.00  0.00    +0.026 A 
ATOM     13  F   UNL     1       1.774 -12.668   2.092  0.00  0.00    -0.205 F 
ENDBRANCH   5   7
BRANCH   1  14
ATOM     14  S   UNL     1       1.924  -6.325   2.937  0.00  0.00    -0.079 S 
BRANCH  14  15
ATOM     15  C   UNL     1       1.928  -4.511   2.942  0.00  0.00    +0.172 C 
BRANCH  15  17
ATOM     16  N   UNL     1       1.667  -2.678   1.302  0.00  0.00    -0.310 N 
ATOM     17  C   UNL     1       1.703  -4.003   1.541  0.00  0.00    +0.224 C 
ATOM     18  O   UNL     1       1.554  -4.789   0.629  0.00  0.00    -0.275 OA
ATOM     19  H   UNL     1       1.786  -2.050   2.032  0.00  0.00    +0.149 HD
BRANCH  16  20
ATOM     20  C   UNL     1       1.448  -2.185  -0.060  0.00  0.00    +0.141 C 
BRANCH  20  25
ATOM     21  C   UNL     1       0.259   1.399  -0.068  0.00  0.00    +0.000 A 
ATOM     22  C   UNL     1       1.457   2.088  -0.048  0.00  0.00    +0.001 A 
ATOM     23  C   UNL     1       2.653   1.395  -0.032  0.00  0.00    +0.020 A 
ATOM     24  C   UNL     1       2.650   0.011  -0.036  0.00  0.00    +0.046 A 
ATOM     25  C   UNL     1       1.451  -0.678  -0.055  0.00  0.00    -0.012 A 
ATOM     26  C   UNL     1       0.256   0.017  -0.071  0.00  0.00    +0.006 A 
ATOM     27 CL   UNL     1       4.152  -0.860  -0.017  0.00  0.00    -0.083 Cl
ENDBRANCH  20  25
ENDBRANCH  16  20
ENDBRANCH  15  17
ENDBRANCH  14  15
ENDBRANCH   1  14
BRANCH   4  28
ATOM     28  C   UNL     1       1.360  -8.635   7.310  0.00  0.00    +0.097 C 
BRANCH  28  29
ATOM     29  C   UNL     1       1.575  -8.447   8.790  0.00  0.00    +0.029 A 
ATOM     30  N   UNL     1       2.371  -9.316   9.484  0.00  0.00    -0.311 N 
ATOM     31  C   UNL     1       2.570  -9.157  10.805  0.00  0.00    +0.327 A 
ATOM     32  O   UNL     1       3.282  -9.941  11.403  0.00  0.00    -0.247 OA
ATOM     33  N   UNL     1       1.993  -8.142  11.475  0.00  0.00    -0.275 N 
ATOM     34  C   UNL     1       1.201  -7.264  10.826  0.00  0.00    +0.254 A 
ATOM     35  O   UNL     1       0.678  -6.345  11.431  0.00  0.00    -0.268 OA
ATOM     36  C   UNL     1       0.987  -7.417   9.435  0.00  0.00    +0.091 A 
ATOM     37  H   UNL     1       2.147  -8.042  12.427  0.00  0.00    +0.173 HD
ATOM     38  H   UNL     1       2.796 -10.054   9.020  0.00  0.00    +0.170 HD
ENDBRANCH  28  29
ENDBRANCH   4  28
TORSDOF 8
