REMARK  Name = ZINC58157939
REMARK  4 active torsions:
REMARK  status: ('A' for Active; 'I' for Inactive)
REMARK    1  A    between atoms: C_1  and  C_2
REMARK    2  A    between atoms: C_2  and  C_4
REMARK    3  A    between atoms: C_2  and  N_10
REMARK    4  A    between atoms: C_18  and  C_20
REMARK                            x       y       z     vdW  Elec       q    Type
REMARK                         _______ _______ _______ _____ _____    ______ ____
ROOT
ATOM      1  N   UNL     1       0.711  -0.489   1.189  0.00  0.00    -0.320 N 
ATOM      2  C   UNL     1       0.034  -0.637   2.386  0.00  0.00    +0.131 A 
ATOM      3  C   UNL     1       0.686  -1.202   3.518  0.00  0.00    +0.051 A 
ATOM      4  C   UNL     1       2.060  -1.691   3.634  0.00  0.00    -0.025 A 
ATOM      5  C   UNL     1       2.435  -2.184   4.832  0.00  0.00    -0.004 A 
ATOM      6  S   UNL     1       1.002  -2.029   5.864  0.00  0.00    -0.073 S 
ATOM      7  C   UNL     1      -0.102  -1.302   4.682  0.00  0.00    +0.114 A 
ATOM      8  N   UNL     1      -1.357  -0.896   4.703  0.00  0.00    -0.224 NA
ATOM      9  C   UNL     1      -1.908  -0.382   3.620  0.00  0.00    +0.135 A 
ATOM     10  N   UNL     1      -1.227  -0.251   2.496  0.00  0.00    -0.217 NA
ATOM     11  C   UNL     1       3.774  -2.743   5.205  0.00  0.00    +0.043 C 
ATOM     12  C   UNL     1       4.561  -3.019   3.916  0.00  0.00    +0.005 C 
ATOM     13  C   UNL     1       4.464  -1.788   3.010  0.00  0.00    +0.005 C 
ATOM     14  C   UNL     1       3.041  -1.655   2.465  0.00  0.00    +0.037 C 
ATOM     15  H   UNL     1       1.608  -0.846   1.092  0.00  0.00    +0.148 HD
ENDROOT
BRANCH   9  16
ATOM     16  C   UNL     1      -3.343   0.074   3.670  0.00  0.00    +0.057 C 
ATOM     17  C   UNL     1      -4.030   0.100   5.037  0.00  0.00    +0.012 C 
ATOM     18  C   UNL     1      -4.405  -0.973   4.013  0.00  0.00    +0.012 C 
ENDBRANCH   9  16
BRANCH   1  20
ATOM     19  C   UNL     1       0.293   1.712   0.210  0.00  0.00    +0.034 C 
ATOM     20  C   UNL     1       0.073   0.205   0.068  0.00  0.00    +0.117 C 
BRANCH  20  21
ATOM     21  C   UNL     1       0.677  -0.271  -1.228  0.00  0.00    +0.061 A 
ATOM     22  C   UNL     1      -0.054  -0.180  -2.397  0.00  0.00    +0.025 A 
ATOM     23  C   UNL     1       0.512  -0.621  -3.584  0.00  0.00    +0.003 A 
ATOM     24  C   UNL     1       1.797  -1.139  -3.549  0.00  0.00    +0.020 A 
ATOM     25  C   UNL     1       2.467  -1.199  -2.342  0.00  0.00    +0.111 A 
ATOM     26  N   UNL     1       1.900  -0.765  -1.234  0.00  0.00    -0.258 NA
ENDBRANCH  20  21
ENDBRANCH   1  20
TORSDOF 3
