REMARK  Name = ZINC01452153
REMARK  6 active torsions:
REMARK  status: ('A' for Active; 'I' for Inactive)
REMARK    1  A    between atoms: C_1  and  C_2
REMARK    2  A    between atoms: C_2  and  C_10
REMARK    3  A    between atoms: C_3  and  C_4
REMARK    4  A    between atoms: N_14  and  N_18
REMARK    5  A    between atoms: C_19  and  C_21
REMARK    6  A    between atoms: C_24  and  N_27
REMARK                            x       y       z     vdW  Elec       q    Type
REMARK                         _______ _______ _______ _____ _____    ______ ____
ROOT
ATOM      1  C   UNL     1      -0.465  -0.833  -1.093  0.00  0.00    +0.023 C 
ATOM      2  C   UNL     1      -0.592  -0.281  -2.334  0.00  0.00    +0.078 C 
ATOM      3  C   UNL     1      -0.951  -0.919  -3.615  0.00  0.00    +0.275 C 
ATOM      4  O   UNL     1      -1.190  -2.110  -3.691  0.00  0.00    -0.267 OA
ATOM      5  N   UNL     1      -1.001  -0.132  -4.676  0.00  0.00    -0.169 N 
ATOM      6  C   UNL     1      -0.736   1.187  -4.588  0.00  0.00    +0.138 C 
ATOM      7  S   UNL     1      -0.748   2.360  -5.835  0.00  0.00    -0.026 S 
ATOM      8  S   UNL     1      -0.377   1.416  -2.854  0.00  0.00    -0.060 S 
ENDROOT
BRANCH   5   9
ATOM      9  N   UNL     1      -1.336  -0.681  -5.921  0.00  0.00    -0.222 N 
ATOM     10  C   UNL     1      -2.560  -0.468  -6.444  0.00  0.00    +0.261 C 
ATOM     11  O   UNL     1      -3.373   0.200  -5.836  0.00  0.00    -0.269 OA
ATOM     12  H   UNL     1      -0.688  -1.215  -6.406  0.00  0.00    +0.174 HD
BRANCH  10  13
ATOM     13  C   UNL     1      -2.914  -1.048  -7.757  0.00  0.00    +0.038 A 
ATOM     14  C   UNL     1      -1.985  -1.821  -8.455  0.00  0.00    +0.015 A 
ATOM     15  C   UNL     1      -2.322  -2.360  -9.680  0.00  0.00    +0.033 A 
ATOM     16  C   UNL     1      -3.577  -2.134 -10.216  0.00  0.00    +0.126 A 
ATOM     17  C   UNL     1      -4.502  -1.368  -9.530  0.00  0.00    +0.033 A 
ATOM     18  C   UNL     1      -4.180  -0.829  -8.301  0.00  0.00    +0.015 A 
BRANCH  16  19
ATOM     19  N   UNL     1      -3.931  -2.715 -11.531  0.00  0.00    +0.056 N 
ATOM     20  O   UNL     1      -3.124  -3.384 -12.134  0.00  0.00    -0.126 OA
ATOM     21  O   UNL     1      -5.027  -2.519 -12.003  0.00  0.00    -0.126 OA
ENDBRANCH  16  19
ENDBRANCH  10  13
ENDBRANCH   5   9
BRANCH   1  23
ATOM     22  C   UNL     1      -1.186   1.117   0.341  0.00  0.00    +0.044 C 
ATOM     23  C   UNL     1      -0.234  -0.008   0.025  0.00  0.00    -0.049 C 
ATOM     24  C   UNL     1       0.844  -0.225   0.815  0.00  0.00    +0.011 C 
BRANCH  24  25
ATOM     25  C   UNL     1       1.851  -1.223   0.427  0.00  0.00    -0.025 A 
ATOM     26  C   UNL     1       2.086  -1.496  -0.925  0.00  0.00    +0.008 A 
ATOM     27  C   UNL     1       3.033  -2.433  -1.281  0.00  0.00    +0.001 A 
ATOM     28  C   UNL     1       3.750  -3.103  -0.305  0.00  0.00    +0.000 A 
ATOM     29  C   UNL     1       3.523  -2.840   1.034  0.00  0.00    +0.001 A 
ATOM     30  C   UNL     1       2.584  -1.901   1.407  0.00  0.00    +0.008 A 
ENDBRANCH  24  25
ENDBRANCH   1  23
TORSDOF 5
