REMARK  Name = ZINC33292276
REMARK  4 active torsions:
REMARK  status: ('A' for Active; 'I' for Inactive)
REMARK    1  A    between atoms: C_13  and  C_15
REMARK    2  A    between atoms: C_18  and  C_20
REMARK    3  A    between atoms: C_23  and  S_26
REMARK    4  A    between atoms: S_26  and  N_29
REMARK                            x       y       z     vdW  Elec       q    Type
REMARK                         _______ _______ _______ _____ _____    ______ ____
ROOT
ATOM      1  C   UNL     1       0.167   9.320  -2.670  0.00  0.00    +0.304 A 
ATOM      2  N   UNL     1      -1.066   8.948  -2.930  0.00  0.00    -0.102 NA
ATOM      3  N   UNL     1      -1.505   9.608  -3.944  0.00  0.00    -0.107 NA
ATOM      4  C   UNL     1      -0.563  10.422  -4.376  0.00  0.00    +0.249 A 
ATOM      5  O   UNL     1       0.509  10.256  -3.580  0.00  0.00    -0.412 OA
ENDROOT
BRANCH   1  18
ATOM      6  C   UNL     1      -0.980   1.650  -0.165  0.00  0.00    +0.005 A 
ATOM      7  C   UNL     1       0.255   1.014  -0.151  0.00  0.00    +0.018 A 
ATOM      8  C   UNL     1       1.407   1.773  -0.113  0.00  0.00    +0.084 A 
ATOM      9  N   UNL     1       1.347   3.091  -0.085  0.00  0.00    -0.350 N 
ATOM     10  C   UNL     1       0.190   3.735  -0.091  0.00  0.00    +0.099 A 
ATOM     11  C   UNL     1      -1.010   3.032  -0.129  0.00  0.00    +0.042 A 
ATOM     12  N   UNL     1       0.175   5.124  -0.060  0.00  0.00    -0.314 N 
ATOM     13  C   UNL     1      -0.583   5.668  -1.195  0.00  0.00    +0.125 C 
ATOM     14  C   UNL     1      -0.731   7.184  -1.027  0.00  0.00    +0.127 C 
ATOM     15  N   UNL     1       0.606   7.766  -0.836  0.00  0.00    -0.291 N 
ATOM     16  C   UNL     1       1.479   7.181   0.194  0.00  0.00    +0.127 C 
ATOM     17  C   UNL     1       1.540   5.665  -0.022  0.00  0.00    +0.125 C 
ATOM     18  C   UNL     1       1.022   8.806  -1.586  0.00  0.00    +0.303 C 
ATOM     19  O   UNL     1       2.102   9.320  -1.367  0.00  0.00    -0.265 OA
ATOM     20  H   UNL     1       2.274   3.683  -0.054  0.00  0.00    +0.166 HD
ENDBRANCH   1  18
BRANCH   4  21
ATOM     21  C   UNL     1      -0.665  11.348  -5.522  0.00  0.00    +0.039 A 
ATOM     22  C   UNL     1       0.416  12.162  -5.865  0.00  0.00    +0.015 A 
ATOM     23  C   UNL     1       0.316  13.020  -6.941  0.00  0.00    +0.029 A 
ATOM     24  C   UNL     1      -0.857  13.083  -7.672  0.00  0.00    +0.106 A 
ATOM     25  C   UNL     1      -1.935  12.283  -7.334  0.00  0.00    +0.029 A 
ATOM     26  C   UNL     1      -1.846  11.417  -6.264  0.00  0.00    +0.015 A 
BRANCH  24  27
ATOM     27  S   UNL     1      -0.980  14.188  -9.039  0.00  0.00    +0.061 S 
ATOM     28  O   UNL     1       0.347  14.430  -9.486  0.00  0.00    -0.153 OA
ATOM     29  O   UNL     1      -1.988  13.667  -9.893  0.00  0.00    -0.153 OA
BRANCH  27  30
ATOM     30  N   UNL     1      -1.553  15.628  -8.455  0.00  0.00    -0.177 NA
ATOM     31  C   UNL     1      -2.969  16.009  -8.354  0.00  0.00    +0.109 C 
ATOM     32  C   UNL     1      -3.019  17.440  -7.779  0.00  0.00    +0.018 C 
ATOM     33  C   UNL     1      -1.614  18.001  -8.125  0.00  0.00    +0.018 C 
ATOM     34  C   UNL     1      -0.727  16.742  -7.955  0.00  0.00    +0.109 C 
ENDBRANCH  27  30
ENDBRANCH  24  27
ENDBRANCH   4  21
TORSDOF 4
