REMARK  Name = ZINC31579424
REMARK  8 active torsions:
REMARK  status: ('A' for Active; 'I' for Inactive)
REMARK    1  A    between atoms: C_1  and  C_2
REMARK    2  A    between atoms: C_2  and  O_3
REMARK    3  A    between atoms: O_3  and  C_4
REMARK    4  A    between atoms: C_9  and  N_10
REMARK    5  A    between atoms: C_11  and  C_13
REMARK    6  A    between atoms: C_13  and  N_14
REMARK    7  A    between atoms: N_17  and  S_20
REMARK    8  A    between atoms: S_20  and  C_23
REMARK                            x       y       z     vdW  Elec       q    Type
REMARK                         _______ _______ _______ _____ _____    ______ ____
ROOT
ATOM      1  N   UNL     1       4.381  -0.545  -4.439  0.00  0.00    +0.387 N 
ATOM      2  C   UNL     1       3.504  -1.326  -3.556  0.00  0.00    -0.061 C 
ATOM      3  C   UNL     1       4.098  -1.349  -2.143  0.00  0.00    +0.091 C 
ATOM      4  N   UNL     1       5.485  -1.831  -2.228  0.00  0.00    -0.180 NA
ATOM      5  C   UNL     1       6.390  -1.183  -3.189  0.00  0.00    +0.091 C 
ATOM      6  C   UNL     1       5.704  -1.170  -4.564  0.00  0.00    -0.061 C 
ATOM      7  H   UNL     1       4.520   0.446  -3.982  0.00  0.00    -0.081 HD
ENDROOT
BRANCH   4   8
ATOM      8  S   UNL     1       6.016  -3.068  -1.262  0.00  0.00    +0.067 S 
ATOM      9  O   UNL     1       5.166  -3.087  -0.123  0.00  0.00    -0.152 OA
ATOM     10  O   UNL     1       7.426  -2.926  -1.159  0.00  0.00    -0.152 OA
BRANCH   8  11
ATOM     11  C   UNL     1       5.724  -4.571  -2.133  0.00  0.00    +0.144 A 
ATOM     12  C   UNL     1       6.537  -5.231  -2.993  0.00  0.00    +0.037 A 
ATOM     13  C   UNL     1       6.094  -6.409  -3.566  0.00  0.00    +0.025 A 
ATOM     14  C   UNL     1       4.857  -6.867  -3.252  0.00  0.00    +0.057 A 
ATOM     15  S   UNL     1       4.279  -5.620  -2.113  0.00  0.00    -0.062 S 
ATOM     16 BR   UNL     1       3.971  -8.421  -3.866  0.00  0.00    -0.043 Br
ENDBRANCH   8  11
ENDBRANCH   4   8
BRANCH   1  17
ATOM     17  C   UNL     1       3.763  -0.354  -5.758  0.00  0.00    +0.019 C 
BRANCH  17  19
ATOM     18  N   UNL     1       3.173  -1.748  -7.715  0.00  0.00    -0.284 N 
ATOM     19  C   UNL     1       3.619  -1.688  -6.444  0.00  0.00    +0.201 C 
ATOM     20  O   UNL     1       3.904  -2.708  -5.853  0.00  0.00    -0.278 OA
ATOM     21  H   UNL     1       2.982  -0.820  -8.275  0.00  0.00    +0.155 HD
BRANCH  18  27
ATOM     22  C   UNL     1       1.931  -3.141  -9.256  0.00  0.00    +0.142 A 
ATOM     23  C   UNL     1       1.719  -4.373  -9.854  0.00  0.00    +0.047 A 
ATOM     24  C   UNL     1       2.521  -5.449  -9.524  0.00  0.00    +0.004 A 
ATOM     25  C   UNL     1       3.536  -5.301  -8.597  0.00  0.00    +0.002 A 
ATOM     26  C   UNL     1       3.758  -4.074  -8.000  0.00  0.00    +0.027 A 
ATOM     27  C   UNL     1       2.954  -2.991  -8.322  0.00  0.00    +0.076 A 
BRANCH  22  28
ATOM     28  O   UNL     1       1.144  -2.081  -9.581  0.00  0.00    -0.490 OA
BRANCH  28  30
ATOM     29  C   UNL     1      -0.661  -1.011 -10.781  0.00  0.00    +0.048 C 
ATOM     30  C   UNL     1       0.115  -2.309 -10.547  0.00  0.00    +0.226 C 
ENDBRANCH  28  30
ENDBRANCH  22  28
ENDBRANCH  18  27
ENDBRANCH  17  19
ENDBRANCH   1  17
TORSDOF 7
