REMARK  Name = ZINC12000558
REMARK  13 active torsions:
REMARK  status: ('A' for Active; 'I' for Inactive)
REMARK    1  A    between atoms: C_1  and  C_2
REMARK    2  A    between atoms: C_2  and  C_19
REMARK    3  A    between atoms: N_5  and  C_9
REMARK    4  A    between atoms: C_9  and  C_10
REMARK    5  A    between atoms: C_10  and  C_11
REMARK    6  A    between atoms: C_14  and  O_17
REMARK    7  A    between atoms: O_17  and  C_18
REMARK    8  A    between atoms: C_24  and  C_25
REMARK    9  A    between atoms: C_24  and  N_70
REMARK   10  A    between atoms: C_28  and  O_31
REMARK   11  A    between atoms: O_31  and  C_32
REMARK   12  A    between atoms: C_32  and  C_33
REMARK   13  A    between atoms: C_33  and  O_34
REMARK                            x       y       z     vdW  Elec       q    Type
REMARK                         _______ _______ _______ _____ _____    ______ ____
ROOT
ATOM      1  C   UNL     1      -1.238   9.311  -5.273  0.00  0.00    +0.042 C 
ATOM      2  C   UNL     1      -1.059   7.795  -5.166  0.00  0.00    +0.112 C 
ATOM      3  C   UNL     1      -2.043   7.077  -6.069  0.00  0.00    +0.247 C 
ATOM      4  O   UNL     1      -3.253   7.116  -6.011  0.00  0.00    -0.273 OA
ATOM      5  N   UNL     1      -1.292   6.386  -6.949  0.00  0.00    -0.224 N 
ATOM      6  C   UNL     1       0.016   6.566  -6.730  0.00  0.00    +0.309 C 
ATOM      7  O   UNL     1       0.890   6.045  -7.394  0.00  0.00    -0.252 OA
ATOM      8  N   UNL     1       0.255   7.387  -5.691  0.00  0.00    -0.285 N 
ATOM      9  H   UNL     1       1.123   7.658  -5.355  0.00  0.00    +0.151 HD
ENDROOT
BRANCH   2  10
ATOM     10  C   UNL     1      -1.225   7.336  -3.716  0.00  0.00    +0.018 C 
ATOM     11  C   UNL     1      -0.222   8.075  -2.827  0.00  0.00    -0.013 C 
ATOM     12  C   UNL     1      -0.352   7.569  -1.388  0.00  0.00    -0.078 C 
ATOM     13  C   UNL     1      -1.075   5.389  -2.160  0.00  0.00    -0.078 C 
ATOM     14  C   UNL     1      -0.966   5.830  -3.622  0.00  0.00    -0.013 C 
ATOM     15  N   UNL     1      -0.067   6.119  -1.363  0.00  0.00    +0.382 N 
ATOM     16  H   UNL     1       0.862   5.955  -1.769  0.00  0.00    -0.081 HD
BRANCH  15  17
ATOM     17  C   UNL     1      -0.074   5.628   0.031  0.00  0.00    -0.043 C 
BRANCH  17  18
ATOM     18  C   UNL     1      -0.054   4.121   0.024  0.00  0.00    -0.064 A 
ATOM     19  C   UNL     1       1.153   3.447   0.009  0.00  0.00    +0.005 A 
ATOM     20  C   UNL     1       1.175   2.066   0.002  0.00  0.00    +0.046 A 
ATOM     21  C   UNL     1      -0.016   1.355   0.009  0.00  0.00    +0.121 A 
ATOM     22  C   UNL     1      -1.226   2.033   0.019  0.00  0.00    +0.046 A 
ATOM     23  C   UNL     1      -1.242   3.414   0.031  0.00  0.00    +0.005 A 
BRANCH  21  24
ATOM     24  O   UNL     1       0.002  -0.004   0.002  0.00  0.00    -0.490 OA
BRANCH  24  25
ATOM     25  C   UNL     1      -1.262  -0.670   0.011  0.00  0.00    +0.256 C 
BRANCH  25  26
ATOM     26  C   UNL     1      -1.041  -2.184   0.000  0.00  0.00    +0.196 C 
BRANCH  26  27
ATOM     27  O   UNL     1      -0.397  -2.580   1.213  0.00  0.00    -0.392 OA
ATOM     28  H   UNL     1      -0.226  -3.529   1.276  0.00  0.00    +0.210 HD
ENDBRANCH  26  27
ENDBRANCH  25  26
ENDBRANCH  24  25
ENDBRANCH  21  24
ENDBRANCH  17  18
ENDBRANCH  15  17
ENDBRANCH   2  10
BRANCH   5  29
ATOM     29  C   UNL     1      -1.839   5.543  -8.014  0.00  0.00    +0.122 C 
BRANCH  29  30
ATOM     30  C   UNL     1      -2.035   6.382  -9.279  0.00  0.00    +0.054 C 
BRANCH  30  31
ATOM     31  C   UNL     1      -2.599   5.514 -10.375  0.00  0.00    -0.046 A 
ATOM     32  C   UNL     1      -1.745   4.847 -11.234  0.00  0.00    +0.007 A 
ATOM     33  C   UNL     1      -2.259   4.047 -12.236  0.00  0.00    +0.046 A 
ATOM     34  C   UNL     1      -3.633   3.922 -12.387  0.00  0.00    +0.120 A 
ATOM     35  C   UNL     1      -4.487   4.597 -11.527  0.00  0.00    +0.046 A 
ATOM     36  C   UNL     1      -3.968   5.391 -10.523  0.00  0.00    +0.007 A 
BRANCH  34  37
ATOM     37  O   UNL     1      -4.141   3.140 -13.375  0.00  0.00    -0.495 OA
ATOM     38  C   UNL     1      -3.203   2.475 -14.223  0.00  0.00    +0.277 C 
ENDBRANCH  34  37
ENDBRANCH  30  31
ENDBRANCH  29  30
ENDBRANCH   5  29
TORSDOF 11
