REMARK  Name = ZINC08414928
REMARK  5 active torsions:
REMARK  status: ('A' for Active; 'I' for Inactive)
REMARK    1  A    between atoms: C_1  and  C_2
REMARK    2  A    between atoms: C_3  and  C_28
REMARK    3  A    between atoms: C_4  and  C_21
REMARK    4  A    between atoms: C_10  and  C_15
REMARK    5  A    between atoms: N_30  and  C_31
REMARK                            x       y       z     vdW  Elec       q    Type
REMARK                         _______ _______ _______ _____ _____    ______ ____
ROOT
ATOM      1  C   UNL     1       3.378   3.000  -1.157  0.00  0.00    +0.061 C 
ATOM      2  C   UNL     1       3.473   1.583  -0.653  0.00  0.00    +0.014 C 
ATOM      3  C   UNL     1       2.355   0.917  -0.322  0.00  0.00    +0.043 C 
ATOM      4  C   UNL     1       2.411  -0.490   0.195  0.00  0.00    +0.092 C 
ATOM      5  C   UNL     1       3.736  -1.134  -0.136  0.00  0.00    +0.024 C 
ATOM      6  C   UNL     1       4.804  -0.379  -0.471  0.00  0.00    +0.016 C 
ATOM      7  N   UNL     1       4.697   0.984  -0.537  0.00  0.00    -0.321 N 
ATOM      8  C   UNL     1       6.139  -1.013  -0.775  0.00  0.00    +0.059 C 
ATOM      9  C   UNL     1       5.921  -2.399  -1.387  0.00  0.00    +0.032 C 
ATOM     10  C   UNL     1       5.115  -3.246  -0.398  0.00  0.00    +0.088 C 
ATOM     11  C   UNL     1       3.828  -2.536  -0.080  0.00  0.00    +0.162 C 
ATOM     12  O   UNL     1       2.850  -3.186   0.233  0.00  0.00    -0.292 OA
ATOM     13  H   UNL     1       5.609   1.598  -0.496  0.00  0.00    +0.152 HD
ENDROOT
BRANCH   4  14
ATOM     14  C   UNL     1       2.223  -0.476   1.690  0.00  0.00    -0.017 A 
ATOM     15  C   UNL     1       3.112   0.215   2.493  0.00  0.00    +0.006 A 
ATOM     16  C   UNL     1       2.940   0.228   3.864  0.00  0.00    +0.000 A 
ATOM     17  C   UNL     1       1.878  -0.450   4.434  0.00  0.00    +0.001 A 
ATOM     18  C   UNL     1       0.989  -1.140   3.634  0.00  0.00    +0.020 A 
ATOM     19  C   UNL     1       1.158  -1.150   2.260  0.00  0.00    +0.045 A 
ATOM     20 CL   UNL     1       0.036  -2.011   1.253  0.00  0.00    -0.083 Cl
ENDBRANCH   4  14
BRANCH   9  21
ATOM     21  C   UNL     1       7.254  -3.053  -1.645  0.00  0.00    -0.044 A 
ATOM     22  C   UNL     1       8.135  -3.262  -0.601  0.00  0.00    +0.004 A 
ATOM     23  C   UNL     1       9.356  -3.866  -0.836  0.00  0.00    +0.000 A 
ATOM     24  C   UNL     1       9.700  -4.252  -2.118  0.00  0.00    +0.000 A 
ATOM     25  C   UNL     1       8.821  -4.038  -3.164  0.00  0.00    +0.000 A 
ATOM     26  C   UNL     1       7.599  -3.438  -2.927  0.00  0.00    +0.004 A 
ENDBRANCH   9  21
BRANCH   3  27
ATOM     27  C   UNL     1       1.099   1.557  -0.458  0.00  0.00    +0.247 C 
ATOM     28  O   UNL     1       1.030   2.660  -0.970  0.00  0.00    -0.270 OA
ATOM     29  N   UNL     1      -0.020   0.946  -0.021  0.00  0.00    -0.277 N 
ATOM     30  H   UNL     1       0.036  -0.070   0.396  0.00  0.00    +0.155 HD
BRANCH  29  31
ATOM     31  C   UNL     1      -1.254   1.606  -0.096  0.00  0.00    +0.105 A 
ATOM     32  C   UNL     1      -1.319   2.984   0.072  0.00  0.00    +0.147 A 
ATOM     33  C   UNL     1      -2.538   3.632  -0.010  0.00  0.00    +0.040 A 
ATOM     34  C   UNL     1      -3.693   2.910  -0.246  0.00  0.00    +0.006 A 
ATOM     35  C   UNL     1      -3.633   1.538  -0.408  0.00  0.00    +0.040 A 
ATOM     36  C   UNL     1      -2.417   0.883  -0.334  0.00  0.00    +0.147 A 
ATOM     37  F   UNL     1      -2.360  -0.457  -0.493  0.00  0.00    -0.203 F 
ATOM     38  F   UNL     1      -0.192   3.690   0.309  0.00  0.00    -0.203 F 
ENDBRANCH  29  31
ENDBRANCH   3  27
TORSDOF 4
