REMARK  Name = ZINC14988974
REMARK  8 active torsions:
REMARK  status: ('A' for Active; 'I' for Inactive)
REMARK    1  A    between atoms: C_1  and  C_2
REMARK    2  A    between atoms: C_2  and  C_4
REMARK    3  A    between atoms: C_2  and  N_70
REMARK    4  A    between atoms: C_4  and  C_5
REMARK    5  A    between atoms: C_5  and  C_6
REMARK    6  A    between atoms: C_9  and  O_12
REMARK    7  A    between atoms: C_19  and  C_21
REMARK    8  A    between atoms: N_26  and  C_29
REMARK                            x       y       z     vdW  Elec       q    Type
REMARK                         _______ _______ _______ _____ _____    ______ ____
ROOT
ATOM      1  C   UNL     1       2.057   0.253  -2.018  0.00  0.00    -0.078 C 
ATOM      2  C   UNL     1       2.718  -0.407  -3.233  0.00  0.00    -0.011 C 
ATOM      3  C   UNL     1       2.617  -1.928  -3.080  0.00  0.00    -0.021 C 
ATOM      4  C   UNL     1       1.206  -2.450  -2.785  0.00  0.00    -0.011 C 
ATOM      5  C   UNL     1       0.634  -1.670  -1.597  0.00  0.00    -0.078 C 
ATOM      6  C   UNL     1       3.532  -2.794  -3.942  0.00  0.00    +0.020 C 
ATOM      7  C   UNL     1       3.795  -2.660  -2.440  0.00  0.00    +0.082 C 
ATOM      8  N   UNL     1       0.660  -0.225  -1.917  0.00  0.00    +0.381 N 
ATOM      9  H   UNL     1       0.193  -0.077  -2.819  0.00  0.00    -0.081 HD
ENDROOT
BRANCH   7  10
ATOM     10  C   UNL     1       4.979  -1.831  -2.012  0.00  0.00    +0.219 C 
ATOM     11  O   UNL     1       5.832  -1.529  -2.819  0.00  0.00    -0.275 OA
ATOM     12  N   UNL     1       5.090  -1.427  -0.731  0.00  0.00    -0.298 N 
ATOM     13  C   UNL     1       4.064  -1.777   0.263  0.00  0.00    +0.126 C 
ATOM     14  C   UNL     1       4.766  -2.395   1.483  0.00  0.00    +0.124 C 
ATOM     15  N   UNL     1       5.805  -1.474   1.962  0.00  0.00    -0.327 N 
ATOM     16  C   UNL     1       6.850  -1.276   0.949  0.00  0.00    +0.124 C 
ATOM     17  C   UNL     1       6.237  -0.618  -0.292  0.00  0.00    +0.126 C 
BRANCH  15  18
ATOM     18  C   UNL     1       6.353  -1.920   3.166  0.00  0.00    +0.030 A 
ATOM     19  C   UNL     1       7.723  -2.123   3.275  0.00  0.00    +0.023 A 
ATOM     20  C   UNL     1       8.262  -2.560   4.469  0.00  0.00    +0.002 A 
ATOM     21  C   UNL     1       7.439  -2.806   5.552  0.00  0.00    +0.000 A 
ATOM     22  C   UNL     1       6.074  -2.610   5.446  0.00  0.00    +0.002 A 
ATOM     23  C   UNL     1       5.529  -2.168   4.257  0.00  0.00    +0.023 A 
ENDBRANCH  15  18
ENDBRANCH   7  10
BRANCH   8  25
ATOM     24  C   UNL     1       0.536   0.252   0.507  0.00  0.00    -0.013 C 
ATOM     25  C   UNL     1      -0.058   0.534  -0.875  0.00  0.00    -0.071 C 
BRANCH  25  26
ATOM     26  C   UNL     1      -1.531   0.120  -0.890  0.00  0.00    -0.011 C 
BRANCH  26  27
ATOM     27  C   UNL     1      -2.151   0.494  -2.238  0.00  0.00    +0.033 C 
BRANCH  27  28
ATOM     28  C   UNL     1      -3.629   0.199  -2.210  0.00  0.00    -0.047 A 
ATOM     29  C   UNL     1      -4.093  -1.041  -2.607  0.00  0.00    +0.007 A 
ATOM     30  C   UNL     1      -5.447  -1.316  -2.577  0.00  0.00    +0.045 A 
ATOM     31  C   UNL     1      -6.341  -0.342  -2.158  0.00  0.00    +0.117 A 
ATOM     32  C   UNL     1      -5.874   0.904  -1.765  0.00  0.00    +0.045 A 
ATOM     33  C   UNL     1      -4.519   1.171  -1.793  0.00  0.00    +0.007 A 
BRANCH  31  34
ATOM     34  O   UNL     1      -7.674  -0.608  -2.132  0.00  0.00    -0.507 OA
ATOM     35  H   UNL     1      -8.133  -0.395  -2.956  0.00  0.00    +0.292 HD
ENDBRANCH  31  34
ENDBRANCH  27  28
ENDBRANCH  26  27
ENDBRANCH  25  26
ENDBRANCH   8  25
TORSDOF 7
