REMARK  Name = ZINC09602467
REMARK  9 active torsions:
REMARK  status: ('A' for Active; 'I' for Inactive)
REMARK    1  A    between atoms: C_1  and  C_2
REMARK    2  A    between atoms: C_2  and  N_3
REMARK    3  A    between atoms: C_4  and  C_21
REMARK    4  A    between atoms: C_7  and  S_8
REMARK    5  A    between atoms: S_8  and  C_9
REMARK    6  A    between atoms: C_9  and  C_10
REMARK    7  A    between atoms: N_12  and  C_13
REMARK    8  A    between atoms: C_13  and  C_19
REMARK    9  A    between atoms: C_23  and  C_31
REMARK                            x       y       z     vdW  Elec       q    Type
REMARK                         _______ _______ _______ _____ _____    ______ ____
ROOT
ATOM      1  N   UNL     1      -0.019   1.471   0.172  0.00  0.00    -0.302 N 
ATOM      2  C   UNL     1      -1.121   2.297   0.173  0.00  0.00    +0.166 A 
ATOM      3  N   UNL     1      -0.687   3.520  -0.036  0.00  0.00    -0.128 NA
ATOM      4  N   UNL     1       0.591   3.513  -0.175  0.00  0.00    -0.122 NA
ATOM      5  C   UNL     1       1.052   2.286  -0.057  0.00  0.00    +0.192 A 
ENDROOT
BRANCH   2   6
ATOM      6  C   UNL     1      -2.523   1.887   0.374  0.00  0.00    +0.030 A 
ATOM      7  C   UNL     1      -3.073   0.819  -0.328  0.00  0.00    +0.040 A 
ATOM      8  C   UNL     1      -4.405   0.462  -0.102  0.00  0.00    +0.072 A 
ATOM      9  N   UNL     1      -5.174   1.110   0.752  0.00  0.00    -0.247 NA
ATOM     10  C   UNL     1      -4.732   2.149   1.465  0.00  0.00    +0.072 A 
ATOM     11  C   UNL     1      -3.394   2.592   1.317  0.00  0.00    +0.011 A 
ATOM     12  C   UNL     1      -2.935   3.681   2.063  0.00  0.00    +0.011 A 
ATOM     13  C   UNL     1      -3.780   4.308   2.931  0.00  0.00    +0.001 A 
ATOM     14  C   UNL     1      -5.096   3.878   3.080  0.00  0.00    +0.002 A 
ATOM     15  C   UNL     1      -5.575   2.821   2.368  0.00  0.00    +0.028 A 
BRANCH   8  16
ATOM     16  C   UNL     1      -4.977  -0.682  -0.853  0.00  0.00    +0.000 A 
ATOM     17  C   UNL     1      -4.191  -1.382  -1.767  0.00  0.00    +0.010 A 
ATOM     18  C   UNL     1      -4.726  -2.449  -2.459  0.00  0.00    +0.001 A 
ATOM     19  C   UNL     1      -6.044  -2.817  -2.256  0.00  0.00    +0.000 A 
ATOM     20  C   UNL     1      -6.831  -2.123  -1.354  0.00  0.00    +0.001 A 
ATOM     21  C   UNL     1      -6.304  -1.058  -0.652  0.00  0.00    +0.010 A 
ENDBRANCH   8  16
ENDBRANCH   2   6
BRANCH   1  23
ATOM     22  C   UNL     1       0.083  -0.291   1.865  0.00  0.00    +0.027 C 
ATOM     23  C   UNL     1      -0.000   0.020   0.369  0.00  0.00    +0.122 C 
ENDBRANCH   1  23
BRANCH   5  24
ATOM     24  S   UNL     1       2.738   1.787  -0.172  0.00  0.00    -0.077 S 
BRANCH  24  25
ATOM     25  C   UNL     1       3.519   3.391  -0.478  0.00  0.00    +0.173 C 
BRANCH  25  26
ATOM     26  C   UNL     1       5.009   3.206  -0.615  0.00  0.00    +0.224 C 
ATOM     27  O   UNL     1       5.494   2.099  -0.516  0.00  0.00    -0.275 OA
ATOM     28  N   UNL     1       5.801   4.271  -0.848  0.00  0.00    -0.297 N 
ATOM     29  H   UNL     1       5.413   5.156  -0.927  0.00  0.00    +0.150 HD
BRANCH  28  30
ATOM     30  C   UNL     1       7.249   4.091  -0.981  0.00  0.00    +0.121 C 
ATOM     31  C   UNL     1       7.809   3.488   0.309  0.00  0.00    +0.041 C 
ATOM     32  C   UNL     1       9.321   3.300   0.169  0.00  0.00    +0.003 C 
ATOM     33  C   UNL     1       9.982   4.656  -0.089  0.00  0.00    +0.000 C 
ATOM     34  C   UNL     1       9.422   5.259  -1.379  0.00  0.00    +0.003 C 
ATOM     35  C   UNL     1       7.910   5.446  -1.239  0.00  0.00    +0.041 C 
BRANCH  30  36
ATOM     36  C   UNL     1       7.529   3.186  -2.108  0.00  0.00    +0.088 C 
ATOM     37  N   UNL     1       7.746   2.487  -2.977  0.00  0.00    -0.194 NA
ENDBRANCH  30  36
ENDBRANCH  28  30
ENDBRANCH  25  26
ENDBRANCH  24  25
ENDBRANCH   5  24
TORSDOF 8
