REMARK  Name = ZINC21242004
REMARK  10 active torsions:
REMARK  status: ('A' for Active; 'I' for Inactive)
REMARK    1  A    between atoms: C_1  and  C_2
REMARK    2  A    between atoms: C_2  and  C_3
REMARK    3  A    between atoms: C_6  and  C_9
REMARK    4  A    between atoms: C_14  and  C_19
REMARK    5  A    between atoms: C_22  and  O_27
REMARK    6  A    between atoms: C_23  and  O_25
REMARK    7  A    between atoms: O_25  and  C_26
REMARK    8  A    between atoms: O_27  and  C_28
REMARK    9  A    between atoms: C_28  and  C_29
REMARK   10  A    between atoms: C_28  and  C_30
REMARK                            x       y       z     vdW  Elec       q    Type
REMARK                         _______ _______ _______ _____ _____    ______ ____
ROOT
ATOM      1  C   UNL     1      -5.423  -2.010   0.067  0.00  0.00    +0.136 C 
ATOM      2  C   UNL     1      -6.353  -0.866   0.394  0.00  0.00    +0.036 C 
ATOM      3  C   UNL     1      -7.048  -0.710   1.529  0.00  0.00    +0.017 C 
ATOM      4  C   UNL     1      -7.921   0.517   1.736  0.00  0.00    +0.059 C 
ATOM      5  C   UNL     1      -8.511   0.966   0.400  0.00  0.00    +0.032 C 
ATOM      6  C   UNL     1      -7.345   1.298  -0.538  0.00  0.00    +0.088 C 
ATOM      7  C   UNL     1      -6.460   0.092  -0.646  0.00  0.00    +0.163 C 
ATOM      8  O   UNL     1      -5.810  -0.068  -1.661  0.00  0.00    -0.292 OA
ATOM      9  N   UNL     1      -7.035  -1.579   2.572  0.00  0.00    -0.316 N 
ATOM     10  C   UNL     1      -5.887  -2.134   3.126  0.00  0.00    +0.052 A 
ATOM     11  C   UNL     1      -5.522  -1.913   4.443  0.00  0.00    +0.025 A 
ATOM     12  C   UNL     1      -4.428  -2.582   4.965  0.00  0.00    +0.002 A 
ATOM     13  C   UNL     1      -3.705  -3.460   4.177  0.00  0.00    +0.002 A 
ATOM     14  C   UNL     1      -4.057  -3.665   2.854  0.00  0.00    +0.025 A 
ATOM     15  C   UNL     1      -5.142  -2.985   2.324  0.00  0.00    +0.049 A 
ATOM     16  N   UNL     1      -5.506  -3.126   0.986  0.00  0.00    -0.331 N 
ATOM     17  H   UNL     1      -7.980  -1.890   3.040  0.00  0.00    +0.152 HD
ATOM     18  H   UNL     1      -5.862  -4.105   0.632  0.00  0.00    +0.147 HD
ENDROOT
BRANCH   1  22
ATOM     19  C   UNL     1      -1.413  -0.539   0.077  0.00  0.00    -0.048 A 
ATOM     20  C   UNL     1      -2.142  -0.566   1.251  0.00  0.00    +0.004 A 
ATOM     21  C   UNL     1      -3.441  -1.038   1.247  0.00  0.00    +0.006 A 
ATOM     22  C   UNL     1      -4.008  -1.492   0.071  0.00  0.00    -0.023 A 
ATOM     23  C   UNL     1      -3.277  -1.471  -1.102  0.00  0.00    +0.006 A 
ATOM     24  C   UNL     1      -1.979  -0.994  -1.099  0.00  0.00    +0.004 A 
BRANCH  19  26
ATOM     25  C   UNL     1      -0.006   1.484  -0.198  0.00  0.00    +0.009 C 
ATOM     26  C   UNL     1       0.002  -0.020   0.080  0.00  0.00    +0.032 C 
ENDBRANCH  19  26
ENDBRANCH   1  22
BRANCH   5  27
ATOM     27  C   UNL     1      -9.366   2.190   0.605  0.00  0.00    -0.040 A 
ATOM     28  C   UNL     1      -8.806   3.343   1.122  0.00  0.00    +0.008 A 
ATOM     29  C   UNL     1      -9.586   4.469   1.312  0.00  0.00    +0.050 A 
ATOM     30  C   UNL     1     -10.932   4.443   0.984  0.00  0.00    +0.162 A 
ATOM     31  C   UNL     1     -11.495   3.282   0.462  0.00  0.00    +0.162 A 
ATOM     32  C   UNL     1     -10.707   2.159   0.270  0.00  0.00    +0.053 A 
BRANCH  31  33
ATOM     33  O   UNL     1     -12.815   3.251   0.138  0.00  0.00    -0.491 OA
ATOM     34  C   UNL     1     -13.325   2.026  -0.392  0.00  0.00    +0.277 C 
ENDBRANCH  31  33
BRANCH  30  35
ATOM     35  O   UNL     1     -11.700   5.549   1.169  0.00  0.00    -0.486 OA
BRANCH  35  36
ATOM     36  C   UNL     1     -11.032   6.739   1.593  0.00  0.00    +0.167 C 
ATOM     37  C   UNL     1     -11.848   7.961   1.167  0.00  0.00    +0.051 C 
ATOM     38  C   UNL     1     -10.887   6.728   3.116  0.00  0.00    +0.051 C 
ENDBRANCH  35  36
ENDBRANCH  30  35
ENDBRANCH   5  27
TORSDOF 6
