REMARK  Name = ZINC33284079
REMARK  9 active torsions:
REMARK  status: ('A' for Active; 'I' for Inactive)
REMARK    1  A    between atoms: C_1  and  C_2
REMARK    2  A    between atoms: C_2  and  C_3
REMARK    3  A    between atoms: C_8  and  N_9
REMARK    4  A    between atoms: C_10  and  C_12
REMARK    5  A    between atoms: C_12  and  N_13
REMARK    6  A    between atoms: C_15  and  C_25
REMARK    7  A    between atoms: C_21  and  C_24
REMARK    8  A    between atoms: C_27  and  C_30
REMARK    9  A    between atoms: C_35  and  C_36
REMARK                            x       y       z     vdW  Elec       q    Type
REMARK                         _______ _______ _______ _____ _____    ______ ____
ROOT
ATOM      1  N   UNL     1      -1.188  -2.079   0.002  0.00  0.00    -0.322 N 
ATOM      2  C   UNL     1      -1.165  -0.736   0.003  0.00  0.00    +0.105 A 
ATOM      3  C   UNL     1       0.012  -0.020  -0.011  0.00  0.00    +0.103 A 
ATOM      4  C   UNL     1       1.288  -0.754  -0.018  0.00  0.00    +0.203 A 
ATOM      5  O   UNL     1       2.357  -0.169  -0.025  0.00  0.00    -0.286 OA
ATOM      6  C   UNL     1       1.216  -2.225  -0.014  0.00  0.00    +0.065 A 
ATOM      7  C   UNL     1      -0.046  -2.844  -0.004  0.00  0.00    +0.145 A 
ATOM      8  N   UNL     1      -0.126  -4.170  -0.001  0.00  0.00    -0.234 NA
ATOM      9  C   UNL     1       0.949  -4.928  -0.006  0.00  0.00    +0.041 A 
ATOM     10  C   UNL     1       2.224  -4.384  -0.016  0.00  0.00    +0.024 A 
ATOM     11  C   UNL     1       2.372  -3.008  -0.019  0.00  0.00    +0.017 A 
ATOM     12  C   UNL     1       0.791  -6.427  -0.002  0.00  0.00    +0.065 C 
ENDROOT
BRANCH   3  13
ATOM     13  C   UNL     1      -0.007   1.453  -0.014  0.00  0.00    +0.264 A 
ATOM     14  N   UNL     1       1.044   2.255  -0.022  0.00  0.00    -0.187 NA
ATOM     15  C   UNL     1       0.543   3.507  -0.021  0.00  0.00    +0.203 A 
ATOM     16  N   UNL     1      -0.762   3.406  -0.013  0.00  0.00    -0.056 NA
ATOM     17  O   UNL     1      -1.095   2.240  -0.015  0.00  0.00    -0.332 OA
BRANCH  15  18
ATOM     18  C   UNL     1       1.327   4.768  -0.028  0.00  0.00    +0.025 A 
ATOM     19  C   UNL     1       2.720   4.725  -0.030  0.00  0.00    +0.012 A 
ATOM     20  C   UNL     1       3.443   5.900  -0.042  0.00  0.00    +0.001 A 
ATOM     21  C   UNL     1       2.789   7.118  -0.040  0.00  0.00    +0.000 A 
ATOM     22  C   UNL     1       1.407   7.167  -0.033  0.00  0.00    +0.004 A 
ATOM     23  C   UNL     1       0.673   5.997  -0.026  0.00  0.00    -0.040 A 
ATOM     24  C   UNL     1      -0.833   6.051  -0.018  0.00  0.00    +0.044 C 
ENDBRANCH  15  18
ENDBRANCH   3  13
BRANCH   1  25
ATOM     25  C   UNL     1      -2.486  -2.757   0.011  0.00  0.00    +0.219 C 
BRANCH  25  27
ATOM     26  N   UNL     1      -4.028  -3.729   1.684  0.00  0.00    -0.284 N 
ATOM     27  C   UNL     1      -2.865  -3.097   1.430  0.00  0.00    +0.237 C 
ATOM     28  O   UNL     1      -2.123  -2.801   2.343  0.00  0.00    -0.274 OA
ATOM     29  H   UNL     1      -4.742  -3.916   0.868  0.00  0.00    +0.155 HD
BRANCH  26  35
ATOM     30  C   UNL     1      -5.648  -4.319   3.374  0.00  0.00    -0.026 A 
ATOM     31  C   UNL     1      -5.940  -4.732   4.660  0.00  0.00    +0.005 A 
ATOM     32  C   UNL     1      -4.918  -4.975   5.558  0.00  0.00    +0.000 A 
ATOM     33  C   UNL     1      -3.600  -4.805   5.174  0.00  0.00    +0.002 A 
ATOM     34  C   UNL     1      -3.302  -4.397   3.889  0.00  0.00    +0.023 A 
ATOM     35  C   UNL     1      -4.327  -4.147   2.985  0.00  0.00    +0.037 A 
BRANCH  30  37
ATOM     36  C   UNL     1      -7.004  -5.306   1.548  0.00  0.00    +0.009 C 
ATOM     37  C   UNL     1      -6.763  -4.056   2.395  0.00  0.00    +0.033 C 
ENDBRANCH  30  37
ENDBRANCH  26  35
ENDBRANCH  25  27
ENDBRANCH   1  25
TORSDOF 6
