REMARK  Name = ZINC15308502
REMARK  6 active torsions:
REMARK  status: ('A' for Active; 'I' for Inactive)
REMARK    1  A    between atoms: C_1  and  N_2
REMARK    2  A    between atoms: N_11  and  N_12
REMARK    3  A    between atoms: C_13  and  C_15
REMARK    4  A    between atoms: C_18  and  C_20
REMARK    5  A    between atoms: C_20  and  S_21
REMARK    6  A    between atoms: S_21  and  C_24
REMARK                            x       y       z     vdW  Elec       q    Type
REMARK                         _______ _______ _______ _____ _____    ______ ____
ROOT
ATOM      1  N   UNL     1      -2.880   7.577   0.065  0.00  0.00    -0.198 N 
ATOM      2  C   UNL     1      -3.848   8.515   0.079  0.00  0.00    +0.299 C 
ATOM      3  O   UNL     1      -5.019   8.181   0.089  0.00  0.00    -0.265 OA
ATOM      4  H   UNL     1      -1.947   7.842   0.058  0.00  0.00    +0.178 HD
ENDROOT
BRANCH   1  15
ATOM      5  C   UNL     1      -3.741   3.318   0.054  0.00  0.00    +0.151 C 
ATOM      6  N   UNL     1      -2.412   3.934   0.044  0.00  0.00    -0.321 N 
ATOM      7  C   UNL     1      -1.276   3.138   0.030  0.00  0.00    +0.057 A 
ATOM      8  C   UNL     1      -1.220   1.734   0.017  0.00  0.00    +0.027 A 
ATOM      9  C   UNL     1      -0.013   1.076   0.008  0.00  0.00    +0.002 A 
ATOM     10  C   UNL     1       1.184   1.771   0.000  0.00  0.00    +0.001 A 
ATOM     11  C   UNL     1       1.158   3.156   0.007  0.00  0.00    +0.017 A 
ATOM     12  C   UNL     1      -0.049   3.814   0.022  0.00  0.00    +0.039 A 
ATOM     13  S   UNL     1      -0.513   5.529   0.034  0.00  0.00    -0.048 S 
ATOM     14  C   UNL     1      -2.284   5.309   0.049  0.00  0.00    +0.191 A 
ATOM     15  N   UNL     1      -3.221   6.218   0.062  0.00  0.00    -0.154 NA
ENDBRANCH   1  15
BRANCH   2  16
ATOM     16  C   UNL     1      -3.490   9.937   0.082  0.00  0.00    +0.191 A 
ATOM     17  C   UNL     1      -4.365  10.985   0.090  0.00  0.00    +0.055 A 
ATOM     18  C   UNL     1      -3.593  12.157   0.094  0.00  0.00    +0.047 A 
ATOM     19  C   UNL     1      -2.296  11.778   0.079  0.00  0.00    +0.127 A 
ATOM     20  O   UNL     1      -2.238  10.440   0.072  0.00  0.00    -0.453 OA
BRANCH  19  21
ATOM     21  C   UNL     1      -1.110  12.709   0.072  0.00  0.00    +0.245 C 
BRANCH  21  22
ATOM     22  S   UNL     1      -0.618  13.073   1.779  0.00  0.00    +0.004 S 
ATOM     23  O   UNL     1      -1.620  13.848   2.423  0.00  0.00    -0.169 OA
ATOM     24  O   UNL     1      -0.096  11.905   2.398  0.00  0.00    -0.169 OA
BRANCH  22  25
ATOM     25  C   UNL     1       0.763  14.158   1.631  0.00  0.00    +0.089 A 
ATOM     26  C   UNL     1       2.044  13.641   1.566  0.00  0.00    +0.027 A 
ATOM     27  C   UNL     1       3.126  14.492   1.444  0.00  0.00    +0.002 A 
ATOM     28  C   UNL     1       2.929  15.859   1.398  0.00  0.00    +0.000 A 
ATOM     29  C   UNL     1       1.649  16.376   1.468  0.00  0.00    +0.002 A 
ATOM     30  C   UNL     1       0.566  15.525   1.584  0.00  0.00    +0.027 A 
ENDBRANCH  22  25
ENDBRANCH  21  22
ENDBRANCH  19  21
ENDBRANCH   2  16
TORSDOF 5
