REMARK  Name = ZINC21083102
REMARK  16 active torsions:
REMARK  status: ('A' for Active; 'I' for Inactive)
REMARK    1  A    between atoms: C_1  and  C_2
REMARK    2  A    between atoms: C_7  and  C_8
REMARK    3  A    between atoms: C_8  and  C_9
REMARK    4  A    between atoms: C_8  and  C_10
REMARK    5  A    between atoms: C_11  and  C_14
REMARK    6  A    between atoms: C_14  and  C_15
REMARK    7  A    between atoms: N_17  and  C_18
REMARK    8  A    between atoms: N_17  and  C_22
REMARK    9  A    between atoms: C_18  and  C_19
REMARK   10  A    between atoms: C_19  and  C_20
REMARK   11  A    between atoms: C_19  and  C_21
REMARK   12  A    between atoms: C_23  and  N_35
REMARK   13  A    between atoms: N_24  and  C_31
REMARK   14  A    between atoms: C_31  and  C_32
REMARK   15  A    between atoms: C_32  and  C_33
REMARK   16  A    between atoms: C_32  and  C_34
REMARK                            x       y       z     vdW  Elec       q    Type
REMARK                         _______ _______ _______ _____ _____    ______ ____
ROOT
ATOM      1  C   UNL     1      -2.335   4.885   0.033  0.00  0.00    +0.224 C 
ATOM      2  O   UNL     1      -1.296   5.510   0.087  0.00  0.00    -0.275 OA
ATOM      3  N   UNL     1      -2.321   3.542   0.160  0.00  0.00    -0.264 N 
ENDROOT
BRANCH   3   4
ATOM      4  C   UNL     1      -1.093   2.855   0.256  0.00  0.00    +0.140 A 
ATOM      5  C   UNL     1      -0.179   2.902  -0.776  0.00  0.00    +0.127 A 
ATOM      6  N   UNL     1       1.010   2.222  -0.652  0.00  0.00    -0.280 N 
ATOM      7  C   UNL     1       1.279   1.518   0.462  0.00  0.00    +0.331 A 
ATOM      8  O   UNL     1       2.335   0.923   0.552  0.00  0.00    -0.246 OA
ATOM      9  N   UNL     1       0.400   1.460   1.479  0.00  0.00    -0.273 N 
ATOM     10  H   UNL     1       0.642   0.882   2.383  0.00  0.00    +0.173 HD
ATOM     11  C   UNL     1      -0.781   2.104   1.406  0.00  0.00    +0.277 A 
ATOM     12  O   UNL     1      -1.572   2.042   2.332  0.00  0.00    -0.266 OA
BRANCH   5  13
ATOM     13  N   UNL     1      -0.453   3.622  -1.915  0.00  0.00    -0.343 N 
ATOM     14  H   UNL     1       0.280   3.655  -2.734  0.00  0.00    +0.144 HD
ATOM     15  H   UNL     1      -1.406   4.164  -2.007  0.00  0.00    +0.144 HD
ENDBRANCH   5  13
BRANCH   6  16
ATOM     16  C   UNL     1       1.989   2.263  -1.741  0.00  0.00    +0.131 C 
BRANCH  16  17
ATOM     17  C   UNL     1       1.723   1.111  -2.711  0.00  0.00    +0.003 C 
ATOM     18  C   UNL     1       2.664   1.226  -3.912  0.00  0.00    +0.009 C 
ATOM     19  C   UNL     1       1.966  -0.222  -1.999  0.00  0.00    +0.009 C 
ENDBRANCH  16  17
ENDBRANCH   6  16
ENDBRANCH   3   4
BRANCH   1  20
ATOM     20  C   UNL     1      -3.640   5.609  -0.177  0.00  0.00    +0.135 C 
BRANCH  20  28
ATOM     21  C   UNL     1      -2.050  10.439  -4.833  0.00  0.00    +0.044 C 
ATOM     22  C   UNL     1      -2.399   9.479  -3.725  0.00  0.00    -0.044 A 
ATOM     23  C   UNL     1      -2.558   9.952  -2.439  0.00  0.00    +0.050 A 
ATOM     24  C   UNL     1      -2.879   9.073  -1.413  0.00  0.00    +0.135 A 
ATOM     25  C   UNL     1      -3.033   7.706  -1.700  0.00  0.00    +0.024 A 
ATOM     26  C   UNL     1      -2.876   7.243  -3.005  0.00  0.00    +0.016 A 
ATOM     27  C   UNL     1      -2.557   8.131  -4.008  0.00  0.00    -0.041 A 
ATOM     28  C   UNL     1      -3.369   7.072  -0.419  0.00  0.00    +0.007 A 
ATOM     29  C   UNL     1      -3.381   8.054   0.492  0.00  0.00    +0.200 A 
ATOM     30  O   UNL     1      -3.094   9.231  -0.091  0.00  0.00    -0.463 OA
BRANCH  27  31
ATOM     31  C   UNL     1      -2.379   7.635  -5.420  0.00  0.00    +0.013 C 
ATOM     32  C   UNL     1      -1.341   6.511  -5.439  0.00  0.00    +0.012 C 
ATOM     33  C   UNL     1      -3.715   7.106  -5.947  0.00  0.00    +0.012 C 
ENDBRANCH  27  31
ENDBRANCH  20  28
ENDBRANCH   1  20
BRANCH   3  34
ATOM     34  C   UNL     1      -3.583   2.797   0.197  0.00  0.00    +0.117 C 
BRANCH  34  35
ATOM     35  C   UNL     1      -4.021   2.464  -1.230  0.00  0.00    +0.001 C 
ATOM     36  C   UNL     1      -3.030   1.477  -1.850  0.00  0.00    +0.009 C 
ATOM     37  C   UNL     1      -5.416   1.837  -1.202  0.00  0.00    +0.009 C 
ENDBRANCH  34  35
ENDBRANCH   3  34
TORSDOF 9
