REMARK  Name = ZINC41310220
REMARK  8 active torsions:
REMARK  status: ('A' for Active; 'I' for Inactive)
REMARK    1  A    between atoms: C_1  and  C_2
REMARK    2  A    between atoms: C_2  and  C_3
REMARK    3  A    between atoms: C_2  and  C_4
REMARK    4  A    between atoms: C_11  and  C_13
REMARK    5  A    between atoms: N_15  and  C_16
REMARK    6  A    between atoms: C_16  and  C_17
REMARK    7  A    between atoms: C_17  and  C_19
REMARK    8  A    between atoms: C_17  and  N_26
REMARK                            x       y       z     vdW  Elec       q    Type
REMARK                         _______ _______ _______ _____ _____    ______ ____
ROOT
ATOM      1  C   UNL     1       0.538  -3.761   9.072  0.00  0.00    +0.279 C 
ATOM      2  O   UNL     1       0.165  -4.080   7.959  0.00  0.00    -0.267 OA
ATOM      3  N   UNL     1       1.853  -3.763   9.368  0.00  0.00    -0.310 N 
ATOM      4  H   UNL     1       2.151  -3.509  10.255  0.00  0.00    +0.149 HD
ENDROOT
BRANCH   1  12
ATOM      5  C   UNL     1      -3.862  -2.249  12.926  0.00  0.00    -0.044 A 
ATOM      6  C   UNL     1      -2.785  -2.061  13.782  0.00  0.00    +0.007 A 
ATOM      7  C   UNL     1      -1.495  -2.286  13.352  0.00  0.00    +0.047 A 
ATOM      8  C   UNL     1      -1.264  -2.708  12.047  0.00  0.00    +0.136 A 
ATOM      9  C   UNL     1      -2.360  -2.898  11.184  0.00  0.00    +0.021 A 
ATOM     10  C   UNL     1      -3.660  -2.668  11.641  0.00  0.00    +0.015 A 
ATOM     11  C   UNL     1      -1.789  -3.334   9.910  0.00  0.00    +0.063 A 
ATOM     12  C   UNL     1      -0.444  -3.373  10.094  0.00  0.00    +0.190 A 
ATOM     13  O   UNL     1      -0.146  -3.002  11.357  0.00  0.00    -0.450 OA
BRANCH   5  15
ATOM     14  C   UNL     1      -5.559  -2.914  14.607  0.00  0.00    +0.012 C 
ATOM     15  C   UNL     1      -5.263  -1.997  13.419  0.00  0.00    +0.013 C 
ATOM     16  C   UNL     1      -5.394  -0.537  13.858  0.00  0.00    +0.012 C 
ENDBRANCH   5  15
ENDBRANCH   1  12
BRANCH   3  17
ATOM     17  C   UNL     1       2.833  -4.150   8.349  0.00  0.00    +0.094 C 
BRANCH  17  18
ATOM     18  C   UNL     1       4.246  -3.958   8.902  0.00  0.00    -0.020 C 
BRANCH  18  19
ATOM     19  C   UNL     1       4.461  -4.890  10.066  0.00  0.00    -0.059 A 
ATOM     20  C   UNL     1       4.773  -6.218   9.840  0.00  0.00    +0.003 A 
ATOM     21  C   UNL     1       4.970  -7.073  10.908  0.00  0.00    +0.020 A 
ATOM     22  C   UNL     1       4.856  -6.600  12.203  0.00  0.00    +0.041 A 
ATOM     23  C   UNL     1       4.544  -5.271  12.429  0.00  0.00    +0.020 A 
ATOM     24  C   UNL     1       4.352  -4.415  11.360  0.00  0.00    +0.003 A 
ATOM     25 CL   UNL     1       5.103  -7.674  13.545  0.00  0.00    -0.084 Cl
ENDBRANCH  18  19
BRANCH  18  26
ATOM     26  N   UNL     1       5.228  -4.255   7.850  0.00  0.00    +0.385 N 
ATOM     27  C   UNL     1       6.584  -4.125   8.397  0.00  0.00    -0.078 C 
ATOM     28  C   UNL     1       7.608  -4.511   7.328  0.00  0.00    -0.019 C 
ATOM     29  C   UNL     1       7.452  -3.583   6.120  0.00  0.00    -0.004 C 
ATOM     30  C   UNL     1       6.013  -3.671   5.603  0.00  0.00    -0.019 C 
ATOM     31  C   UNL     1       5.048  -3.315   6.736  0.00  0.00    -0.078 C 
ATOM     32  H   UNL     1       5.090  -5.198   7.519  0.00  0.00    -0.081 HD
ENDBRANCH  18  26
ENDBRANCH  17  18
ENDBRANCH   3  17
TORSDOF 6
