REMARK  Name = ZINC35526409
REMARK  10 active torsions:
REMARK  status: ('A' for Active; 'I' for Inactive)
REMARK    1  A    between atoms: C_1  and  C_2
REMARK    2  A    between atoms: N_13  and  C_34
REMARK    3  A    between atoms: C_14  and  S_16
REMARK    4  A    between atoms: S_16  and  C_17
REMARK    5  A    between atoms: C_17  and  C_18
REMARK    6  A    between atoms: C_22  and  C_25
REMARK    7  A    between atoms: C_28  and  N_31
REMARK    8  A    between atoms: N_31  and  C_32
REMARK    9  A    between atoms: N_31  and  C_33
REMARK   10  A    between atoms: C_34  and  C_35
REMARK                            x       y       z     vdW  Elec       q    Type
REMARK                         _______ _______ _______ _____ _____    ______ ____
ROOT
ATOM      1  C   UNL     1      -0.019   1.526   0.010  0.00  0.00    +0.008 C 
ATOM      2  C   UNL     1       0.002  -0.004   0.002  0.00  0.00    -0.009 C 
ATOM      3  C   UNL     1       0.726  -0.501  -1.253  0.00  0.00    +0.008 C 
ATOM      4  C   UNL     1       0.536  -2.011  -1.397  0.00  0.00    +0.037 C 
ATOM      5  C   UNL     1       0.950  -2.688  -0.092  0.00  0.00    -0.023 A 
ATOM      6  C   UNL     1       1.032  -1.976   1.055  0.00  0.00    -0.004 A 
ATOM      7  S   UNL     1       1.538  -3.144   2.292  0.00  0.00    -0.073 S 
ATOM      8  C   UNL     1       1.639  -4.581   1.272  0.00  0.00    +0.117 A 
ATOM      9  C   UNL     1       1.273  -4.103  -0.006  0.00  0.00    +0.076 A 
ATOM     10  C   UNL     1       1.257  -5.051  -1.081  0.00  0.00    +0.263 A 
ATOM     11  O   UNL     1       0.955  -4.735  -2.219  0.00  0.00    -0.267 OA
ATOM     12  N   UNL     1       1.598  -6.320  -0.754  0.00  0.00    -0.283 N 
ATOM     13  C   UNL     1       1.938  -6.694   0.511  0.00  0.00    +0.173 A 
ATOM     14  N   UNL     1       1.963  -5.842   1.527  0.00  0.00    -0.216 NA
ATOM     15  C   UNL     1       0.751  -0.516   1.240  0.00  0.00    +0.046 C 
ENDROOT
BRANCH  13  16
ATOM     16  S   UNL     1       2.361  -8.378   0.809  0.00  0.00    -0.085 S 
BRANCH  16  17
ATOM     17  C   UNL     1       2.736  -8.429   2.583  0.00  0.00    +0.107 C 
BRANCH  17  18
ATOM     18  C   UNL     1       3.124  -9.854   2.981  0.00  0.00    +0.110 C 
ATOM     19  C   UNL     1       3.395  -9.946   4.504  0.00  0.00    -0.046 C 
ATOM     20  N   UNL     1       4.322 -11.101   4.601  0.00  0.00    +0.401 N 
ATOM     21  C   UNL     1       4.926 -11.252   3.263  0.00  0.00    +0.094 C 
ATOM     22  O   UNL     1       4.402 -10.217   2.411  0.00  0.00    -0.388 OA
ATOM     23  H   UNL     1       5.039 -10.914   5.287  0.00  0.00    -0.081 HD
ATOM     24  H   UNL     1       3.812 -11.935   4.849  0.00  0.00    -0.081 HD
BRANCH  21  25
ATOM     25  C   UNL     1       6.424 -11.122   3.363  0.00  0.00    -0.036 A 
ATOM     26  C   UNL     1       6.983 -10.331   4.349  0.00  0.00    +0.006 A 
ATOM     27  C   UNL     1       8.356 -10.209   4.443  0.00  0.00    +0.023 A 
ATOM     28  C   UNL     1       9.174 -10.883   3.546  0.00  0.00    +0.029 A 
ATOM     29  C   UNL     1       8.609 -11.678   2.557  0.00  0.00    +0.023 A 
ATOM     30  C   UNL     1       7.236 -11.799   2.471  0.00  0.00    +0.006 A 
BRANCH  28  31
ATOM     31  N   UNL     1      10.563 -10.762   3.638  0.00  0.00    -0.336 N 
ATOM     32  C   UNL     1      11.157  -9.924   4.682  0.00  0.00    +0.129 C 
ATOM     33  C   UNL     1      11.425 -11.474   2.691  0.00  0.00    +0.129 C 
ENDBRANCH  28  31
ENDBRANCH  21  25
ENDBRANCH  17  18
ENDBRANCH  16  17
ENDBRANCH  13  16
BRANCH  12  34
ATOM     34  C   UNL     1       1.601  -7.337  -1.808  0.00  0.00    +0.154 C 
BRANCH  34  35
ATOM     35  C   UNL     1       2.963  -7.391  -2.450  0.00  0.00    -0.013 C 
ATOM     36  C   UNL     1       3.614  -8.527  -2.509  0.00  0.00    +0.005 C 
ENDBRANCH  34  35
ENDBRANCH  12  34
TORSDOF 7
