REMARK  Name = ZINC50362170
REMARK  7 active torsions:
REMARK  status: ('A' for Active; 'I' for Inactive)
REMARK    1  A    between atoms: C_1  and  N_2
REMARK    2  A    between atoms: N_2  and  C_3
REMARK    3  A    between atoms: N_2  and  C_10
REMARK    4  A    between atoms: C_3  and  C_4
REMARK    5  A    between atoms: C_10  and  C_12
REMARK    6  A    between atoms: C_10  and  C_14
REMARK    7  A    between atoms: C_12  and  N_13
REMARK                            x       y       z     vdW  Elec       q    Type
REMARK                         _______ _______ _______ _____ _____    ______ ____
ROOT
ATOM      1  C   UNL     1       0.727  -0.654   1.164  0.00  0.00    -0.019 C 
ENDROOT
BRANCH   1   2
ATOM      2  C   UNL     1       2.080  -0.052   1.440  0.00  0.00    +0.092 A 
ATOM      3  C   UNL     1       2.575   0.245   2.655  0.00  0.00    +0.059 A 
ATOM      4  C   UNL     1       3.866   0.786   2.450  0.00  0.00    +0.070 A 
ATOM      5  C   UNL     1       4.082   0.787   1.121  0.00  0.00    +0.184 A 
ATOM      6  O   UNL     1       2.998   0.273   0.515  0.00  0.00    -0.454 OA
ATOM      7 BR   UNL     1       5.647   1.400   0.254  0.00  0.00    -0.007 Br
ATOM      8 BR   UNL     1       5.059   1.392   3.786  0.00  0.00    -0.046 Br
ENDBRANCH   1   2
BRANCH   1  10
ATOM      9  C   UNL     1       0.111   1.435   0.158  0.00  0.00    -0.095 C 
ATOM     10  N   UNL     1       0.143  -0.022  -0.027  0.00  0.00    +0.386 N 
ATOM     11  H   UNL     1       0.704  -0.246  -0.836  0.00  0.00    -0.081 HD
BRANCH  10  12
ATOM     12  C   UNL     1      -1.224  -0.521  -0.226  0.00  0.00    -0.035 C 
BRANCH  12  13
ATOM     13  C   UNL     1      -1.773   0.020  -1.521  0.00  0.00    -0.025 A 
ATOM     14  C   UNL     1      -1.708  -0.514  -2.765  0.00  0.00    +0.011 A 
ATOM     15  C   UNL     1      -2.289   0.167  -3.818  0.00  0.00    +0.028 A 
ATOM     16  C   UNL     1      -2.908   1.349  -3.575  0.00  0.00    +0.078 A 
ATOM     17  S   UNL     1      -2.684   1.527  -1.813  0.00  0.00    -0.084 S 
ATOM     18 CL   UNL     1      -3.714   2.411  -4.687  0.00  0.00    -0.076 Cl
ENDBRANCH  12  13
ENDBRANCH  10  12
ENDBRANCH   1  10
BRANCH   1  19
ATOM     19  C   UNL     1       0.877  -2.158   0.922  0.00  0.00    -0.094 C 
BRANCH  19  20
ATOM     20  N   UNL     1       1.376  -2.803   2.143  0.00  0.00    +0.377 N 
ATOM     21  H   UNL     1       1.394  -3.803   2.012  0.00  0.00    -0.090 HD
ATOM     22  H   UNL     1       2.309  -2.473   2.341  0.00  0.00    -0.090 HD
ATOM     23  H   UNL     1       0.769  -2.576   2.916  0.00  0.00    -0.090 HD
ENDBRANCH  19  20
ENDBRANCH   1  19
TORSDOF 6
