REMARK  Name = ZINC03429426
REMARK  8 active torsions:
REMARK  status: ('A' for Active; 'I' for Inactive)
REMARK    1  A    between atoms: C_1  and  C_2
REMARK    2  A    between atoms: C_5  and  N_9
REMARK    3  A    between atoms: C_6  and  C_8
REMARK    4  A    between atoms: C_18  and  S_19
REMARK    5  A    between atoms: S_19  and  C_20
REMARK    6  A    between atoms: C_20  and  C_21
REMARK    7  A    between atoms: N_23  and  C_24
REMARK    8  A    between atoms: C_24  and  C_25
REMARK                            x       y       z     vdW  Elec       q    Type
REMARK                         _______ _______ _______ _____ _____    ______ ____
ROOT
ATOM      1  N   UNL     1      -3.443   5.361   9.107  0.00  0.00    -0.255 N 
ATOM      2  C   UNL     1      -2.786   5.713  10.227  0.00  0.00    +0.268 A 
ATOM      3  O   UNL     1      -3.401   6.023  11.233  0.00  0.00    -0.267 OA
ATOM      4  C   UNL     1      -1.356   5.723  10.219  0.00  0.00    +0.076 A 
ATOM      5  C   UNL     1      -0.449   6.073  11.319  0.00  0.00    -0.023 A 
ATOM      6  C   UNL     1       0.873   6.012  11.057  0.00  0.00    -0.004 A 
ATOM      7  S   UNL     1       0.987   5.487   9.366  0.00  0.00    -0.073 S 
ATOM      8  C   UNL     1      -0.746   5.353   9.011  0.00  0.00    +0.117 A 
ATOM      9  N   UNL     1      -1.452   5.009   7.939  0.00  0.00    -0.215 NA
ATOM     10  C   UNL     1      -2.769   5.006   7.972  0.00  0.00    +0.178 A 
ATOM     11  C   UNL     1       2.006   6.332  11.981  0.00  0.00    +0.043 C 
ATOM     12  C   UNL     1       1.789   5.615  13.319  0.00  0.00    +0.005 C 
ATOM     13  C   UNL     1       0.983   6.534  14.232  0.00  0.00    +0.001 C 
ATOM     14  C   UNL     1       0.014   7.374  13.402  0.00  0.00    +0.005 C 
ATOM     15  C   UNL     1      -0.990   6.478  12.687  0.00  0.00    +0.037 C 
ENDROOT
BRANCH   1  20
ATOM     16  C   UNL     1      -9.118   5.330   9.101  0.00  0.00    +0.044 C 
ATOM     17  C   UNL     1      -7.611   5.338   9.102  0.00  0.00    -0.050 A 
ATOM     18  C   UNL     1      -6.915   4.199   9.463  0.00  0.00    +0.005 A 
ATOM     19  C   UNL     1      -5.534   4.203   9.466  0.00  0.00    +0.027 A 
ATOM     20  C   UNL     1      -4.845   5.353   9.105  0.00  0.00    +0.055 A 
ATOM     21  C   UNL     1      -5.546   6.497   8.748  0.00  0.00    -0.026 A 
ATOM     22  C   UNL     1      -6.927   6.484   8.742  0.00  0.00    +0.008 A 
ATOM     23  C   UNL     1      -4.801   7.749   8.362  0.00  0.00    +0.046 C 
ENDBRANCH   1  20
BRANCH  10  24
ATOM     24  S   UNL     1      -3.674   4.546   6.532  0.00  0.00    -0.078 S 
BRANCH  24  25
ATOM     25  C   UNL     1      -2.305   4.204   5.397  0.00  0.00    +0.173 C 
BRANCH  25  26
ATOM     26  C   UNL     1      -2.856   3.780   4.060  0.00  0.00    +0.223 C 
ATOM     27  O   UNL     1      -4.055   3.714   3.891  0.00  0.00    -0.275 OA
ATOM     28  N   UNL     1      -2.015   3.472   3.052  0.00  0.00    -0.312 N 
ATOM     29  H   UNL     1      -1.056   3.525   3.188  0.00  0.00    +0.149 HD
BRANCH  28  30
ATOM     30  C   UNL     1      -2.550   3.059   1.752  0.00  0.00    +0.135 C 
BRANCH  30  31
ATOM     31  C   UNL     1      -1.394   2.771   0.793  0.00  0.00    +0.135 C 
ATOM     32  C   UNL     1      -1.928   2.453  -0.626  0.00  0.00    +0.035 C 
ATOM     33  C   UNL     1      -0.778   1.606  -1.224  0.00  0.00    +0.031 C 
ATOM     34  C   UNL     1      -0.013   1.086   0.008  0.00  0.00    +0.160 C 
ATOM     35  O   UNL     1      -0.705   1.559   1.176  0.00  0.00    -0.375 OA
ENDBRANCH  30  31
ENDBRANCH  28  30
ENDBRANCH  25  26
ENDBRANCH  24  25
ENDBRANCH  10  24
TORSDOF 6
