REMARK  Name = ZINC08644773
REMARK  6 active torsions:
REMARK  status: ('A' for Active; 'I' for Inactive)
REMARK    1  A    between atoms: C_1  and  C_2
REMARK    2  A    between atoms: C_2  and  C_4
REMARK    3  A    between atoms: C_2  and  S_16
REMARK    4  A    between atoms: S_16  and  C_17
REMARK    5  A    between atoms: C_20  and  C_23
REMARK    6  A    between atoms: N_21  and  N_22
REMARK                            x       y       z     vdW  Elec       q    Type
REMARK                         _______ _______ _______ _____ _____    ______ ____
ROOT
ATOM      1  C   UNL     1       5.291   2.385   5.276  0.00  0.00    +0.209 A 
ATOM      2  N   UNL     1       4.833   1.225   5.691  0.00  0.00    -0.121 NA
ATOM      3  N   UNL     1       5.446   0.865   6.762  0.00  0.00    -0.127 NA
ATOM      4  C   UNL     1       6.332   1.773   7.097  0.00  0.00    +0.183 A 
ATOM      5  N   UNL     1       6.265   2.772   6.153  0.00  0.00    -0.224 N 
ENDROOT
BRANCH   4   6
ATOM      6  C   UNL     1       7.237   1.729   8.265  0.00  0.00    +0.039 A 
ATOM      7  C   UNL     1       7.381   2.850   9.084  0.00  0.00    +0.014 A 
ATOM      8  C   UNL     1       8.222   2.801  10.176  0.00  0.00    +0.021 A 
ATOM      9  C   UNL     1       8.932   1.645  10.455  0.00  0.00    +0.042 A 
ATOM     10  C   UNL     1       8.799   0.531   9.645  0.00  0.00    +0.040 A 
ATOM     11  C   UNL     1       7.955   0.566   8.552  0.00  0.00    +0.053 A 
ATOM     12 CL   UNL     1       7.790  -0.832   7.536  0.00  0.00    -0.083 Cl
ATOM     13 CL   UNL     1       9.995   1.594  11.827  0.00  0.00    -0.083 Cl
ENDBRANCH   4   6
BRANCH   5  14
ATOM     14  N   UNL     1       7.013   3.914   6.104  0.00  0.00    -0.295 N 
ATOM     15  H   UNL     1       6.531   4.681   6.548  0.00  0.00    +0.163 HD
ATOM     16  H   UNL     1       7.921   3.769   6.519  0.00  0.00    +0.163 HD
ENDBRANCH   5  14
BRANCH   1  17
ATOM     17  S   UNL     1       4.755   3.272   3.851  0.00  0.00    -0.072 S 
BRANCH  17  19
ATOM     18  C   UNL     1       2.342   2.052   4.244  0.00  0.00    +0.029 C 
ATOM     19  C   UNL     1       3.488   2.137   3.233  0.00  0.00    +0.137 C 
BRANCH  19  20
ATOM     20  C   UNL     1       2.959   2.644   1.916  0.00  0.00    +0.233 C 
ATOM     21  O   UNL     1       3.120   3.805   1.605  0.00  0.00    -0.274 OA
ATOM     22  N   UNL     1       2.308   1.807   1.085  0.00  0.00    -0.270 N 
ATOM     23  C   UNL     1       2.219   0.372   1.387  0.00  0.00    +0.114 C 
ATOM     24  C   UNL     1       2.516  -0.399   0.094  0.00  0.00    +0.024 C 
ATOM     25  C   UNL     1       1.436  -0.070  -0.936  0.00  0.00    +0.038 C 
ATOM     26  C   UNL     1       1.276   1.421  -1.075  0.00  0.00    -0.026 A 
ATOM     27  C   UNL     1       1.703   2.291  -0.084  0.00  0.00    +0.039 A 
ATOM     28  C   UNL     1       1.536   3.661  -0.242  0.00  0.00    +0.024 A 
ATOM     29  C   UNL     1       0.946   4.158  -1.387  0.00  0.00    +0.002 A 
ATOM     30  C   UNL     1       0.522   3.290  -2.376  0.00  0.00    +0.000 A 
ATOM     31  C   UNL     1       0.686   1.927  -2.221  0.00  0.00    +0.005 A 
ENDBRANCH  19  20
ENDBRANCH  17  19
ENDBRANCH   1  17
TORSDOF 5
