REMARK  Name = ZINC14965141
REMARK  14 active torsions:
REMARK  status: ('A' for Active; 'I' for Inactive)
REMARK    1  A    between atoms: C_1  and  C_2
REMARK    2  A    between atoms: C_3  and  C_8
REMARK    3  A    between atoms: N_5  and  C_7
REMARK    4  A    between atoms: C_8  and  N_9
REMARK    5  A    between atoms: N_9  and  C_10
REMARK    6  A    between atoms: N_9  and  C_11
REMARK    7  A    between atoms: C_11  and  C_13
REMARK    8  A    between atoms: C_11  and  C_21
REMARK    9  A    between atoms: C_13  and  C_14
REMARK   10  A    between atoms: N_24  and  C_27
REMARK   11  A    between atoms: C_27  and  C_28
REMARK   12  A    between atoms: C_31  and  O_36
REMARK   13  A    between atoms: C_32  and  O_34
REMARK   14  A    between atoms: O_34  and  C_35
REMARK                            x       y       z     vdW  Elec       q    Type
REMARK                         _______ _______ _______ _____ _____    ______ ____
ROOT
ATOM      1  C   UNL     1      -4.283   5.801  -5.522  0.00  0.00    +0.064 C 
ENDROOT
BRANCH   1   2
ATOM      2  C   UNL     1      -3.961   5.844  -4.027  0.00  0.00    +0.003 C 
ATOM      3  C   UNL     1      -5.063   5.123  -3.245  0.00  0.00    -0.014 C 
ATOM      4  C   UNL     1      -4.705   5.116  -1.757  0.00  0.00    -0.078 C 
ATOM      5  N   UNL     1      -3.418   4.436  -1.565  0.00  0.00    +0.382 N 
ATOM      6  C   UNL     1      -2.336   5.137  -2.268  0.00  0.00    -0.078 C 
ATOM      7  C   UNL     1      -2.623   5.144  -3.771  0.00  0.00    -0.014 C 
ATOM      8  H   UNL     1      -3.503   3.429  -2.000  0.00  0.00    -0.081 HD
BRANCH   5   9
ATOM      9  C   UNL     1      -3.109   4.288  -0.137  0.00  0.00    -0.043 C 
BRANCH   9  10
ATOM     10  C   UNL     1      -1.918   3.379   0.028  0.00  0.00    -0.060 A 
ATOM     11  C   UNL     1      -2.104   2.015   0.158  0.00  0.00    +0.005 A 
ATOM     12  C   UNL     1      -1.016   1.178   0.315  0.00  0.00    +0.049 A 
ATOM     13  C   UNL     1       0.266   1.703   0.331  0.00  0.00    +0.158 A 
ATOM     14  C   UNL     1       0.454   3.075   0.195  0.00  0.00    +0.161 A 
ATOM     15  C   UNL     1      -0.642   3.910   0.043  0.00  0.00    +0.051 A 
BRANCH  14  16
ATOM     16  O   UNL     1       1.710   3.596   0.210  0.00  0.00    -0.491 OA
ATOM     17  C   UNL     1       1.827   5.013   0.065  0.00  0.00    +0.277 C 
ENDBRANCH  14  16
BRANCH  13  18
ATOM     18  O   UNL     1       1.338   0.880   0.479  0.00  0.00    -0.503 OA
ATOM     19  H   UNL     1       2.356   1.299   0.491  0.00  0.00    +0.292 HD
ENDBRANCH  13  18
ENDBRANCH   9  10
ENDBRANCH   5   9
ENDBRANCH   1   2
BRANCH   1  20
ATOM     20  N   UNL     1      -3.290   6.593  -6.260  0.00  0.00    -0.298 NA
ATOM     21  C   UNL     1      -2.883   7.776  -5.490  0.00  0.00    +0.105 C 
BRANCH  20  22
ATOM     22  C   UNL     1      -2.125   5.774  -6.620  0.00  0.00    +0.123 C 
BRANCH  22  25
ATOM     23  C   UNL     1      -2.237   6.669  -9.658  0.00  0.00    +0.068 C 
ATOM     24  C   UNL     1      -2.524   5.286  -9.132  0.00  0.00    +0.064 A 
ATOM     25  C   UNL     1      -2.474   4.892  -7.791  0.00  0.00    +0.007 A 
ATOM     26  C   UNL     1      -2.789   3.577  -7.731  0.00  0.00    +0.113 A 
ATOM     27  N   UNL     1      -3.038   3.156  -8.989  0.00  0.00    -0.274 N 
ATOM     28  N   UNL     1      -2.862   4.247  -9.851  0.00  0.00    -0.176 NA
ATOM     29  C   UNL     1      -3.420   1.798  -9.384  0.00  0.00    +0.172 C 
ENDBRANCH  22  25
ENDBRANCH  20  22
ENDBRANCH   1  20
BRANCH   1  30
ATOM     30  C   UNL     1      -5.678   6.382  -5.760  0.00  0.00    +0.054 C 
BRANCH  30  31
ATOM     31  C   UNL     1      -6.021   6.282  -7.224  0.00  0.00    -0.046 A 
ATOM     32  C   UNL     1      -5.799   7.359  -8.061  0.00  0.00    +0.006 A 
ATOM     33  C   UNL     1      -6.108   7.267  -9.405  0.00  0.00    +0.038 A 
ATOM     34  C   UNL     1      -6.650   6.097  -9.911  0.00  0.00    +0.123 A 
ATOM     35  C   UNL     1      -6.877   5.020  -9.071  0.00  0.00    +0.038 A 
ATOM     36  C   UNL     1      -6.562   5.113  -7.729  0.00  0.00    +0.006 A 
ATOM     37  F   UNL     1      -6.957   6.007 -11.223  0.00  0.00    -0.205 F 
ENDBRANCH  30  31
ENDBRANCH   1  30
TORSDOF 10
