REMARK  Name = ZINC12305256
REMARK  10 active torsions:
REMARK  status: ('A' for Active; 'I' for Inactive)
REMARK    1  A    between atoms: C_1  and  C_2
REMARK    2  A    between atoms: C_7  and  C_10
REMARK    3  A    between atoms: C_11  and  C_13
REMARK    4  A    between atoms: C_14  and  C_21
REMARK    5  A    between atoms: C_21  and  N_52
REMARK    6  A    between atoms: C_22  and  C_23
REMARK    7  A    between atoms: C_22  and  N_52
REMARK    8  A    between atoms: C_23  and  S_24
REMARK    9  A    between atoms: S_24  and  C_25
REMARK   10  A    between atoms: N_29  and  C_30
REMARK                            x       y       z     vdW  Elec       q    Type
REMARK                         _______ _______ _______ _____ _____    ______ ____
ROOT
ATOM      1  C   UNL     1      -0.017   1.353   0.027  0.00  0.00    +0.146 A 
ATOM      2  C   UNL     1       1.273   1.785   0.003  0.00  0.00    +0.039 A 
ATOM      3  N   UNL     1       2.090   0.670   0.015  0.00  0.00    -0.299 N 
ATOM      4  C   UNL     1       3.440   0.391   0.003  0.00  0.00    +0.100 A 
ATOM      5  C   UNL     1       3.878  -0.866   0.023  0.00  0.00    +0.067 A 
ATOM      6  S   UNL     1       2.350  -1.790   0.060  0.00  0.00    -0.058 S 
ATOM      7  C   UNL     1       1.236  -0.404   0.046  0.00  0.00    +0.178 A 
ATOM      8  N   UNL     1      -0.000  -0.005   0.054  0.00  0.00    -0.216 NA
ENDROOT
BRANCH   1  17
ATOM      9  C   UNL     1      -3.835  -1.682  -1.213  0.00  0.00    +0.039 C 
ATOM     10  C   UNL     1      -3.485  -0.195  -1.285  0.00  0.00    +0.133 C 
ATOM     11  C   UNL     1      -2.607   0.185  -0.093  0.00  0.00    +0.139 C 
ATOM     12  N   UNL     1      -2.441   1.647  -0.078  0.00  0.00    -0.291 N 
ATOM     13  C   UNL     1      -3.649   2.481  -0.179  0.00  0.00    +0.139 C 
ATOM     14  C   UNL     1      -4.477   1.990  -1.373  0.00  0.00    +0.133 C 
ATOM     15  O   UNL     1      -4.686   0.581  -1.252  0.00  0.00    -0.371 OA
ATOM     16  C   UNL     1      -5.827   2.709  -1.389  0.00  0.00    +0.039 C 
ATOM     17  C   UNL     1      -1.218   2.205   0.020  0.00  0.00    +0.267 C 
ATOM     18  O   UNL     1      -1.107   3.414   0.103  0.00  0.00    -0.268 OA
ENDBRANCH   1  17
BRANCH   2  19
ATOM     19  C   UNL     1       1.728   3.221  -0.032  0.00  0.00    -0.025 C 
BRANCH  19  20
ATOM     20  N   UNL     1       1.857   3.653  -1.437  0.00  0.00    +0.383 N 
ATOM     21  H   UNL     1       0.946   3.565  -1.903  0.00  0.00    -0.085 HD
ATOM     22  H   UNL     1       2.544   3.058  -1.913  0.00  0.00    -0.085 HD
BRANCH  20  23
ATOM     23  C   UNL     1       2.303   5.058  -1.501  0.00  0.00    -0.071 C 
BRANCH  23  24
ATOM     24  C   UNL     1       2.426   5.478  -2.967  0.00  0.00    +0.058 C 
BRANCH  24  25
ATOM     25  S   UNL     1       2.973   7.201  -3.058  0.00  0.00    -0.086 S 
BRANCH  25  26
ATOM     26  C   UNL     1       3.030   7.413  -4.806  0.00  0.00    +0.209 A 
ATOM     27  N   UNL     1       2.736   6.507  -5.713  0.00  0.00    -0.102 NA
ATOM     28  N   UNL     1       2.881   6.989  -6.894  0.00  0.00    -0.022 NA
ATOM     29  N   UNL     1       3.272   8.216  -6.832  0.00  0.00    -0.043 NA
ATOM     30  N   UNL     1       3.378   8.541  -5.468  0.00  0.00    -0.223 N 
ATOM     31  C   UNL     1       3.781   9.825  -4.889  0.00  0.00    +0.177 C 
ENDBRANCH  25  26
ENDBRANCH  24  25
ENDBRANCH  23  24
ENDBRANCH  20  23
ENDBRANCH  19  20
ENDBRANCH   2  19
TORSDOF 7
