REMARK  Name = ZINC09348619
REMARK  6 active torsions:
REMARK  status: ('A' for Active; 'I' for Inactive)
REMARK    1  A    between atoms: C_1  and  C_2
REMARK    2  A    between atoms: C_6  and  N_9
REMARK    3  A    between atoms: C_7  and  C_8
REMARK    4  A    between atoms: C_12  and  C_18
REMARK    5  A    between atoms: C_13  and  O_17
REMARK    6  A    between atoms: C_15  and  O_16
REMARK                            x       y       z     vdW  Elec       q    Type
REMARK                         _______ _______ _______ _____ _____    ______ ____
ROOT
ATOM      1  N   UNL     1       5.601   4.626   3.170  0.00  0.00    -0.230 N 
ATOM      2  C   UNL     1       4.542   4.680   2.336  0.00  0.00    +0.267 A 
ATOM      3  O   UNL     1       3.404   4.604   2.771  0.00  0.00    -0.267 OA
ATOM      4  C   UNL     1       4.771   4.827   0.962  0.00  0.00    +0.071 A 
ATOM      5  C   UNL     1       6.077   4.904   0.511  0.00  0.00    +0.224 A 
ATOM      6  N   UNL     1       7.087   4.850   1.386  0.00  0.00    -0.161 NA
ATOM      7  C   UNL     1       6.865   4.712   2.674  0.00  0.00    +0.306 A 
ENDROOT
BRANCH   4   8
ATOM      8  C   UNL     1       3.619   4.892  -0.007  0.00  0.00    +0.018 C 
ATOM      9  C   UNL     1       2.879   3.574  -0.008  0.00  0.00    +0.011 A 
ATOM     10  C   UNL     1       1.533   3.489   0.003  0.00  0.00    -0.022 A 
ATOM     11  C   UNL     1       1.185   2.074   0.002  0.00  0.00    +0.003 A 
ATOM     12  C   UNL     1      -0.016   1.362   0.009  0.00  0.00    +0.010 A 
ATOM     13  C   UNL     1       0.002  -0.004   0.002  0.00  0.00    +0.001 A 
ATOM     14  C   UNL     1       1.207  -0.693  -0.012  0.00  0.00    +0.002 A 
ATOM     15  C   UNL     1       2.405  -0.013  -0.019  0.00  0.00    +0.026 A 
ATOM     16  C   UNL     1       2.410   1.378  -0.012  0.00  0.00    +0.047 A 
ATOM     17  N   UNL     1       3.417   2.320  -0.016  0.00  0.00    -0.359 N 
ATOM     18  H   UNL     1       4.366   2.121  -0.025  0.00  0.00    +0.166 HD
ATOM     19  C   UNL     1       0.618   4.686   0.011  0.00  0.00    +0.018 C 
ATOM     20  C   UNL     1       1.446   5.916  -0.386  0.00  0.00    -0.076 C 
ATOM     21  N   UNL     1       2.686   5.960   0.417  0.00  0.00    +0.388 N 
ATOM     22  H   UNL     1       3.138   6.873   0.292  0.00  0.00    -0.084 HD
ATOM     23  H   UNL     1       2.450   5.828   1.408  0.00  0.00    -0.084 HD
ENDBRANCH   4   8
BRANCH   1  29
ATOM     24  C   UNL     1       4.919   6.675   7.588  0.00  0.00    +0.044 C 
ATOM     25  C   UNL     1       5.065   5.456   6.713  0.00  0.00    -0.046 A 
ATOM     26  C   UNL     1       5.000   4.193   7.271  0.00  0.00    +0.004 A 
ATOM     27  C   UNL     1       5.133   3.073   6.472  0.00  0.00    +0.002 A 
ATOM     28  C   UNL     1       5.333   3.213   5.112  0.00  0.00    +0.027 A 
ATOM     29  C   UNL     1       5.399   4.480   4.549  0.00  0.00    +0.057 A 
ATOM     30  C   UNL     1       5.271   5.603   5.355  0.00  0.00    -0.023 A 
ATOM     31  C   UNL     1       5.349   6.981   4.749  0.00  0.00    +0.046 C 
ENDBRANCH   1  29
BRANCH   7  32
ATOM     32  O   UNL     1       7.913   4.655   3.522  0.00  0.00    -0.479 OA
ATOM     33  H   UNL     1       8.796   4.720   3.134  0.00  0.00    +0.295 HD
ENDBRANCH   7  32
BRANCH   5  34
ATOM     34  O   UNL     1       6.332   5.039  -0.812  0.00  0.00    -0.492 OA
ATOM     35  H   UNL     1       7.273   5.085  -1.028  0.00  0.00    +0.294 HD
ENDBRANCH   5  34
TORSDOF 4
