REMARK  Name = ZINC63409329
REMARK  10 active torsions:
REMARK  status: ('A' for Active; 'I' for Inactive)
REMARK    1  A    between atoms: C_1  and  C_2
REMARK    2  A    between atoms: C_2  and  N_3
REMARK    3  A    between atoms: N_3  and  C_4
REMARK    4  A    between atoms: N_3  and  C_6
REMARK    5  A    between atoms: C_4  and  C_5
REMARK    6  A    between atoms: C_9  and  C_12
REMARK    7  A    between atoms: N_13  and  N_14
REMARK    8  A    between atoms: C_15  and  C_17
REMARK    9  A    between atoms: C_19  and  C_30
REMARK   10  A    between atoms: C_22  and  N_27
REMARK                            x       y       z     vdW  Elec       q    Type
REMARK                         _______ _______ _______ _____ _____    ______ ____
ROOT
ATOM      1  C   UNL     1      -2.238  -3.074 -10.277  0.00  0.00    +0.199 C 
ATOM      2  C   UNL     1      -3.209  -4.235 -10.304  0.00  0.00    -0.000 C 
ATOM      3  C   UNL     1      -2.973  -4.892 -11.500  0.00  0.00    +0.006 A 
ATOM      4  C   UNL     1      -3.556  -6.039 -12.091  0.00  0.00    +0.043 A 
ATOM      5  C   UNL     1      -3.117  -6.468 -13.299  0.00  0.00    +0.127 A 
ATOM      6  C   UNL     1      -2.094  -5.805 -13.987  0.00  0.00    +0.035 A 
ATOM      7  C   UNL     1      -1.491  -4.703 -13.484  0.00  0.00    +0.028 A 
ATOM      8  C   UNL     1      -1.895  -4.190 -12.221  0.00  0.00    +0.044 A 
ATOM      9  N   UNL     1      -1.476  -3.154 -11.527  0.00  0.00    -0.370 N 
ATOM     10  H   UNL     1      -0.775  -2.541 -11.798  0.00  0.00    +0.161 HD
ENDROOT
BRANCH   2  11
ATOM     11  C   UNL     1      -4.192  -4.589  -9.278  0.00  0.00    -0.019 A 
ATOM     12  C   UNL     1      -4.198  -5.876  -8.722  0.00  0.00    +0.008 A 
ATOM     13  C   UNL     1      -5.126  -6.200  -7.757  0.00  0.00    +0.001 A 
ATOM     14  C   UNL     1      -6.052  -5.260  -7.337  0.00  0.00    +0.000 A 
ATOM     15  C   UNL     1      -6.054  -3.986  -7.881  0.00  0.00    +0.001 A 
ATOM     16  C   UNL     1      -5.130  -3.642  -8.842  0.00  0.00    +0.008 A 
ENDBRANCH   2  11
BRANCH   1  18
ATOM     17  N   UNL     1      -1.654  -2.657  -7.910  0.00  0.00    -0.205 N 
ATOM     18  C   UNL     1      -1.312  -3.200  -9.095  0.00  0.00    +0.259 C 
ATOM     19  O   UNL     1      -0.258  -3.790  -9.211  0.00  0.00    -0.271 OA
ATOM     20  H   UNL     1      -2.461  -2.124  -7.836  0.00  0.00    +0.177 HD
BRANCH  17  22
ATOM     21  C   UNL     1      -1.174  -2.339  -5.644  0.00  0.00    +0.138 C 
ATOM     22  N   UNL     1      -0.844  -2.862  -6.786  0.00  0.00    -0.188 NA
BRANCH  21  26
ATOM     23  C   UNL     1       1.280  -2.962  -2.236  0.00  0.00    +0.030 A 
ATOM     24  C   UNL     1       0.124  -2.197  -2.128  0.00  0.00    +0.024 A 
ATOM     25  C   UNL     1      -0.675  -1.993  -3.231  0.00  0.00    +0.011 A 
ATOM     26  C   UNL     1      -0.322  -2.555  -4.461  0.00  0.00    -0.005 A 
ATOM     27  C   UNL     1       0.842  -3.323  -4.566  0.00  0.00    +0.011 A 
ATOM     28  C   UNL     1       1.638  -3.519  -3.460  0.00  0.00    +0.024 A 
BRANCH  23  29
ATOM     29  N   UNL     1       2.087  -3.167  -1.117  0.00  0.00    -0.330 N 
BRANCH  29  31
ATOM     30  C   UNL     1       2.330  -1.188   0.300  0.00  0.00    +0.024 C 
ATOM     31  C   UNL     1       1.711  -2.582   0.173  0.00  0.00    +0.102 C 
ENDBRANCH  29  31
BRANCH  29  32
ATOM     32  C   UNL     1       3.308  -3.968  -1.230  0.00  0.00    +0.102 C 
ATOM     33  C   UNL     1       2.984  -5.436  -0.948  0.00  0.00    +0.024 C 
ENDBRANCH  29  32
ENDBRANCH  23  29
ENDBRANCH  21  26
ENDBRANCH  17  22
ENDBRANCH   1  18
BRANCH   5  34
ATOM     34  N   UNL     1      -3.735  -7.669 -13.907  0.00  0.00    +0.056 N 
ATOM     35  O   UNL     1      -4.619  -8.254 -13.326  0.00  0.00    -0.126 OA
ATOM     36  O   UNL     1      -3.355  -8.064 -14.985  0.00  0.00    -0.126 OA
ENDBRANCH   5  34
TORSDOF 8
