REMARK  Name = ZINC08685657
REMARK  7 active torsions:
REMARK  status: ('A' for Active; 'I' for Inactive)
REMARK    1  A    between atoms: C_5  and  C_7
REMARK    2  A    between atoms: N_9  and  C_10
REMARK    3  A    between atoms: C_10  and  C_17
REMARK    4  A    between atoms: C_11  and  C_12
REMARK    5  A    between atoms: N_19  and  C_20
REMARK    6  A    between atoms: C_20  and  C_21
REMARK    7  A    between atoms: C_21  and  C_22
REMARK                            x       y       z     vdW  Elec       q    Type
REMARK                         _______ _______ _______ _____ _____    ______ ____
ROOT
ATOM      1  C   UNL     1      -0.056  -4.254  -0.133  0.00  0.00    +0.100 C 
ATOM      2  C   UNL     1       1.088  -4.988  -0.124  0.00  0.00    +0.074 C 
ENDROOT
BRANCH   2   3
ATOM      3  C   UNL     1       2.347  -4.339  -0.160  0.00  0.00    +0.130 A 
ATOM      4  C   UNL     1       3.576  -4.956  -0.260  0.00  0.00    +0.049 A 
ATOM      5  C   UNL     1       4.538  -3.932  -0.261  0.00  0.00    +0.042 A 
ATOM      6  C   UNL     1       3.874  -2.760  -0.164  0.00  0.00    +0.195 A 
ATOM      7  O   UNL     1       2.556  -3.008  -0.109  0.00  0.00    -0.463 OA
ENDBRANCH   2   3
BRANCH   1  10
ATOM      8  C   UNL     1      -0.588  -2.198   0.940  0.00  0.00    +0.249 C 
ATOM      9  O   UNL     1      -1.100  -2.819   1.852  0.00  0.00    -0.270 OA
ATOM     10  N   UNL     1       0.009  -2.857  -0.072  0.00  0.00    -0.277 N 
ATOM     11  H   UNL     1       0.484  -2.363  -0.759  0.00  0.00    +0.155 HD
BRANCH   8  16
ATOM     12  C   UNL     1       0.027   1.377  -0.032  0.00  0.00    +0.001 A 
ATOM     13  C   UNL     1      -0.683   2.049   0.948  0.00  0.00    +0.001 A 
ATOM     14  C   UNL     1      -1.362   1.344   1.925  0.00  0.00    +0.016 A 
ATOM     15  C   UNL     1      -1.336  -0.036   1.929  0.00  0.00    +0.030 A 
ATOM     16  C   UNL     1      -0.621  -0.721   0.943  0.00  0.00    +0.051 A 
ATOM     17  C   UNL     1       0.062  -0.002  -0.041  0.00  0.00    +0.014 A 
ATOM     18 BR   UNL     1      -2.265  -0.998   3.266  0.00  0.00    -0.050 Br
ENDBRANCH   8  16
ENDBRANCH   1  10
BRANCH   1  19
ATOM     19  C   UNL     1      -1.356  -4.924  -0.205  0.00  0.00    +0.258 C 
ATOM     20  O   UNL     1      -2.381  -4.267  -0.213  0.00  0.00    -0.269 OA
ATOM     21  N   UNL     1      -1.419  -6.269  -0.264  0.00  0.00    -0.310 N 
ATOM     22  H   UNL     1      -0.603  -6.793  -0.258  0.00  0.00    +0.149 HD
BRANCH  21  23
ATOM     23  C   UNL     1      -2.719  -6.940  -0.336  0.00  0.00    +0.112 C 
BRANCH  23  24
ATOM     24  C   UNL     1      -2.510  -8.454  -0.392  0.00  0.00    +0.093 C 
BRANCH  24  25
ATOM     25  C   UNL     1      -3.848  -9.144  -0.467  0.00  0.00    +0.110 A 
ATOM     26  N   UNL     1      -4.213 -10.035  -1.428  0.00  0.00    -0.342 N 
ATOM     27  H   UNL     1      -3.667 -10.333  -2.173  0.00  0.00    +0.167 HD
ATOM     28  C   UNL     1      -5.503 -10.437  -1.147  0.00  0.00    +0.066 A 
ATOM     29  C   UNL     1      -6.397 -11.311  -1.750  0.00  0.00    +0.028 A 
ATOM     30  C   UNL     1      -7.648 -11.494  -1.202  0.00  0.00    +0.002 A 
ATOM     31  C   UNL     1      -8.020 -10.812  -0.052  0.00  0.00    +0.002 A 
ATOM     32  C   UNL     1      -7.153  -9.947   0.555  0.00  0.00    +0.030 A 
ATOM     33  C   UNL     1      -5.879  -9.746   0.017  0.00  0.00    +0.089 A 
ATOM     34  N   UNL     1      -4.820  -8.979   0.382  0.00  0.00    -0.232 NA
ENDBRANCH  24  25
ENDBRANCH  23  24
ENDBRANCH  21  23
ENDBRANCH   1  19
TORSDOF 7
