REMARK  Name = ZINC46728428
REMARK  6 active torsions:
REMARK  status: ('A' for Active; 'I' for Inactive)
REMARK    1  A    between atoms: C_9  and  C_12
REMARK    2  A    between atoms: C_12  and  N_13
REMARK    3  A    between atoms: N_16  and  C_17
REMARK    4  A    between atoms: C_17  and  C_18
REMARK    5  A    between atoms: C_18  and  C_20
REMARK    6  A    between atoms: C_18  and  O_27
REMARK                            x       y       z     vdW  Elec       q    Type
REMARK                         _______ _______ _______ _____ _____    ______ ____
ROOT
ATOM      1  N   UNL     1       6.008  -2.071   0.712  0.00  0.00    -0.296 N 
ATOM      2  C   UNL     1       7.274  -2.495   0.525  0.00  0.00    +0.300 C 
ATOM      3  O   UNL     1       7.511  -3.358  -0.299  0.00  0.00    -0.253 OA
ATOM      4  N   UNL     1       8.277  -1.963   1.251  0.00  0.00    -0.297 N 
ATOM      5  H   UNL     1       5.820  -1.383   1.369  0.00  0.00    +0.150 HD
ATOM      6  H   UNL     1       8.088  -1.275   1.908  0.00  0.00    +0.150 HD
ENDROOT
BRANCH   1   7
ATOM      7  C   UNL     1       4.918  -2.649  -0.077  0.00  0.00    +0.153 C 
BRANCH   7  16
ATOM      8  C   UNL     1      -0.017   1.378   0.010  0.00  0.00    +0.004 A 
ATOM      9  C   UNL     1       1.170   2.088   0.002  0.00  0.00    +0.004 A 
ATOM     10  C   UNL     1       2.378   1.418  -0.014  0.00  0.00    +0.049 A 
ATOM     11  C   UNL     1       2.404   0.031  -0.023  0.00  0.00    +0.163 A 
ATOM     12  C   UNL     1       1.212  -0.683  -0.013  0.00  0.00    +0.162 A 
ATOM     13  C   UNL     1       0.002  -0.004   0.002  0.00  0.00    +0.049 A 
ATOM     14  O   UNL     1       1.214  -2.044  -0.013  0.00  0.00    -0.485 OA
ATOM     15  C   UNL     1       2.434  -2.685  -0.404  0.00  0.00    +0.275 C 
ATOM     16  C   UNL     1       3.594  -1.997   0.328  0.00  0.00    +0.228 C 
ATOM     17  O   UNL     1       3.602  -0.615  -0.043  0.00  0.00    -0.480 OA
ENDBRANCH   7  16
ENDBRANCH   1   7
BRANCH   4  18
ATOM     18  C   UNL     1       9.653  -2.425   1.048  0.00  0.00    +0.141 C 
BRANCH  18  19
ATOM     19  C   UNL     1      10.589  -1.666   1.990  0.00  0.00    +0.162 C 
BRANCH  19  20
ATOM     20  C   UNL     1      12.005  -2.140   1.781  0.00  0.00    -0.016 A 
ATOM     21  C   UNL     1      12.780  -1.581   0.782  0.00  0.00    +0.006 A 
ATOM     22  C   UNL     1      14.078  -2.016   0.590  0.00  0.00    +0.002 A 
ATOM     23  C   UNL     1      14.601  -3.010   1.395  0.00  0.00    +0.020 A 
ATOM     24  C   UNL     1      13.825  -3.569   2.395  0.00  0.00    +0.041 A 
ATOM     25  C   UNL     1      12.528  -3.130   2.591  0.00  0.00    +0.026 A 
ATOM     26 CL   UNL     1      14.482  -4.818   3.407  0.00  0.00    -0.084 Cl
ENDBRANCH  19  20
BRANCH  19  27
ATOM     27  O   UNL     1      10.511  -0.266   1.714  0.00  0.00    -0.386 OA
ATOM     28  H   UNL     1      10.761  -0.028   0.811  0.00  0.00    +0.210 HD
ENDBRANCH  19  27
ENDBRANCH  18  19
ENDBRANCH   4  18
TORSDOF 6
