REMARK  Name = ZINC37820785
REMARK  6 active torsions:
REMARK  status: ('A' for Active; 'I' for Inactive)
REMARK    1  A    between atoms: C_1  and  C_2
REMARK    2  A    between atoms: C_2  and  O_3
REMARK    3  A    between atoms: O_3  and  C_4
REMARK    4  A    between atoms: N_6  and  C_7
REMARK    5  A    between atoms: C_14  and  C_16
REMARK    6  A    between atoms: C_19  and  O_23
REMARK                            x       y       z     vdW  Elec       q    Type
REMARK                         _______ _______ _______ _____ _____    ______ ____
ROOT
ATOM      1  C   UNL     1       1.509  -3.748  -2.597  0.00  0.00    +0.093 C 
ATOM      2  C   UNL     1       2.740  -4.258  -1.844  0.00  0.00    +0.025 C 
ATOM      3  C   UNL     1       2.842  -5.778  -1.999  0.00  0.00    +0.021 C 
ATOM      4  C   UNL     1       3.003  -6.126  -3.482  0.00  0.00    +0.108 C 
ATOM      5  N   UNL     1       1.899  -5.515  -4.235  0.00  0.00    -0.301 N 
ATOM      6  C   UNL     1       1.655  -4.074  -4.087  0.00  0.00    +0.130 C 
ATOM      7  C   UNL     1       1.124  -6.263  -5.045  0.00  0.00    +0.202 C 
ATOM      8  O   UNL     1       0.215  -5.747  -5.661  0.00  0.00    -0.277 OA
ENDROOT
BRANCH   7   9
ATOM      9  C   UNL     1       1.386  -7.740  -5.186  0.00  0.00    +0.019 C 
ATOM     10  C   UNL     1       0.752  -8.514  -4.011  0.00  0.00    +0.023 C 
ATOM     11  C   UNL     1       0.223  -9.823  -4.632  0.00  0.00    +0.097 C 
ATOM     12  C   UNL     1       0.582  -9.730  -6.131  0.00  0.00    -0.050 C 
ATOM     13  N   UNL     1       0.710  -8.273  -6.397  0.00  0.00    +0.388 N 
ATOM     14  H   UNL     1      -0.201  -7.853  -6.506  0.00  0.00    -0.085 HD
ATOM     15  H   UNL     1       1.275  -8.110  -7.217  0.00  0.00    -0.085 HD
BRANCH  11  16
ATOM     16  O   UNL     1       0.866 -10.951  -4.035  0.00  0.00    -0.394 OA
ATOM     17  H   UNL     1       0.573 -11.803  -4.387  0.00  0.00    +0.210 HD
ENDBRANCH  11  16
ENDBRANCH   7   9
BRANCH   1  20
ATOM     18  C   UNL     1       0.776  -1.798  -1.335  0.00  0.00    +0.401 C 
ATOM     19  O   UNL     1       0.312  -2.549  -0.500  0.00  0.00    -0.226 OA
ATOM     20  N   UNL     1       1.395  -2.298  -2.422  0.00  0.00    -0.277 N 
ATOM     21  H   UNL     1       1.765  -1.699  -3.088  0.00  0.00    +0.152 HD
BRANCH  18  22
ATOM     22  O   UNL     1       0.671  -0.465  -1.174  0.00  0.00    -0.451 OA
BRANCH  22  24
ATOM     23  C   UNL     1      -0.019   1.526   0.010  0.00  0.00    +0.048 C 
ATOM     24  C   UNL     1       0.002  -0.004   0.002  0.00  0.00    +0.230 C 
ENDBRANCH  22  24
ENDBRANCH  18  22
ENDBRANCH   1  20
TORSDOF 5
