REMARK  Name = ZINC59958421
REMARK  15 active torsions:
REMARK  status: ('A' for Active; 'I' for Inactive)
REMARK    1  A    between atoms: C_1  and  C_2
REMARK    2  A    between atoms: C_7  and  N_8
REMARK    3  A    between atoms: C_9  and  C_11
REMARK    4  A    between atoms: C_11  and  C_13
REMARK    5  A    between atoms: C_11  and  N_14
REMARK    6  A    between atoms: C_18  and  C_21
REMARK    7  A    between atoms: C_21  and  N_22
REMARK    8  A    between atoms: N_22  and  C_23
REMARK    9  A    between atoms: C_23  and  C_24
REMARK   10  A    between atoms: C_23  and  C_25
REMARK   11  A    between atoms: C_26  and  O_28
REMARK   12  A    between atoms: O_28  and  C_29
REMARK   13  A    between atoms: C_29  and  C_30
REMARK   14  A    between atoms: C_29  and  C_31
REMARK   15  A    between atoms: C_29  and  C_32
REMARK                            x       y       z     vdW  Elec       q    Type
REMARK                         _______ _______ _______ _____ _____    ______ ____
ROOT
ATOM      1  N   UNL     1      -0.122  -0.898   5.999  0.00  0.00    +0.387 N 
ATOM      2  C   UNL     1      -1.298  -1.774   5.942  0.00  0.00    -0.078 C 
ATOM      3  C   UNL     1      -1.214  -2.821   7.055  0.00  0.00    -0.018 C 
ATOM      4  C   UNL     1      -1.168  -2.113   8.412  0.00  0.00    +0.001 C 
ATOM      5  C   UNL     1       0.020  -1.147   8.432  0.00  0.00    -0.010 C 
ATOM      6  C   UNL     1      -0.111  -0.162   7.269  0.00  0.00    -0.073 C 
ATOM      7  H   UNL     1       0.715  -1.457   5.928  0.00  0.00    -0.081 HD
ENDROOT
BRANCH   1   8
ATOM      8  C   UNL     1      -0.169   0.055   4.882  0.00  0.00    +0.016 C 
ATOM      9  C   UNL     1       1.026   1.006   4.973  0.00  0.00    -0.004 C 
BRANCH   8  11
ATOM     10  N   UNL     1      -0.689  -0.175   2.475  0.00  0.00    -0.287 N 
ATOM     11  C   UNL     1      -0.115  -0.697   3.577  0.00  0.00    +0.203 C 
ATOM     12  O   UNL     1       0.445  -1.771   3.519  0.00  0.00    -0.277 OA
ATOM     13  H   UNL     1      -1.080   0.712   2.505  0.00  0.00    +0.155 HD
BRANCH  10  20
ATOM     14  C   UNL     1      -2.865   0.241   0.691  0.00  0.00    +0.045 C 
ATOM     15  C   UNL     1      -1.764  -0.742   0.388  0.00  0.00    -0.029 A 
ATOM     16  C   UNL     1      -1.790  -1.467  -0.787  0.00  0.00    +0.008 A 
ATOM     17  C   UNL     1      -0.780  -2.369  -1.068  0.00  0.00    +0.039 A 
ATOM     18  C   UNL     1       0.261  -2.547  -0.172  0.00  0.00    +0.125 A 
ATOM     19  C   UNL     1       0.291  -1.823   1.006  0.00  0.00    +0.062 A 
ATOM     20  C   UNL     1      -0.719  -0.913   1.286  0.00  0.00    +0.039 A 
ATOM     21  F   UNL     1       1.246  -3.429  -0.448  0.00  0.00    -0.205 F 
ENDBRANCH  10  20
ENDBRANCH   8  11
ENDBRANCH   1   8
BRANCH   5  22
ATOM     22  C   UNL     1       0.030  -0.377   9.755  0.00  0.00    +0.113 C 
BRANCH  22  23
ATOM     23  N   UNL     1       0.269  -1.309  10.860  0.00  0.00    -0.265 N 
ATOM     24  C   UNL     1      -0.770  -1.907  11.475  0.00  0.00    +0.404 C 
ATOM     25  O   UNL     1      -1.907  -1.673  11.113  0.00  0.00    -0.226 OA
BRANCH  23  26
ATOM     26  C   UNL     1       1.639  -1.591  11.296  0.00  0.00    +0.073 C 
ATOM     27  C   UNL     1       1.799  -1.192  12.764  0.00  0.00    +0.028 C 
ATOM     28  C   UNL     1       1.927  -3.086  11.140  0.00  0.00    +0.028 C 
ENDBRANCH  23  26
BRANCH  24  29
ATOM     29  O   UNL     1      -0.550  -2.763  12.490  0.00  0.00    -0.445 OA
BRANCH  29  30
ATOM     30  C   UNL     1      -1.698  -3.360  13.096  0.00  0.00    +0.107 C 
ATOM     31  C   UNL     1      -2.472  -4.159  12.046  0.00  0.00    +0.055 C 
ATOM     32  C   UNL     1      -1.253  -4.295  14.222  0.00  0.00    +0.055 C 
ATOM     33  C   UNL     1      -2.600  -2.265  13.670  0.00  0.00    +0.055 C 
ENDBRANCH  29  30
ENDBRANCH  24  29
ENDBRANCH  22  23
ENDBRANCH   5  22
TORSDOF 8
