REMARK  Name = ZINC14986359
REMARK  7 active torsions:
REMARK  status: ('A' for Active; 'I' for Inactive)
REMARK    1  A    between atoms: C_1  and  N_2
REMARK    2  A    between atoms: N_2  and  C_3
REMARK    3  A    between atoms: C_3  and  C_5
REMARK    4  A    between atoms: C_3  and  C_13
REMARK    5  A    between atoms: C_5  and  C_6
REMARK    6  A    between atoms: C_18  and  N_58
REMARK    7  A    between atoms: C_24  and  C_26
REMARK                            x       y       z     vdW  Elec       q    Type
REMARK                         _______ _______ _______ _____ _____    ______ ____
ROOT
ATOM      1  C   UNL     1       0.145  -0.242   1.268  0.00  0.00    +0.083 C 
ENDROOT
BRANCH   1   2
ATOM      2  C   UNL     1      -0.030  -1.668   0.740  0.00  0.00    +0.006 C 
ATOM      3  C   UNL     1      -0.251  -2.625   1.915  0.00  0.00    -0.013 C 
ATOM      4  C   UNL     1      -0.365  -4.056   1.386  0.00  0.00    -0.078 C 
ATOM      5  C   UNL     1       1.073  -3.537  -0.495  0.00  0.00    -0.078 C 
ATOM      6  C   UNL     1       1.229  -2.090  -0.022  0.00  0.00    -0.013 C 
ATOM      7  N   UNL     1       0.888  -4.409   0.684  0.00  0.00    +0.382 N 
ATOM      8  H   UNL     1       1.678  -4.274   1.326  0.00  0.00    -0.081 HD
BRANCH   7   9
ATOM      9  C   UNL     1       0.848  -5.825   0.263  0.00  0.00    -0.058 C 
ATOM     10  C   UNL     1       0.495  -6.677   1.480  0.00  0.00    -0.004 C 
ATOM     11  C   UNL     1       1.123  -8.093   1.348  0.00  0.00    +0.067 C 
ATOM     12  S   UNL     1       2.759  -7.637   0.623  0.00  0.00    -0.162 S 
ATOM     13  C   UNL     1       2.214  -6.177  -0.358  0.00  0.00    +0.054 C 
ENDBRANCH   7   9
ENDBRANCH   1   2
BRANCH   1  15
ATOM     14  C   UNL     1      -2.365   0.052   1.492  0.00  0.00    +0.132 C 
ATOM     15  N   UNL     1      -1.022   0.128   2.072  0.00  0.00    -0.297 N 
ATOM     16  C   UNL     1      -0.861   0.538   3.346  0.00  0.00    +0.247 C 
ATOM     17  O   UNL     1       0.245   0.527   3.853  0.00  0.00    -0.270 OA
BRANCH  16  18
ATOM     18  C   UNL     1      -2.023   0.998   4.123  0.00  0.00    +0.044 A 
ATOM     19  C   UNL     1      -1.865   1.821   5.296  0.00  0.00    +0.020 A 
ATOM     20  C   UNL     1      -2.989   2.195   5.938  0.00  0.00    +0.046 A 
ATOM     21  S   UNL     1      -4.278   1.431   4.975  0.00  0.00    -0.104 S 
ATOM     22  C   UNL     1      -3.310   0.656   3.766  0.00  0.00    +0.058 A 
ENDBRANCH  16  18
ENDBRANCH   1  15
BRANCH   1  23
ATOM     23  C   UNL     1       0.280   0.725   0.090  0.00  0.00    +0.060 C 
BRANCH  23  24
ATOM     24  C   UNL     1       0.575   2.109   0.608  0.00  0.00    -0.010 A 
ATOM     25  C   UNL     1      -0.455   3.011   0.796  0.00  0.00    +0.006 A 
ATOM     26  C   UNL     1      -0.186   4.279   1.276  0.00  0.00    +0.000 A 
ATOM     27  C   UNL     1       1.116   4.650   1.558  0.00  0.00    +0.003 A 
ATOM     28  C   UNL     1       2.148   3.752   1.366  0.00  0.00    +0.038 A 
ATOM     29  C   UNL     1       1.879   2.480   0.890  0.00  0.00    +0.127 A 
ATOM     30  F   UNL     1       2.888   1.601   0.701  0.00  0.00    -0.205 F 
ENDBRANCH  23  24
ENDBRANCH   1  23
TORSDOF 6
