REMARK  Name = ZINC09974139
REMARK  6 active torsions:
REMARK  status: ('A' for Active; 'I' for Inactive)
REMARK    1  A    between atoms: C_6  and  S_7
REMARK    2  A    between atoms: S_7  and  N_10
REMARK    3  A    between atoms: C_14  and  C_17
REMARK    4  A    between atoms: N_19  and  C_20
REMARK    5  A    between atoms: C_20  and  C_21
REMARK    6  A    between atoms: C_21  and  O_22
REMARK                            x       y       z     vdW  Elec       q    Type
REMARK                         _______ _______ _______ _____ _____    ______ ____
ROOT
ATOM      1  N   UNL     1      -4.910   1.069  -0.100  0.00  0.00    -0.176 NA
ATOM      2  C   UNL     1      -5.053   0.133  -1.223  0.00  0.00    +0.109 C 
ATOM      3  C   UNL     1      -3.859  -0.827  -1.220  0.00  0.00    +0.018 C 
ATOM      4  C   UNL     1      -2.559  -0.019  -1.237  0.00  0.00    +0.015 C 
ATOM      5  C   UNL     1      -2.482   0.853   0.018  0.00  0.00    +0.091 C 
ATOM      6  C   UNL     1      -3.660   1.832   0.029  0.00  0.00    +0.122 C 
ENDROOT
BRANCH   5   7
ATOM      7  C   UNL     1      -1.187   1.624   0.017  0.00  0.00    +0.217 C 
ATOM      8  O   UNL     1      -1.204   2.837   0.023  0.00  0.00    -0.275 OA
ATOM      9  N   UNL     1      -0.011   0.966   0.007  0.00  0.00    -0.313 N 
ATOM     10  H   UNL     1       0.002  -0.004   0.002  0.00  0.00    +0.149 HD
BRANCH   9  11
ATOM     11  C   UNL     1       1.248   1.716  -0.001  0.00  0.00    +0.132 C 
BRANCH  11  12
ATOM     12  C   UNL     1       2.424   0.737  -0.017  0.00  0.00    +0.174 C 
BRANCH  12  13
ATOM     13  O   UNL     1       2.414   0.001  -1.242  0.00  0.00    -0.393 OA
ATOM     14  H   UNL     1       3.134  -0.639  -1.322  0.00  0.00    +0.209 HD
ENDBRANCH  12  13
ENDBRANCH  11  12
ENDBRANCH   9  11
ENDBRANCH   5   7
BRANCH   1  15
ATOM     15  S   UNL     1      -6.133   1.262   0.999  0.00  0.00    +0.061 S 
ATOM     16  O   UNL     1      -6.906   0.070   0.960  0.00  0.00    -0.153 OA
ATOM     17  O   UNL     1      -5.534   1.744   2.194  0.00  0.00    -0.153 OA
BRANCH  15  23
ATOM     18  C   UNL     1      -6.923   3.865   0.764  0.00  0.00    +0.029 A 
ATOM     19  C   UNL     1      -7.734   4.879   0.291  0.00  0.00    +0.017 A 
ATOM     20  C   UNL     1      -8.802   4.581  -0.537  0.00  0.00    +0.018 A 
ATOM     21  C   UNL     1      -9.053   3.269  -0.896  0.00  0.00    +0.017 A 
ATOM     22  C   UNL     1      -8.238   2.256  -0.427  0.00  0.00    +0.029 A 
ATOM     23  C   UNL     1      -7.172   2.554   0.401  0.00  0.00    +0.106 A 
ATOM     24 BR   UNL     1      -9.916   5.968  -1.179  0.00  0.00    -0.050 Br
ENDBRANCH  15  23
ENDBRANCH   1  15
TORSDOF 6
