REMARK  Name = ZINC38685820
REMARK  13 active torsions:
REMARK  status: ('A' for Active; 'I' for Inactive)
REMARK    1  A    between atoms: C_1  and  C_2
REMARK    2  A    between atoms: C_2  and  O_3
REMARK    3  A    between atoms: O_3  and  C_4
REMARK    4  A    between atoms: C_7  and  C_10
REMARK    5  A    between atoms: C_15  and  O_24
REMARK    6  A    between atoms: C_19  and  N_23
REMARK    7  A    between atoms: C_20  and  C_21
REMARK    8  A    between atoms: O_24  and  C_25
REMARK    9  A    between atoms: C_25  and  C_27
REMARK   10  A    between atoms: C_27  and  O_28
REMARK   11  A    between atoms: O_28  and  C_29
REMARK   12  A    between atoms: C_30  and  C_36
REMARK   13  A    between atoms: C_34  and  C_35
REMARK                            x       y       z     vdW  Elec       q    Type
REMARK                         _______ _______ _______ _____ _____    ______ ____
ROOT
ATOM      1  C   UNL     1      -2.057  -6.075  -0.038  0.00  0.00    +0.098 C 
ATOM      2  C   UNL     1      -2.794  -6.497   1.205  0.00  0.00    +0.008 A 
ATOM      3  C   UNL     1      -2.100  -6.630   2.395  0.00  0.00    +0.012 A 
ATOM      4  C   UNL     1      -2.759  -7.016   3.545  0.00  0.00    +0.047 A 
ATOM      5  C   UNL     1      -4.123  -7.272   3.510  0.00  0.00    +0.135 A 
ATOM      6  C   UNL     1      -4.820  -7.140   2.321  0.00  0.00    +0.093 A 
ATOM      7  C   UNL     1      -4.156  -6.751   1.165  0.00  0.00    +0.138 A 
ATOM      8  O   UNL     1      -4.853  -6.626   0.008  0.00  0.00    -0.441 OA
ATOM      9  C   UNL     1      -4.205  -6.636  -1.169  0.00  0.00    +0.199 C 
ATOM     10  C   UNL     1      -2.881  -6.382  -1.257  0.00  0.00    +0.098 C 
ENDROOT
BRANCH   1  14
ATOM     11  C   UNL     1      -1.289  -1.874   0.128  0.00  0.00    +0.121 A 
ATOM     12  C   UNL     1      -0.234  -2.771   0.048  0.00  0.00    +0.046 A 
ATOM     13  C   UNL     1      -0.484  -4.128  -0.005  0.00  0.00    +0.008 A 
ATOM     14  C   UNL     1      -1.786  -4.593   0.021  0.00  0.00    -0.034 A 
ATOM     15  C   UNL     1      -2.840  -3.702   0.100  0.00  0.00    +0.008 A 
ATOM     16  C   UNL     1      -2.594  -2.344   0.159  0.00  0.00    +0.046 A 
BRANCH  11  17
ATOM     17  O   UNL     1      -1.045  -0.538   0.181  0.00  0.00    -0.492 OA
BRANCH  17  19
ATOM     18  C   UNL     1       0.398   1.400   0.214  0.00  0.00    +0.048 C 
ATOM     19  C   UNL     1       0.323  -0.127   0.145  0.00  0.00    +0.225 C 
ENDBRANCH  17  19
ENDBRANCH  11  17
ENDBRANCH   1  14
BRANCH   9  20
ATOM     20  N   UNL     1      -4.909  -6.913  -2.314  0.00  0.00    -0.328 N 
ATOM     21  H   UNL     1      -5.860  -7.097  -2.266  0.00  0.00    +0.145 HD
ATOM     22  H   UNL     1      -4.456  -6.924  -3.171  0.00  0.00    +0.145 HD
ENDBRANCH   9  20
BRANCH  10  23
ATOM     23  C   UNL     1      -2.251  -6.407  -2.542  0.00  0.00    +0.101 C 
ATOM     24  N   UNL     1      -1.751  -6.427  -3.562  0.00  0.00    -0.191 NA
ENDBRANCH  10  23
BRANCH   5  25
ATOM     25  O   UNL     1      -4.773  -7.653   4.642  0.00  0.00    -0.423 OA
BRANCH  25  26
ATOM     26  C   UNL     1      -5.230  -8.914   4.712  0.00  0.00    +0.350 C 
ATOM     27  O   UNL     1      -4.969  -9.701   3.834  0.00  0.00    -0.247 OA
BRANCH  26  28
ATOM     28  C   UNL     1      -6.069  -9.347   5.887  0.00  0.00    +0.349 C 
BRANCH  28  29
ATOM     29  O   UNL     1      -6.430 -10.721   5.734  0.00  0.00    -0.480 OA
BRANCH  29  30
ATOM     30  C   UNL     1      -7.192 -11.271   6.715  0.00  0.00    +0.127 A 
ATOM     31  C   UNL     1      -6.588 -11.875   7.808  0.00  0.00    -0.009 A 
ATOM     32  C   UNL     1      -7.365 -12.433   8.805  0.00  0.00    +0.007 A 
ATOM     33  C   UNL     1      -8.745 -12.392   8.712  0.00  0.00    +0.001 A 
ATOM     34  C   UNL     1      -9.349 -11.791   7.623  0.00  0.00    +0.007 A 
ATOM     35  C   UNL     1      -8.576 -11.226   6.628  0.00  0.00    -0.009 A 
ATOM     36  C   UNL     1      -9.236 -10.566   5.444  0.00  0.00    +0.047 C 
ATOM     37  C   UNL     1      -5.085 -11.921   7.909  0.00  0.00    +0.047 C 
ENDBRANCH  29  30
ENDBRANCH  28  29
ENDBRANCH  26  28
ENDBRANCH  25  26
ENDBRANCH   5  25
TORSDOF 10
