REMARK  Name = ZINC39446704
REMARK  10 active torsions:
REMARK  status: ('A' for Active; 'I' for Inactive)
REMARK    1  A    between atoms: C_1  and  C_2
REMARK    2  A    between atoms: C_2  and  O_3
REMARK    3  A    between atoms: O_3  and  C_4
REMARK    4  A    between atoms: C_12  and  C_14
REMARK    5  A    between atoms: C_14  and  C_16
REMARK    6  A    between atoms: C_14  and  S_17
REMARK    7  A    between atoms: S_17  and  C_18
REMARK    8  A    between atoms: C_18  and  C_19
REMARK    9  A    between atoms: C_24  and  C_31
REMARK   10  A    between atoms: C_25  and  C_30
REMARK                            x       y       z     vdW  Elec       q    Type
REMARK                         _______ _______ _______ _____ _____    ______ ____
ROOT
ATOM      1  C   UNL     1      -6.418  -5.365  -1.154  0.00  0.00    +0.130 C 
ATOM      2  C   UNL     1      -6.342  -5.889   0.281  0.00  0.00    +0.029 C 
ENDROOT
BRANCH   1  11
ATOM      3  C   UNL     1      -1.497  -1.836   0.006  0.00  0.00    +0.403 C 
ATOM      4  O   UNL     1      -0.523  -2.563  -0.007  0.00  0.00    -0.226 OA
ATOM      5  N   UNL     1      -2.735  -2.368   0.015  0.00  0.00    -0.264 N 
ATOM      6  C   UNL     1      -3.922  -1.501   0.025  0.00  0.00    +0.130 C 
ATOM      7  C   UNL     1      -4.815  -1.879  -1.162  0.00  0.00    +0.127 C 
ATOM      8  N   UNL     1      -5.003  -3.337  -1.163  0.00  0.00    -0.298 N 
ATOM      9  C   UNL     1      -3.817  -4.204  -1.173  0.00  0.00    +0.127 C 
ATOM     10  C   UNL     1      -2.923  -3.825   0.009  0.00  0.00    +0.130 C 
ATOM     11  C   UNL     1      -6.241  -3.869  -1.154  0.00  0.00    +0.228 C 
ATOM     12  O   UNL     1      -7.213  -3.143  -1.145  0.00  0.00    -0.274 OA
BRANCH   3  13
ATOM     13  O   UNL     1      -1.339  -0.499   0.012  0.00  0.00    -0.451 OA
BRANCH  13  15
ATOM     14  C   UNL     1      -0.019   1.526   0.010  0.00  0.00    +0.048 C 
ATOM     15  C   UNL     1       0.002  -0.004   0.002  0.00  0.00    +0.230 C 
ENDBRANCH  13  15
ENDBRANCH   3  13
ENDBRANCH   1  11
BRANCH   1  16
ATOM     16  S   UNL     1      -8.034  -5.783  -1.865  0.00  0.00    -0.141 S 
BRANCH  16  17
ATOM     17  C   UNL     1      -8.028  -7.596  -1.934  0.00  0.00    +0.143 C 
BRANCH  17  18
ATOM     18  C   UNL     1      -9.332  -8.081  -2.514  0.00  0.00    +0.133 C 
ATOM     19  N   UNL     1     -10.225  -7.188  -2.868  0.00  0.00    -0.161 NA
ATOM     20  C   UNL     1     -11.411  -7.517  -3.391  0.00  0.00    +0.271 C 
ATOM     21  O   UNL     1     -12.218  -6.660  -3.709  0.00  0.00    -0.268 OA
ATOM     22  C   UNL     1     -11.715  -8.972  -3.573  0.00  0.00    +0.071 C 
ATOM     23  C   UNL     1     -12.826  -9.533  -4.072  0.00  0.00    -0.045 C 
ATOM     24  C   UNL     1     -12.879 -11.042  -4.149  0.00  0.00    +0.076 C 
ATOM     25  S   UNL     1     -11.240 -11.508  -3.458  0.00  0.00    -0.098 S 
ATOM     26  C   UNL     1     -10.628  -9.874  -3.135  0.00  0.00    +0.111 C 
ATOM     27  N   UNL     1      -9.514  -9.385  -2.643  0.00  0.00    -0.227 NA
ATOM     28  C   UNL     1     -14.016 -11.595  -3.286  0.00  0.00    +0.024 C 
ATOM     29  C   UNL     1     -13.982  -8.688  -4.541  0.00  0.00    +0.041 C 
ENDBRANCH  17  18
ENDBRANCH  16  17
ENDBRANCH   1  16
TORSDOF 6
