REMARK  Name = ZINC17216151
REMARK  10 active torsions:
REMARK  status: ('A' for Active; 'I' for Inactive)
REMARK    1  A    between atoms: C_1  and  C_2
REMARK    2  A    between atoms: C_4  and  C_19
REMARK    3  A    between atoms: C_6  and  S_9
REMARK    4  A    between atoms: C_7  and  C_8
REMARK    5  A    between atoms: S_9  and  N_12
REMARK    6  A    between atoms: C_15  and  C_18
REMARK    7  A    between atoms: C_19  and  O_21
REMARK    8  A    between atoms: O_21  and  C_22
REMARK    9  A    between atoms: C_22  and  C_24
REMARK   10  A    between atoms: C_22  and  C_25
REMARK                            x       y       z     vdW  Elec       q    Type
REMARK                         _______ _______ _______ _____ _____    ______ ____
ROOT
ATOM      1  C   UNL     1      -6.901   5.745   0.039  0.00  0.00    +0.044 C 
ATOM      2  C   UNL     1      -6.941   4.338  -0.497  0.00  0.00    -0.045 A 
ATOM      3  C   UNL     1      -5.844   3.514  -0.351  0.00  0.00    +0.018 A 
ATOM      4  C   UNL     1      -5.880   2.212  -0.853  0.00  0.00    +0.061 A 
ATOM      5  C   UNL     1      -7.033   1.748  -1.490  0.00  0.00    +0.043 A 
ATOM      6  C   UNL     1      -8.125   2.580  -1.624  0.00  0.00    +0.109 A 
ATOM      7  C   UNL     1      -8.080   3.872  -1.129  0.00  0.00    -0.021 A 
ATOM      8  C   UNL     1      -9.277   4.774  -1.278  0.00  0.00    +0.046 C 
ENDROOT
BRANCH   6   9
ATOM      9  S   UNL     1      -9.581   1.997  -2.427  0.00  0.00    +0.061 S 
ATOM     10  O   UNL     1      -9.946   2.989  -3.377  0.00  0.00    -0.153 OA
ATOM     11  O   UNL     1      -9.330   0.647  -2.793  0.00  0.00    -0.153 OA
BRANCH   9  12
ATOM     12  N   UNL     1     -10.786   1.963  -1.292  0.00  0.00    -0.177 NA
ATOM     13  C   UNL     1     -11.022   0.757  -0.486  0.00  0.00    +0.110 C 
ATOM     14  C   UNL     1     -12.491   0.355  -0.611  0.00  0.00    +0.020 C 
ATOM     15  C   UNL     1     -13.377   1.545  -0.236  0.00  0.00    -0.012 C 
ATOM     16  C   UNL     1     -13.109   2.706  -1.197  0.00  0.00    +0.020 C 
ATOM     17  C   UNL     1     -11.644   3.136  -1.075  0.00  0.00    +0.110 C 
ATOM     18  C   UNL     1     -14.848   1.135  -0.330  0.00  0.00    +0.007 C 
ENDBRANCH   9  12
ENDBRANCH   6   9
BRANCH   4  19
ATOM     19  C   UNL     1      -4.707   1.327  -0.706  0.00  0.00    +0.340 C 
ATOM     20  O   UNL     1      -4.744   0.193  -1.139  0.00  0.00    -0.245 OA
BRANCH  19  21
ATOM     21  O   UNL     1      -3.596   1.777  -0.091  0.00  0.00    -0.449 OA
BRANCH  21  22
ATOM     22  C   UNL     1      -2.482   0.853   0.018  0.00  0.00    +0.259 C 
ATOM     23  C   UNL     1      -2.602   0.061   1.322  0.00  0.00    +0.062 C 
BRANCH  22  24
ATOM     24  C   UNL     1      -1.187   1.624   0.017  0.00  0.00    +0.251 C 
ATOM     25  O   UNL     1      -1.204   2.837   0.023  0.00  0.00    -0.272 OA
ATOM     26  N   UNL     1      -0.011   0.966   0.007  0.00  0.00    -0.326 N 
ATOM     27  H   UNL     1       0.002  -0.004   0.002  0.00  0.00    +0.145 HD
ATOM     28  H   UNL     1       0.822   1.462   0.002  0.00  0.00    +0.145 HD
ENDBRANCH  22  24
ENDBRANCH  21  22
ENDBRANCH  19  21
ENDBRANCH   4  19
TORSDOF 6
