REMARK  Name = ZINC64363326
REMARK  6 active torsions:
REMARK  status: ('A' for Active; 'I' for Inactive)
REMARK    1  A    between atoms: C_1  and  C_2
REMARK    2  A    between atoms: C_3  and  C_8
REMARK    3  A    between atoms: C_8  and  C_9
REMARK    4  A    between atoms: C_9  and  C_10
REMARK    5  A    between atoms: N_12  and  N_13
REMARK    6  A    between atoms: N_13  and  C_14
REMARK                            x       y       z     vdW  Elec       q    Type
REMARK                         _______ _______ _______ _____ _____    ______ ____
ROOT
ATOM      1  C   UNL     1       1.433   0.208  -4.520  0.00  0.00    +0.229 C 
ATOM      2  O   UNL     1       0.374   0.490  -5.041  0.00  0.00    -0.274 OA
ATOM      3  N   UNL     1       2.588   0.428  -5.179  0.00  0.00    -0.236 N 
ATOM      4  H   UNL     1       3.434   0.202  -4.763  0.00  0.00    +0.173 HD
ENDROOT
BRANCH   3   5
ATOM      5  N   UNL     1       2.566   0.983  -6.465  0.00  0.00    -0.262 N 
ATOM      6  H   UNL     1       1.720   1.133  -6.915  0.00  0.00    +0.170 HD
BRANCH   5   7
ATOM      7  C   UNL     1       3.765   1.321  -7.101  0.00  0.00    +0.081 A 
ATOM      8  C   UNL     1       3.893   1.162  -8.476  0.00  0.00    +0.066 A 
ATOM      9  C   UNL     1       5.079   1.497  -9.101  0.00  0.00    +0.042 A 
ATOM     10  C   UNL     1       6.139   1.990  -8.361  0.00  0.00    +0.044 A 
ATOM     11  C   UNL     1       6.014   2.150  -6.992  0.00  0.00    +0.042 A 
ATOM     12  C   UNL     1       4.829   1.822  -6.361  0.00  0.00    +0.066 A 
ATOM     13 CL   UNL     1       4.671   2.030  -4.645  0.00  0.00    -0.081 Cl
ATOM     14 CL   UNL     1       7.627   2.409  -9.150  0.00  0.00    -0.083 Cl
ATOM     15 CL   UNL     1       2.565   0.542  -9.406  0.00  0.00    -0.081 Cl
ENDBRANCH   5   7
ENDBRANCH   3   5
BRANCH   1  16
ATOM     16  C   UNL     1       1.456  -0.390  -3.137  0.00  0.00    +0.102 C 
BRANCH  16  17
ATOM     17  C   UNL     1       0.024  -0.533  -2.619  0.00  0.00    +0.051 C 
BRANCH  17  20
ATOM     18  C   UNL     1       0.184   1.086   0.107  0.00  0.00    +0.069 C 
ATOM     19  C   UNL     1       0.117  -0.414  -0.029  0.00  0.00    +0.085 A 
ATOM     20  C   UNL     1       0.047  -1.131  -1.236  0.00  0.00    +0.034 A 
ATOM     21  C   UNL     1       0.004  -2.446  -0.940  0.00  0.00    +0.230 A 
ATOM     22  O   UNL     1       0.044  -2.572   0.395  0.00  0.00    -0.343 OA
ATOM     23  N   UNL     1       0.121  -1.272   0.952  0.00  0.00    -0.082 NA
ATOM     24 CL   UNL     1      -0.089  -3.747  -2.086  0.00  0.00    -0.040 Cl
ENDBRANCH  17  20
ENDBRANCH  16  17
ENDBRANCH   1  16
TORSDOF 5
