REMARK  Name = ZINC35474886
REMARK  10 active torsions:
REMARK  status: ('A' for Active; 'I' for Inactive)
REMARK    1  A    between atoms: C_1  and  C_2
REMARK    2  A    between atoms: N_8  and  C_9
REMARK    3  A    between atoms: C_9  and  C_10
REMARK    4  A    between atoms: C_10  and  C_11
REMARK    5  A    between atoms: C_11  and  N_12
REMARK    6  A    between atoms: C_18  and  C_27
REMARK    7  A    between atoms: N_23  and  C_24
REMARK    8  A    between atoms: C_24  and  C_25
REMARK    9  A    between atoms: C_31  and  O_33
REMARK   10  A    between atoms: O_33  and  C_34
REMARK                            x       y       z     vdW  Elec       q    Type
REMARK                         _______ _______ _______ _____ _____    ______ ____
ROOT
ATOM      1  N   UNL     1       4.842  -0.112   3.791  0.00  0.00    -0.292 N 
ATOM      2  C   UNL     1       4.813   0.626   5.063  0.00  0.00    +0.159 C 
ATOM      3  C   UNL     1       5.655  -0.200   6.010  0.00  0.00    +0.043 C 
ATOM      4  C   UNL     1       6.084  -1.266   5.305  0.00  0.00    +0.058 C 
ATOM      5  C   UNL     1       5.593  -1.211   3.985  0.00  0.00    +0.247 C 
ATOM      6  O   UNL     1       5.820  -2.049   3.131  0.00  0.00    -0.270 OA
ATOM      7  C   UNL     1       6.962  -2.275   6.018  0.00  0.00    +0.142 C 
ATOM      8  N   UNL     1       7.275  -2.005   7.431  0.00  0.00    -0.288 N 
ATOM      9  C   UNL     1       6.771  -0.892   8.000  0.00  0.00    +0.307 C 
ATOM     10  O   UNL     1       7.024  -0.661   9.166  0.00  0.00    -0.252 OA
ATOM     11  N   UNL     1       5.999  -0.033   7.321  0.00  0.00    -0.253 N 
ATOM     12  H   UNL     1       7.832  -2.614   7.941  0.00  0.00    +0.151 HD
ENDROOT
BRANCH   7  13
ATOM     13  C   UNL     1       6.282  -3.618   5.942  0.00  0.00    -0.019 A 
ATOM     14  C   UNL     1       5.248  -3.919   6.809  0.00  0.00    +0.006 A 
ATOM     15  C   UNL     1       4.622  -5.150   6.742  0.00  0.00    +0.004 A 
ATOM     16  C   UNL     1       5.029  -6.083   5.808  0.00  0.00    +0.045 A 
ATOM     17  C   UNL     1       6.066  -5.783   4.936  0.00  0.00    +0.120 A 
ATOM     18  C   UNL     1       6.688  -4.545   5.002  0.00  0.00    +0.051 A 
BRANCH  17  19
ATOM     19  O   UNL     1       6.468  -6.699   4.017  0.00  0.00    -0.495 OA
ATOM     20  C   UNL     1       5.778  -7.951   4.003  0.00  0.00    +0.277 C 
ENDBRANCH  17  19
ENDBRANCH   7  13
BRANCH   1  21
ATOM     21  C   UNL     1       4.173   0.276   2.547  0.00  0.00    +0.106 C 
BRANCH  21  22
ATOM     22  C   UNL     1       2.764  -0.321   2.518  0.00  0.00    +0.000 C 
BRANCH  22  23
ATOM     23  C   UNL     1       2.066   0.083   1.218  0.00  0.00    -0.077 C 
BRANCH  23  30
ATOM     24  C   UNL     1      -0.019   1.526   0.010  0.00  0.00    -0.013 C 
ATOM     25  C   UNL     1       0.002  -0.004   0.002  0.00  0.00    -0.072 C 
ATOM     26  C   UNL     1      -1.434  -0.533   0.011  0.00  0.00    -0.016 C 
ATOM     27  C   UNL     1      -1.408  -2.064   0.003  0.00  0.00    -0.003 C 
ATOM     28  C   UNL     1      -0.600  -2.558   1.206  0.00  0.00    -0.019 C 
ATOM     29  C   UNL     1       0.805  -1.954   1.152  0.00  0.00    -0.078 C 
ATOM     30  N   UNL     1       0.713  -0.490   1.191  0.00  0.00    +0.381 N 
ATOM     31  H   UNL     1       0.213  -0.206   2.020  0.00  0.00    -0.081 HD
ENDBRANCH  23  30
ENDBRANCH  22  23
ENDBRANCH  21  22
ENDBRANCH   1  21
BRANCH  11  32
ATOM     32  C   UNL     1       5.496   1.150   8.024  0.00  0.00    +0.141 C 
BRANCH  32  33
ATOM     33  C   UNL     1       4.168   0.830   8.660  0.00  0.00    -0.015 C 
ATOM     34  C   UNL     1       3.993   1.024   9.944  0.00  0.00    +0.005 C 
ENDBRANCH  32  33
ENDBRANCH  11  32
TORSDOF 8
