REMARK  Name = ZINC39534239
REMARK  10 active torsions:
REMARK  status: ('A' for Active; 'I' for Inactive)
REMARK    1  A    between atoms: C_4  and  O_7
REMARK    2  A    between atoms: O_7  and  S_8
REMARK    3  A    between atoms: S_8  and  C_11
REMARK    4  A    between atoms: C_14  and  C_17
REMARK    5  A    between atoms: C_17  and  C_19
REMARK    6  A    between atoms: C_17  and  N_22
REMARK    7  A    between atoms: C_19  and  N_20
REMARK    8  A    between atoms: N_20  and  O_21
REMARK    9  A    between atoms: C_26  and  C_29
REMARK   10  A    between atoms: C_34  and  O_35
REMARK                            x       y       z     vdW  Elec       q    Type
REMARK                         _______ _______ _______ _____ _____    ______ ____
ROOT
ATOM      1  C   UNL     1       0.841  -5.473   3.606  0.00  0.00    +0.103 C 
ENDROOT
BRANCH   1   2
ATOM      2  N   UNL     1       1.738  -6.537   4.075  0.00  0.00    -0.297 NA
ATOM      3  C   UNL     1       2.176  -7.387   2.958  0.00  0.00    +0.066 C 
ATOM      4  C   UNL     1       3.153  -8.443   3.478  0.00  0.00    -0.066 C 
ATOM      5  N   UNL     1       2.493  -9.258   4.506  0.00  0.00    +0.385 N 
ATOM      6  C   UNL     1       2.083  -8.400   5.625  0.00  0.00    -0.023 C 
ATOM      7  C   UNL     1       1.097  -7.343   5.124  0.00  0.00    +0.074 C 
ATOM      8  H   UNL     1       1.679  -9.704   4.110  0.00  0.00    -0.085 HD
ATOM      9  H   UNL     1       3.133  -9.963   4.840  0.00  0.00    -0.085 HD
BRANCH   6  10
ATOM     10  C   UNL     1       1.422  -9.240   6.687  0.00  0.00    -0.019 A 
ATOM     11  C   UNL     1       0.918 -10.486   6.368  0.00  0.00    +0.005 A 
ATOM     12  C   UNL     1       0.311 -11.258   7.342  0.00  0.00    +0.000 A 
ATOM     13  C   UNL     1       0.206 -10.784   8.637  0.00  0.00    +0.004 A 
ATOM     14  C   UNL     1       0.709  -9.539   8.961  0.00  0.00    +0.045 A 
ATOM     15  C   UNL     1       1.323  -8.765   7.987  0.00  0.00    +0.118 A 
BRANCH  15  16
ATOM     16  O   UNL     1       1.824  -7.542   8.304  0.00  0.00    -0.507 OA
ATOM     17  H   UNL     1       1.189  -6.819   8.203  0.00  0.00    +0.292 HD
ENDBRANCH  15  16
ENDBRANCH   6  10
ENDBRANCH   1   2
BRANCH   1  21
ATOM     18  C   UNL     1       3.160  -2.165   2.217  0.00  0.00    +0.128 A 
ATOM     19  C   UNL     1       1.833  -1.984   2.556  0.00  0.00    +0.031 A 
ATOM     20  C   UNL     1       1.082  -3.055   3.006  0.00  0.00    +0.007 A 
ATOM     21  C   UNL     1       1.659  -4.306   3.115  0.00  0.00    -0.029 A 
ATOM     22  C   UNL     1       2.987  -4.487   2.775  0.00  0.00    +0.007 A 
ATOM     23  C   UNL     1       3.736  -3.418   2.322  0.00  0.00    +0.031 A 
BRANCH  18  24
ATOM     24  S   UNL     1       4.117  -0.801   1.644  0.00  0.00    +0.151 S 
ATOM     25  O   UNL     1       5.477  -1.120   1.905  0.00  0.00    -0.131 OA
ATOM     26  O   UNL     1       3.498   0.372   2.155  0.00  0.00    -0.131 OA
BRANCH  24  27
ATOM     27  O   UNL     1       3.966  -0.749   0.131  0.00  0.00    -0.342 OA
BRANCH  27  31
ATOM     28  C   UNL     1       0.323   0.709  -1.143  0.00  0.00    +0.000 A 
ATOM     29  C   UNL     1       1.379   1.576  -0.936  0.00  0.00    +0.004 A 
ATOM     30  C   UNL     1       2.600   1.091  -0.510  0.00  0.00    +0.048 A 
ATOM     31  C   UNL     1       2.765  -0.269  -0.289  0.00  0.00    +0.157 A 
ATOM     32  C   UNL     1       1.704  -1.137  -0.497  0.00  0.00    +0.048 A 
ATOM     33  C   UNL     1       0.485  -0.647  -0.924  0.00  0.00    +0.004 A 
ENDBRANCH  27  31
ENDBRANCH  24  27
ENDBRANCH  18  24
ENDBRANCH   1  21
BRANCH   1  34
ATOM     34  C   UNL     1      -0.027  -6.003   2.464  0.00  0.00    +0.134 C 
BRANCH  34  35
ATOM     35  N   UNL     1      -0.828  -7.137   2.944  0.00  0.00    -0.202 NA
ATOM     36  H   UNL     1      -0.237  -7.907   3.220  0.00  0.00    +0.154 HD
BRANCH  35  37
ATOM     37  O   UNL     1      -1.798  -7.559   1.933  0.00  0.00    -0.315 OA
ATOM     38  H   UNL     1      -2.351  -8.305   2.205  0.00  0.00    +0.236 HD
ENDBRANCH  35  37
ENDBRANCH  34  35
ENDBRANCH   1  34
TORSDOF 10
