REMARK  Name = ZINC02227497
REMARK  5 active torsions:
REMARK  status: ('A' for Active; 'I' for Inactive)
REMARK    1  A    between atoms: C_1  and  C_2
REMARK    2  A    between atoms: C_2  and  O_3
REMARK    3  A    between atoms: O_3  and  C_4
REMARK    4  A    between atoms: C_4  and  C_6
REMARK    5  A    between atoms: N_11  and  C_13
REMARK                            x       y       z     vdW  Elec       q    Type
REMARK                         _______ _______ _______ _____ _____    ______ ____
ROOT
ATOM      1  C   UNL     1      -2.881  -2.427   0.017  0.00  0.00    +0.115 C 
ATOM      2  C   UNL     1      -3.646  -1.960  -1.224  0.00  0.00    +0.018 C 
ATOM      3  C   UNL     1      -5.064  -2.537  -1.198  0.00  0.00    +0.020 C 
ATOM      4  C   UNL     1      -4.988  -4.067  -1.223  0.00  0.00    +0.105 C 
ATOM      5  N   UNL     1      -4.133  -4.517  -0.116  0.00  0.00    -0.327 N 
ATOM      6  C   UNL     1      -2.781  -3.955   0.006  0.00  0.00    +0.120 C 
ENDROOT
BRANCH   5   7
ATOM      7  C   UNL     1      -4.596  -5.458   0.801  0.00  0.00    +0.074 A 
ATOM      8  C   UNL     1      -4.403  -6.824   0.591  0.00  0.00    +0.159 A 
ATOM      9  N   UNL     1      -4.850  -7.692   1.474  0.00  0.00    -0.152 NA
ATOM     10  N   UNL     1      -5.467  -7.332   2.539  0.00  0.00    -0.105 NA
ATOM     11  C   UNL     1      -5.699  -6.061   2.828  0.00  0.00    +0.308 A 
ATOM     12  O   UNL     1      -6.356  -5.731   3.969  0.00  0.00    -0.263 OA
ATOM     13  C   UNL     1      -5.262  -5.065   1.962  0.00  0.00    +0.131 A 
ATOM     14 CL   UNL     1      -5.542  -3.387   2.311  0.00  0.00    -0.076 Cl
ENDBRANCH   5   7
BRANCH   1  15
ATOM     15  C   UNL     1      -1.496  -1.832   0.006  0.00  0.00    +0.312 C 
ATOM     16  O   UNL     1      -0.528  -2.555  -0.007  0.00  0.00    -0.250 OA
BRANCH  15  17
ATOM     17  O   UNL     1      -1.339  -0.499   0.012  0.00  0.00    -0.465 OA
BRANCH  17  19
ATOM     18  C   UNL     1      -0.019   1.526   0.010  0.00  0.00    +0.048 C 
ATOM     19  C   UNL     1       0.002  -0.004   0.002  0.00  0.00    +0.229 C 
ENDBRANCH  17  19
ENDBRANCH  15  17
ENDBRANCH   1  15
TORSDOF 4
