REMARK  Name = ZINC63878917
REMARK  6 active torsions:
REMARK  status: ('A' for Active; 'I' for Inactive)
REMARK    1  A    between atoms: C_1  and  C_2
REMARK    2  A    between atoms: C_6  and  C_25
REMARK    3  A    between atoms: C_7  and  N_8
REMARK    4  A    between atoms: N_8  and  S_9
REMARK    5  A    between atoms: S_9  and  C_12
REMARK    6  A    between atoms: C_14  and  C_18
REMARK                            x       y       z     vdW  Elec       q    Type
REMARK                         _______ _______ _______ _____ _____    ______ ____
ROOT
ATOM      1  S   UNL     1       0.165  -1.143   3.842  0.00  0.00    +0.093 S 
ATOM      2  O   UNL     1      -1.020  -1.917   3.981  0.00  0.00    -0.148 OA
ATOM      3  O   UNL     1       1.453  -1.734   3.741  0.00  0.00    -0.148 OA
ENDROOT
BRANCH   1   4
ATOM      4  C   UNL     1       0.218  -0.052   5.225  0.00  0.00    +0.128 A 
ATOM      5  C   UNL     1       1.365   0.545   5.758  0.00  0.00    +0.061 A 
ATOM      6  C   UNL     1       0.959   1.318   6.826  0.00  0.00    +0.104 A 
ATOM      7  N   UNL     1      -0.407   1.190   6.935  0.00  0.00    -0.355 N 
ATOM      8  H   UNL     1      -0.964   1.624   7.600  0.00  0.00    +0.166 HD
ATOM      9  C   UNL     1      -0.845   0.362   5.955  0.00  0.00    +0.112 A 
BRANCH   6  10
ATOM     10  C   UNL     1       1.826   2.128   7.688  0.00  0.00    +0.263 C 
ATOM     11  O   UNL     1       3.026   2.158   7.488  0.00  0.00    -0.268 OA
ATOM     12  N   UNL     1       1.294   2.839   8.701  0.00  0.00    -0.296 N 
ATOM     13  C   UNL     1      -0.132   2.888   9.057  0.00  0.00    +0.108 C 
ATOM     14  C   UNL     1      -0.271   3.845  10.260  0.00  0.00    +0.020 C 
ATOM     15  C   UNL     1       1.006   4.721  10.157  0.00  0.00    +0.020 C 
ATOM     16  C   UNL     1       2.045   3.692   9.641  0.00  0.00    +0.108 C 
ENDBRANCH   6  10
ENDBRANCH   1   4
BRANCH   1  17
ATOM     17  N   UNL     1      -0.036  -0.210   2.489  0.00  0.00    -0.097 NA
BRANCH  17  24
ATOM     18  C   UNL     1       1.856  -1.969   1.306  0.00  0.00    +0.046 C 
ATOM     19  C   UNL     1       0.527  -1.672   0.661  0.00  0.00    -0.022 A 
ATOM     20  C   UNL     1       0.196  -2.266  -0.539  0.00  0.00    +0.043 A 
ATOM     21  C   UNL     1      -1.025  -2.000  -1.143  0.00  0.00    +0.125 A 
ATOM     22  C   UNL     1      -1.922  -1.137  -0.549  0.00  0.00    +0.055 A 
ATOM     23  C   UNL     1      -1.600  -0.527   0.668  0.00  0.00    +0.090 A 
ATOM     24  C   UNL     1      -0.365  -0.804   1.278  0.00  0.00    +0.091 A 
ATOM     25  F   UNL     1      -1.337  -2.589  -2.318  0.00  0.00    -0.205 F 
BRANCH  23  26
ATOM     26  C   UNL     1      -2.551   0.395   1.308  0.00  0.00    +0.389 C 
ATOM     27  O   UNL     1      -3.663   0.559   0.826  0.00  0.00    -0.241 OA
ATOM     28  O   UNL     1      -2.229   0.999   2.323  0.00  0.00    -0.241 OA
ENDBRANCH  23  26
ENDBRANCH  17  24
ENDBRANCH   1  17
TORSDOF 5
