REMARK  Name = ZINC21268028
REMARK  5 active torsions:
REMARK  status: ('A' for Active; 'I' for Inactive)
REMARK    1  A    between atoms: C_1  and  C_2
REMARK    2  A    between atoms: N_6  and  C_17
REMARK    3  A    between atoms: N_9  and  C_10
REMARK    4  A    between atoms: C_17  and  C_18
REMARK    5  A    between atoms: N_23  and  C_24
REMARK                            x       y       z     vdW  Elec       q    Type
REMARK                         _______ _______ _______ _____ _____    ______ ____
ROOT
ATOM      1  C   UNL     1      -0.290  -1.041   4.313  0.00  0.00    +0.238 C 
ATOM      2  O   UNL     1      -0.679   0.087   4.101  0.00  0.00    -0.274 OA
ATOM      3  N   UNL     1      -0.135  -1.474   5.580  0.00  0.00    -0.239 N 
ATOM      4  C   UNL     1      -0.412  -0.652   6.612  0.00  0.00    +0.306 C 
ATOM      5  O   UNL     1      -0.802   0.479   6.399  0.00  0.00    -0.252 OA
ATOM      6  N   UNL     1      -0.257  -1.085   7.878  0.00  0.00    -0.294 N 
ATOM      7  H   UNL     1       0.218  -2.498   5.772  0.00  0.00    +0.159 HD
ATOM      8  H   UNL     1       0.096  -2.110   8.070  0.00  0.00    +0.151 HD
ENDROOT
BRANCH   6   9
ATOM      9  C   UNL     1      -0.558  -0.192   9.000  0.00  0.00    +0.037 C 
ATOM     10  C   UNL     1      -2.026   0.234   8.932  0.00  0.00    +0.029 C 
ATOM     11  C   UNL     1      -2.340   1.167  10.104  0.00  0.00    -0.008 C 
ATOM     12  C   UNL     1      -2.082   0.435  11.422  0.00  0.00    +0.007 C 
ATOM     13  C   UNL     1      -0.614   0.009  11.490  0.00  0.00    -0.008 C 
ATOM     14  C   UNL     1      -0.299  -0.924  10.318  0.00  0.00    +0.029 C 
ATOM     15  C   UNL     1       0.281   1.247  11.410  0.00  0.00    +0.007 C 
ATOM     16  C   UNL     1       0.023   1.979  10.091  0.00  0.00    -0.008 C 
ATOM     17  C   UNL     1      -1.445   2.405  10.024  0.00  0.00    +0.007 C 
ATOM     18  C   UNL     1       0.337   1.046   8.920  0.00  0.00    +0.029 C 
ENDBRANCH   6   9
BRANCH   1  19
ATOM     19  C   UNL     1       0.020  -1.960   3.159  0.00  0.00    +0.214 C 
BRANCH  19  24
ATOM     20  C   UNL     1      -0.019   1.526   0.010  0.00  0.00    +0.038 C 
ATOM     21  C   UNL     1       0.002  -0.004   0.002  0.00  0.00    +0.166 C 
ATOM     22  C   UNL     1       0.699  -0.535   1.239  0.00  0.00    +0.244 C 
ATOM     23  O   UNL     1       1.851  -0.347   1.568  0.00  0.00    -0.273 OA
ATOM     24  N   UNL     1      -0.228  -1.259   1.897  0.00  0.00    -0.215 N 
ATOM     25  C   UNL     1      -1.401  -1.260   1.254  0.00  0.00    +0.316 C 
ATOM     26  O   UNL     1      -2.389  -1.845   1.653  0.00  0.00    -0.252 OA
ATOM     27  N   UNL     1      -1.365  -0.542   0.117  0.00  0.00    -0.243 N 
BRANCH  27  28
ATOM     28  C   UNL     1      -2.421  -0.343  -0.781  0.00  0.00    +0.039 A 
ATOM     29  C   UNL     1      -2.231   0.434  -1.916  0.00  0.00    +0.026 A 
ATOM     30  C   UNL     1      -3.272   0.625  -2.803  0.00  0.00    +0.040 A 
ATOM     31  C   UNL     1      -4.507   0.050  -2.557  0.00  0.00    +0.124 A 
ATOM     32  C   UNL     1      -4.700  -0.721  -1.422  0.00  0.00    +0.040 A 
ATOM     33  C   UNL     1      -3.660  -0.918  -0.535  0.00  0.00    +0.026 A 
ATOM     34  F   UNL     1      -5.526   0.241  -3.423  0.00  0.00    -0.205 F 
ENDBRANCH  27  28
ENDBRANCH  19  24
ENDBRANCH   1  19
TORSDOF 4
