REMARK  Name = ZINC25242000
REMARK  8 active torsions:
REMARK  status: ('A' for Active; 'I' for Inactive)
REMARK    1  A    between atoms: C_1  and  C_2
REMARK    2  A    between atoms: C_7  and  C_13
REMARK    3  A    between atoms: C_13  and  N_14
REMARK    4  A    between atoms: N_14  and  C_15
REMARK    5  A    between atoms: N_14  and  C_16
REMARK    6  A    between atoms: C_16  and  C_17
REMARK    7  A    between atoms: C_22  and  O_23
REMARK    8  A    between atoms: O_23  and  C_24
REMARK                            x       y       z     vdW  Elec       q    Type
REMARK                         _______ _______ _______ _____ _____    ______ ____
ROOT
ATOM      1  N   UNL     1      -3.163   1.904   3.270  0.00  0.00    +0.384 N 
ATOM      2  C   UNL     1      -3.403   0.992   4.396  0.00  0.00    -0.095 C 
ATOM      3  H   UNL     1      -2.952   1.294   2.380  0.00  0.00    -0.081 HD
ENDROOT
BRANCH   1   4
ATOM      4  C   UNL     1      -4.355   2.717   2.988  0.00  0.00    -0.022 C 
BRANCH   4  11
ATOM      5  C   UNL     1      -9.391  -2.146  -0.575  0.00  0.00    +0.045 C 
ATOM      6  C   UNL     1      -8.292  -1.250  -0.064  0.00  0.00    -0.034 A 
ATOM      7  C   UNL     1      -7.117  -1.087  -0.811  0.00  0.00    +0.008 A 
ATOM      8  C   UNL     1      -6.129  -0.275  -0.342  0.00  0.00    +0.047 A 
ATOM      9  C   UNL     1      -6.304   0.389   0.886  0.00  0.00    +0.140 A 
ATOM     10  N   UNL     1      -5.339   1.183   1.346  0.00  0.00    -0.236 NA
ATOM     11  C   UNL     1      -5.466   1.825   2.497  0.00  0.00    +0.032 A 
ATOM     12  C   UNL     1      -6.613   1.673   3.251  0.00  0.00    +0.092 A 
ATOM     13  C   UNL     1      -7.634   0.844   2.772  0.00  0.00    +0.258 A 
ATOM     14  O   UNL     1      -8.662   0.693   3.412  0.00  0.00    -0.267 OA
ATOM     15  N   UNL     1      -7.461   0.210   1.592  0.00  0.00    -0.268 N 
ATOM     16  C   UNL     1      -8.442  -0.604   1.114  0.00  0.00    +0.099 A 
ENDBRANCH   4  11
ENDBRANCH   1   4
BRANCH   1  17
ATOM     17  C   UNL     1      -1.993   2.756   3.522  0.00  0.00    -0.039 C 
BRANCH  17  18
ATOM     18  C   UNL     1      -0.751   1.903   3.563  0.00  0.00    -0.022 A 
ATOM     19  C   UNL     1      -0.207   1.531   4.777  0.00  0.00    +0.005 A 
ATOM     20  C   UNL     1       0.932   0.749   4.816  0.00  0.00    +0.000 A 
ATOM     21  C   UNL     1       1.530   0.336   3.639  0.00  0.00    +0.004 A 
ATOM     22  C   UNL     1       0.987   0.701   2.422  0.00  0.00    +0.046 A 
ATOM     23  C   UNL     1      -0.153   1.491   2.381  0.00  0.00    +0.131 A 
BRANCH  23  24
ATOM     24  O   UNL     1      -0.686   1.856   1.185  0.00  0.00    -0.406 OA
BRANCH  24  25
ATOM     25  C   UNL     1      -0.017   1.395   0.010  0.00  0.00    +0.575 C 
ATOM     26  F   UNL     1       0.002  -0.004   0.002  0.00  0.00    -0.133 F 
ATOM     27  F   UNL     1       1.296   1.879  -0.000  0.00  0.00    -0.133 F 
ATOM     28  F   UNL     1      -0.694   1.858  -1.124  0.00  0.00    -0.133 F 
ENDBRANCH  24  25
ENDBRANCH  23  24
ENDBRANCH  17  18
ENDBRANCH   1  17
TORSDOF 6
