REMARK  Name = ZINC14469793
REMARK  10 active torsions:
REMARK  status: ('A' for Active; 'I' for Inactive)
REMARK    1  A    between atoms: C_1  and  C_2
REMARK    2  A    between atoms: C_2  and  C_3
REMARK    3  A    between atoms: C_2  and  C_4
REMARK    4  A    between atoms: C_2  and  N_5
REMARK    5  A    between atoms: N_5  and  S_6
REMARK    6  A    between atoms: S_6  and  C_9
REMARK    7  A    between atoms: C_22  and  C_25
REMARK    8  A    between atoms: C_28  and  O_31
REMARK    9  A    between atoms: O_31  and  C_32
REMARK   10  A    between atoms: C_32  and  C_33
REMARK                            x       y       z     vdW  Elec       q    Type
REMARK                         _______ _______ _______ _____ _____    ______ ____
ROOT
ATOM      1  C   UNL     1      -1.580   3.323   0.359  0.00  0.00    +0.106 A 
ATOM      2  C   UNL     1      -0.927   2.192  -0.095  0.00  0.00    +0.030 A 
ATOM      3  C   UNL     1       0.447   2.100  -0.002  0.00  0.00    +0.025 A 
ATOM      4  C   UNL     1       1.184   3.141   0.549  0.00  0.00    +0.031 A 
ATOM      5  C   UNL     1       0.517   4.285   1.002  0.00  0.00    -0.018 A 
ATOM      6  C   UNL     1      -0.856   4.363   0.913  0.00  0.00    +0.034 A 
ATOM      7  C   UNL     1       1.341   5.380   1.557  0.00  0.00    +0.049 C 
ATOM      8  C   UNL     1       0.803   6.349   2.546  0.00  0.00    -0.023 C 
ATOM      9  C   UNL     1       1.795   6.743   3.335  0.00  0.00    -0.030 C 
ATOM     10  C   UNL     1       3.089   6.027   2.946  0.00  0.00    +0.033 C 
ATOM     11  C   UNL     1       2.550   4.742   2.303  0.00  0.00    +0.029 C 
ATOM     12  C   UNL     1       3.402   4.103   1.220  0.00  0.00    +0.105 C 
ATOM     13  N   UNL     1       2.575   3.016   0.652  0.00  0.00    -0.336 N 
ATOM     14  H   UNL     1       3.003   2.202   0.344  0.00  0.00    +0.147 HD
ENDROOT
BRANCH  12  15
ATOM     15  C   UNL     1       3.735   5.115   0.155  0.00  0.00    -0.027 A 
ATOM     16  C   UNL     1       2.962   5.193  -0.989  0.00  0.00    +0.009 A 
ATOM     17  C   UNL     1       3.263   6.124  -1.965  0.00  0.00    +0.046 A 
ATOM     18  C   UNL     1       4.347   6.973  -1.801  0.00  0.00    +0.121 A 
ATOM     19  C   UNL     1       5.125   6.889  -0.655  0.00  0.00    +0.046 A 
ATOM     20  C   UNL     1       4.817   5.960   0.320  0.00  0.00    +0.009 A 
BRANCH  18  21
ATOM     21  O   UNL     1       4.648   7.886  -2.762  0.00  0.00    -0.487 OA
BRANCH  21  22
ATOM     22  C   UNL     1       3.804   7.916  -3.915  0.00  0.00    +0.264 C 
BRANCH  22  23
ATOM     23  C   UNL     1       4.287   8.983  -4.863  0.00  0.00    -0.010 A 
ATOM     24  C   UNL     1       3.796  10.271  -4.763  0.00  0.00    +0.007 A 
ATOM     25  C   UNL     1       4.243  11.251  -5.630  0.00  0.00    +0.000 A 
ATOM     26  C   UNL     1       5.174  10.940  -6.603  0.00  0.00    +0.000 A 
ATOM     27  C   UNL     1       5.661   9.651  -6.707  0.00  0.00    +0.000 A 
ATOM     28  C   UNL     1       5.218   8.672  -5.837  0.00  0.00    +0.007 A 
ENDBRANCH  22  23
ENDBRANCH  21  22
ENDBRANCH  18  21
ENDBRANCH  12  15
BRANCH   1  29
ATOM     29  S   UNL     1      -3.334   3.437   0.238  0.00  0.00    +0.059 S 
ATOM     30  O   UNL     1      -3.637   4.805   0.003  0.00  0.00    -0.153 OA
ATOM     31  O   UNL     1      -3.748   2.402  -0.643  0.00  0.00    -0.153 OA
BRANCH  29  32
ATOM     32  N   UNL     1      -3.953   3.065   1.729  0.00  0.00    -0.185 NA
ATOM     33  H   UNL     1      -4.391   3.751   2.257  0.00  0.00    +0.149 HD
BRANCH  32  35
ATOM     34  C   UNL     1      -2.367   1.279   2.256  0.00  0.00    +0.029 C 
ATOM     35  C   UNL     1      -3.838   1.701   2.250  0.00  0.00    +0.032 C 
ATOM     36  C   UNL     1      -4.388   1.652   3.677  0.00  0.00    +0.029 C 
ATOM     37  C   UNL     1      -4.639   0.747   1.361  0.00  0.00    +0.029 C 
ENDBRANCH  32  35
ENDBRANCH  29  32
ENDBRANCH   1  29
TORSDOF 7
