REMARK  Name = ZINC05343091
REMARK  8 active torsions:
REMARK  status: ('A' for Active; 'I' for Inactive)
REMARK    1  A    between atoms: C_1  and  C_2
REMARK    2  A    between atoms: C_2  and  C_3
REMARK    3  A    between atoms: C_3  and  N_4
REMARK    4  A    between atoms: C_5  and  C_22
REMARK    5  A    between atoms: C_8  and  C_15
REMARK    6  A    between atoms: C_20  and  O_21
REMARK    7  A    between atoms: C_25  and  S_28
REMARK    8  A    between atoms: S_28  and  C_29
REMARK                            x       y       z     vdW  Elec       q    Type
REMARK                         _______ _______ _______ _____ _____    ______ ____
ROOT
ATOM      1  N   UNL     1       0.738  -1.962  -1.265  0.00  0.00    -0.285 N 
ATOM      2  C   UNL     1       1.787  -2.804  -0.677  0.00  0.00    +0.141 C 
ATOM      3  C   UNL     1       1.377  -4.229  -0.930  0.00  0.00    +0.035 A 
ATOM      4  C   UNL     1       1.664  -5.549  -0.783  0.00  0.00    +0.075 A 
ATOM      5  N   UNL     1       0.644  -6.239  -1.374  0.00  0.00    -0.276 N 
ATOM      6  H   UNL     1       0.580  -7.205  -1.423  0.00  0.00    +0.189 HD
ATOM      7  N   UNL     1      -0.219  -5.417  -1.857  0.00  0.00    -0.168 NA
ATOM      8  C   UNL     1       0.151  -4.173  -1.630  0.00  0.00    +0.153 A 
ATOM      9  C   UNL     1      -0.204  -2.753  -1.807  0.00  0.00    +0.268 C 
ATOM     10  O   UNL     1      -1.207  -2.353  -2.366  0.00  0.00    -0.268 OA
ENDROOT
BRANCH   4  11
ATOM     11  C   UNL     1       2.850  -6.126  -0.114  0.00  0.00    +0.042 A 
ATOM     12  C   UNL     1       3.786  -6.852  -0.850  0.00  0.00    +0.013 A 
ATOM     13  C   UNL     1       4.890  -7.388  -0.221  0.00  0.00    +0.001 A 
ATOM     14  C   UNL     1       5.074  -7.209   1.139  0.00  0.00    +0.004 A 
ATOM     15  C   UNL     1       4.152  -6.491   1.879  0.00  0.00    +0.046 A 
ATOM     16  C   UNL     1       3.041  -5.942   1.260  0.00  0.00    +0.126 A 
BRANCH  16  17
ATOM     17  O   UNL     1       2.138  -5.232   1.985  0.00  0.00    -0.506 OA
ATOM     18  H   UNL     1       1.424  -5.767   2.357  0.00  0.00    +0.292 HD
ENDBRANCH  16  17
ENDBRANCH   4  11
BRANCH   2  19
ATOM     19  C   UNL     1       3.110  -2.519  -1.339  0.00  0.00    -0.022 A 
ATOM     20  C   UNL     1       3.167  -2.306  -2.704  0.00  0.00    +0.007 A 
ATOM     21  C   UNL     1       4.378  -2.045  -3.315  0.00  0.00    +0.015 A 
ATOM     22  C   UNL     1       5.541  -1.997  -2.555  0.00  0.00    +0.008 A 
ATOM     23  C   UNL     1       5.480  -2.212  -1.183  0.00  0.00    +0.015 A 
ATOM     24  C   UNL     1       4.265  -2.467  -0.579  0.00  0.00    +0.007 A 
BRANCH  22  25
ATOM     25  S   UNL     1       7.088  -1.666  -3.329  0.00  0.00    -0.129 S 
ATOM     26  C   UNL     1       8.280  -1.705  -1.963  0.00  0.00    +0.090 C 
ENDBRANCH  22  25
ENDBRANCH   2  19
BRANCH   1  27
ATOM     27  C   UNL     1       0.718  -0.497  -1.257  0.00  0.00    +0.109 C 
BRANCH  27  29
ATOM     28  C   UNL     1      -0.019   1.526   0.010  0.00  0.00    +0.005 C 
ATOM     29  C   UNL     1       0.002  -0.004   0.002  0.00  0.00    +0.016 C 
ENDBRANCH  27  29
ENDBRANCH   1  27
TORSDOF 6
