REMARK  Name = ZINC41586571
REMARK  8 active torsions:
REMARK  status: ('A' for Active; 'I' for Inactive)
REMARK    1  A    between atoms: C_1  and  C_2
REMARK    2  A    between atoms: C_2  and  O_3
REMARK    3  A    between atoms: O_3  and  C_4
REMARK    4  A    between atoms: C_4  and  C_6
REMARK    5  A    between atoms: N_11  and  C_13
REMARK    6  A    between atoms: C_13  and  C_14
REMARK    7  A    between atoms: C_15  and  O_32
REMARK    8  A    between atoms: C_23  and  C_25
REMARK                            x       y       z     vdW  Elec       q    Type
REMARK                         _______ _______ _______ _____ _____    ______ ____
ROOT
ATOM      1  C   UNL     1      -5.410  -6.590  -0.182  0.00  0.00    +0.020 A 
ATOM      2  C   UNL     1      -6.122  -6.931   0.957  0.00  0.00    +0.122 A 
ATOM      3  C   UNL     1      -7.402  -7.473   0.854  0.00  0.00    +0.046 A 
ATOM      4  C   UNL     1      -7.967  -7.686  -0.369  0.00  0.00    +0.015 A 
ATOM      5  C   UNL     1      -7.253  -7.370  -1.533  0.00  0.00    +0.019 A 
ATOM      6  C   UNL     1      -5.974  -6.789  -1.431  0.00  0.00    +0.144 A 
ATOM      7  O   UNL     1      -5.310  -6.414  -2.552  0.00  0.00    -0.421 OA
ATOM      8  C   UNL     1      -5.609  -7.084  -3.689  0.00  0.00    +0.345 A 
ATOM      9  O   UNL     1      -4.744  -7.369  -4.497  0.00  0.00    -0.245 OA
ATOM     10  C   UNL     1      -7.015  -7.457  -3.916  0.00  0.00    +0.067 A 
ATOM     11  C   UNL     1      -7.814  -7.618  -2.813  0.00  0.00    +0.027 A 
ENDROOT
BRANCH  10  12
ATOM     12  C   UNL     1      -7.544  -7.661  -5.285  0.00  0.00    -0.011 A 
ATOM     13  C   UNL     1      -7.986  -8.922  -5.683  0.00  0.00    +0.010 A 
ATOM     14  C   UNL     1      -8.477  -9.107  -6.959  0.00  0.00    +0.020 A 
ATOM     15  C   UNL     1      -8.532  -8.043  -7.844  0.00  0.00    +0.041 A 
ATOM     16  C   UNL     1      -8.094  -6.789  -7.453  0.00  0.00    +0.020 A 
ATOM     17  C   UNL     1      -7.606  -6.591  -6.178  0.00  0.00    +0.010 A 
ATOM     18 CL   UNL     1      -9.151  -8.282  -9.448  0.00  0.00    -0.084 Cl
ENDBRANCH  10  12
BRANCH   2  19
ATOM     19  O   UNL     1      -5.568  -6.737   2.182  0.00  0.00    -0.506 OA
ATOM     20  H   UNL     1      -5.753  -5.869   2.564  0.00  0.00    +0.292 HD
ENDBRANCH   2  19
BRANCH   1  21
ATOM     21  C   UNL     1      -4.029  -5.999  -0.061  0.00  0.00    -0.036 C 
BRANCH  21  26
ATOM     22  C   UNL     1      -2.881  -2.427   0.017  0.00  0.00    +0.081 C 
ATOM     23  C   UNL     1      -3.623  -1.974   1.277  0.00  0.00    +0.011 C 
ATOM     24  C   UNL     1      -4.999  -2.646   1.317  0.00  0.00    -0.018 C 
ATOM     25  C   UNL     1      -4.820  -4.164   1.263  0.00  0.00    -0.078 C 
ATOM     26  N   UNL     1      -4.128  -4.536   0.023  0.00  0.00    +0.383 N 
ATOM     27  C   UNL     1      -2.781  -3.954   0.010  0.00  0.00    -0.064 C 
ATOM     28  H   UNL     1      -4.650  -4.190  -0.768  0.00  0.00    -0.081 HD
BRANCH  22  29
ATOM     29  C   UNL     1      -1.496  -1.832   0.006  0.00  0.00    +0.308 C 
ATOM     30  O   UNL     1      -0.528  -2.555  -0.007  0.00  0.00    -0.251 OA
BRANCH  29  31
ATOM     31  O   UNL     1      -1.339  -0.499   0.012  0.00  0.00    -0.465 OA
BRANCH  31  33
ATOM     32  C   UNL     1      -0.019   1.526   0.010  0.00  0.00    +0.048 C 
ATOM     33  C   UNL     1       0.002  -0.004   0.002  0.00  0.00    +0.229 C 
ENDBRANCH  31  33
ENDBRANCH  29  31
ENDBRANCH  22  29
ENDBRANCH  21  26
ENDBRANCH   1  21
TORSDOF 7
