REMARK  Name = ZINC51044246
REMARK  6 active torsions:
REMARK  status: ('A' for Active; 'I' for Inactive)
REMARK    1  A    between atoms: C_1  and  C_2
REMARK    2  A    between atoms: C_2  and  C_3
REMARK    3  A    between atoms: C_12  and  C_14
REMARK    4  A    between atoms: C_14  and  N_15
REMARK    5  A    between atoms: C_19  and  C_21
REMARK    6  A    between atoms: N_23  and  C_24
REMARK                            x       y       z     vdW  Elec       q    Type
REMARK                         _______ _______ _______ _____ _____    ______ ____
ROOT
ATOM      1  C   UNL     1       0.718  -0.497  -1.257  0.00  0.00    -0.006 C 
ATOM      2  C   UNL     1       0.646  -2.026  -1.323  0.00  0.00    +0.010 C 
ATOM      3  C   UNL     1       1.137  -2.518  -2.686  0.00  0.00    +0.056 C 
ATOM      4  C   UNL     1       2.507  -1.912  -2.959  0.00  0.00    +0.054 A 
ATOM      5  C   UNL     1       2.929  -0.821  -2.270  0.00  0.00    +0.015 A 
ATOM      6  S   UNL     1       4.538  -0.534  -2.950  0.00  0.00    -0.057 S 
ATOM      7  C   UNL     1       4.544  -1.813  -4.047  0.00  0.00    +0.165 A 
ATOM      8  N   UNL     1       3.372  -2.377  -3.855  0.00  0.00    -0.229 NA
ATOM      9  N   UNL     1       5.545  -2.182  -4.939  0.00  0.00    -0.266 N 
ATOM     10  C   UNL     1       5.368  -3.246  -5.747  0.00  0.00    +0.202 C 
ATOM     11  O   UNL     1       4.337  -3.881  -5.696  0.00  0.00    -0.277 OA
ATOM     12  C   UNL     1       2.195  -0.072  -1.210  0.00  0.00    +0.048 C 
ATOM     13  H   UNL     1       6.370  -1.673  -4.979  0.00  0.00    +0.157 HD
ENDROOT
BRANCH   1  15
ATOM     14  C   UNL     1      -0.019   1.526   0.010  0.00  0.00    +0.004 C 
ATOM     15  C   UNL     1       0.002  -0.004   0.002  0.00  0.00    +0.000 C 
ENDBRANCH   1  15
BRANCH  10  16
ATOM     16  C   UNL     1       6.453  -3.646  -6.714  0.00  0.00    +0.019 C 
BRANCH  16  17
ATOM     17  N   UNL     1       6.021  -4.826  -7.474  0.00  0.00    +0.386 N 
ATOM     18  C   UNL     1       5.864  -5.964  -6.560  0.00  0.00    -0.078 C 
ATOM     19  C   UNL     1       5.336  -7.175  -7.333  0.00  0.00    -0.018 C 
ATOM     20  C   UNL     1       6.329  -7.540  -8.440  0.00  0.00    +0.009 C 
ATOM     21  C   UNL     1       6.542  -6.322  -9.344  0.00  0.00    +0.058 C 
ATOM     22  C   UNL     1       7.025  -5.143  -8.496  0.00  0.00    -0.065 C 
ATOM     23  H   UNL     1       5.137  -4.632  -7.921  0.00  0.00    -0.081 HD
BRANCH  21  24
ATOM     24  C   UNL     1       7.576  -6.646 -10.391  0.00  0.00    +0.215 C 
ATOM     25  O   UNL     1       8.597  -5.995 -10.456  0.00  0.00    -0.276 OA
ATOM     26  N   UNL     1       7.365  -7.659 -11.255  0.00  0.00    -0.312 N 
ATOM     27  H   UNL     1       6.548  -8.179 -11.203  0.00  0.00    +0.149 HD
BRANCH  26  28
ATOM     28  C   UNL     1       8.371  -7.974 -12.273  0.00  0.00    +0.073 C 
ATOM     29  C   UNL     1       8.704  -9.449 -12.503  0.00  0.00    +0.024 C 
ATOM     30  C   UNL     1       7.892  -8.678 -13.544  0.00  0.00    +0.024 C 
ENDBRANCH  26  28
ENDBRANCH  21  24
ENDBRANCH  16  17
ENDBRANCH  10  16
TORSDOF 5
