REMARK  Name = ZINC00639213
REMARK  8 active torsions:
REMARK  status: ('A' for Active; 'I' for Inactive)
REMARK    1  A    between atoms: C_1  and  C_2
REMARK    2  A    between atoms: C_5  and  C_8
REMARK    3  A    between atoms: C_8  and  O_9
REMARK    4  A    between atoms: O_9  and  C_10
REMARK    5  A    between atoms: C_15  and  C_16
REMARK    6  A    between atoms: C_21  and  C_25
REMARK    7  A    between atoms: C_27  and  N_31
REMARK    8  A    between atoms: C_28  and  C_29
REMARK                            x       y       z     vdW  Elec       q    Type
REMARK                         _______ _______ _______ _____ _____    ______ ____
ROOT
ATOM      1  C   UNL     1       2.446   4.590   0.001  0.00  0.00    +0.109 C 
ATOM      2  C   UNL     1       3.218   4.253  -1.244  0.00  0.00    +0.092 A 
ATOM      3  C   UNL     1       4.307   3.409  -1.191  0.00  0.00    +0.144 A 
ATOM      4  C   UNL     1       4.994   3.125  -2.394  0.00  0.00    +0.088 A 
ATOM      5  C   UNL     1       4.573   3.682  -3.544  0.00  0.00    +0.110 A 
ATOM      6  O   UNL     1       3.519   4.501  -3.597  0.00  0.00    -0.427 OA
ATOM      7  C   UNL     1       2.840   4.793  -2.478  0.00  0.00    +0.345 A 
ATOM      8  O   UNL     1       1.879   5.542  -2.538  0.00  0.00    -0.245 OA
ATOM      9  C   UNL     1       5.316   3.370  -4.817  0.00  0.00    +0.086 C 
ATOM     10  O   UNL     1       4.714   2.863  -0.028  0.00  0.00    -0.441 OA
ATOM     11  C   UNL     1       4.318   3.401   1.139  0.00  0.00    +0.199 C 
ATOM     12  C   UNL     1       3.250   4.229   1.220  0.00  0.00    +0.098 C 
ENDROOT
BRANCH   1  18
ATOM     13  C   UNL     1      -0.059   4.498   0.025  0.00  0.00    +0.125 A 
ATOM     14  C   UNL     1      -1.250   3.787   0.033  0.00  0.00    +0.047 A 
ATOM     15  C   UNL     1      -1.230   2.406   0.021  0.00  0.00    +0.023 A 
ATOM     16  C   UNL     1      -0.021   1.732   0.012  0.00  0.00    +0.041 A 
ATOM     17  C   UNL     1       1.168   2.439   0.004  0.00  0.00    +0.028 A 
ATOM     18  C   UNL     1       1.151   3.820   0.011  0.00  0.00    +0.009 A 
ATOM     19 CL   UNL     1       0.002  -0.004   0.002  0.00  0.00    -0.084 Cl
BRANCH  13  20
ATOM     20  O   UNL     1      -0.077   5.857   0.032  0.00  0.00    -0.487 OA
BRANCH  20  21
ATOM     21  C   UNL     1      -1.359   6.489   0.047  0.00  0.00    +0.264 C 
BRANCH  21  26
ATOM     22  C   UNL     1      -0.681  12.227   0.065  0.00  0.00    +0.044 C 
ATOM     23  C   UNL     1      -0.858  10.731   0.060  0.00  0.00    -0.050 A 
ATOM     24  C   UNL     1      -0.950  10.050  -1.139  0.00  0.00    +0.004 A 
ATOM     25  C   UNL     1      -1.113   8.677  -1.143  0.00  0.00    +0.007 A 
ATOM     26  C   UNL     1      -1.182   7.985   0.052  0.00  0.00    -0.010 A 
ATOM     27  C   UNL     1      -1.095   8.667   1.251  0.00  0.00    +0.007 A 
ATOM     28  C   UNL     1      -0.928  10.039   1.255  0.00  0.00    +0.004 A 
ENDBRANCH  21  26
ENDBRANCH  20  21
ENDBRANCH  13  20
ENDBRANCH   1  18
BRANCH  11  29
ATOM     29  N   UNL     1       5.017   3.103   2.282  0.00  0.00    -0.328 N 
ATOM     30  H   UNL     1       4.744   3.483   3.131  0.00  0.00    +0.145 HD
ATOM     31  H   UNL     1       5.785   2.511   2.240  0.00  0.00    +0.145 HD
ENDBRANCH  11  29
BRANCH  12  32
ATOM     32  C   UNL     1       2.878   4.772   2.492  0.00  0.00    +0.101 C 
ATOM     33  N   UNL     1       2.583   5.203   3.501  0.00  0.00    -0.191 NA
ENDBRANCH  12  32
TORSDOF 6
