REMARK  Name = ZINC65383628
REMARK  2 active torsions:
REMARK  status: ('A' for Active; 'I' for Inactive)
REMARK    1  A    between atoms: C_6  and  C_7
REMARK    2  A    between atoms: C_10  and  C_13
REMARK                            x       y       z     vdW  Elec       q    Type
REMARK                         _______ _______ _______ _____ _____    ______ ____
ROOT
ATOM      1  C   UNL     1      -4.799  -2.968   0.034  0.00  0.00    +0.250 C 
ATOM      2  O   UNL     1      -3.768  -2.334  -0.080  0.00  0.00    -0.270 OA
ATOM      3  N   UNL     1      -4.756  -4.312   0.134  0.00  0.00    -0.289 N 
ATOM      4  C   UNL     1      -3.560  -5.164   0.248  0.00  0.00    +0.085 C 
ATOM      5  C   UNL     1      -3.881  -6.421  -0.590  0.00  0.00    +0.025 C 
ATOM      6  C   UNL     1      -5.421  -6.477  -0.650  0.00  0.00    +0.026 C 
ATOM      7  C   UNL     1      -5.897  -5.246   0.158  0.00  0.00    +0.094 C 
ATOM      8  C   UNL     1      -6.163  -5.674   1.601  0.00  0.00    +0.126 C 
ATOM      9  N   UNL     1      -5.442  -6.912   1.896  0.00  0.00    -0.313 N 
ATOM     10  C   UNL     1      -4.085  -6.888   1.948  0.00  0.00    +0.215 C 
ATOM     11  O   UNL     1      -3.460  -7.899   2.190  0.00  0.00    -0.276 OA
ATOM     12  C   UNL     1      -3.369  -5.572   1.709  0.00  0.00    +0.118 C 
ATOM     13  H   UNL     1      -5.925  -7.738   2.052  0.00  0.00    +0.149 HD
ENDROOT
BRANCH   1  17
ATOM     14  C   UNL     1      -8.457  -0.992   0.119  0.00  0.00    +0.160 A 
ATOM     15  N   UNL     1      -7.423  -0.406  -0.469  0.00  0.00    -0.235 NA
ATOM     16  C   UNL     1      -6.245  -1.000  -0.517  0.00  0.00    +0.127 A 
ATOM     17  C   UNL     1      -6.098  -2.266   0.065  0.00  0.00    +0.073 A 
ATOM     18  C   UNL     1      -7.216  -2.849   0.675  0.00  0.00    +0.127 A 
ATOM     19  N   UNL     1      -8.358  -2.188   0.685  0.00  0.00    -0.235 NA
BRANCH  14  25
ATOM     20  C   UNL     1      -9.911   0.973  -0.436  0.00  0.00    +0.031 A 
ATOM     21  C   UNL     1     -11.144   1.593  -0.386  0.00  0.00    +0.111 A 
ATOM     22  N   UNL     1     -12.170   1.012   0.203  0.00  0.00    -0.263 NA
ATOM     23  C   UNL     1     -12.072  -0.176   0.767  0.00  0.00    +0.111 A 
ATOM     24  C   UNL     1     -10.877  -0.866   0.762  0.00  0.00    +0.031 A 
ATOM     25  C   UNL     1      -9.762  -0.288   0.149  0.00  0.00    +0.022 A 
ENDBRANCH  14  25
ENDBRANCH   1  17
TORSDOF 2
