REMARK  Name = ZINC15139289
REMARK  6 active torsions:
REMARK  status: ('A' for Active; 'I' for Inactive)
REMARK    1  A    between atoms: C_3  and  N_21
REMARK    2  A    between atoms: C_6  and  N_7
REMARK    3  A    between atoms: N_7  and  C_8
REMARK    4  A    between atoms: C_8  and  C_9
REMARK    5  A    between atoms: C_9  and  N_10
REMARK    6  A    between atoms: C_11  and  C_13
REMARK                            x       y       z     vdW  Elec       q    Type
REMARK                         _______ _______ _______ _____ _____    ______ ____
ROOT
ATOM      1  C   UNL     1       2.263  -4.298  -0.042  0.00  0.00    +0.123 C 
ENDROOT
BRANCH   1   2
ATOM      2  N   UNL     1       3.543  -5.009  -0.058  0.00  0.00    -0.310 N 
ATOM      3  C   UNL     1       3.565  -6.357  -0.065  0.00  0.00    +0.245 C 
ATOM      4  O   UNL     1       2.522  -6.982  -0.058  0.00  0.00    -0.270 OA
ATOM      5  H   UNL     1       4.375  -4.511  -0.063  0.00  0.00    +0.149 HD
BRANCH   3   6
ATOM      6  C   UNL     1       4.856  -7.074  -0.081  0.00  0.00    +0.051 A 
ATOM      7  C   UNL     1       6.056  -6.359  -0.089  0.00  0.00    +0.017 A 
ATOM      8  C   UNL     1       7.257  -7.034  -0.103  0.00  0.00    +0.039 A 
ATOM      9  C   UNL     1       7.277  -8.420  -0.110  0.00  0.00    +0.124 A 
ATOM     10  C   UNL     1       6.091  -9.136  -0.102  0.00  0.00    +0.054 A 
ATOM     11  C   UNL     1       4.881  -8.472  -0.082  0.00  0.00    +0.033 A 
ATOM     12 BR   UNL     1       3.263  -9.449  -0.064  0.00  0.00    -0.049 Br
ATOM     13  F   UNL     1       8.458  -9.076  -0.125  0.00  0.00    -0.205 F 
ENDBRANCH   3   6
ENDBRANCH   1   2
BRANCH   1  14
ATOM     14  C   UNL     1       2.518  -2.789  -0.036  0.00  0.00    +0.120 C 
BRANCH  14  15
ATOM     15  N   UNL     1       1.238  -2.077  -0.020  0.00  0.00    -0.342 N 
ATOM     16  H   UNL     1       0.406  -2.576  -0.015  0.00  0.00    +0.146 HD
BRANCH  15  22
ATOM     17  C   UNL     1       0.002  -0.004   0.002  0.00  0.00    +0.025 A 
ATOM     18  C   UNL     1      -0.017   1.377   0.010  0.00  0.00    +0.034 A 
ATOM     19  C   UNL     1       1.171   2.086   0.002  0.00  0.00    +0.126 A 
ATOM     20  C   UNL     1       2.380   1.416  -0.013  0.00  0.00    +0.034 A 
ATOM     21  C   UNL     1       2.406   0.035  -0.021  0.00  0.00    +0.025 A 
ATOM     22  C   UNL     1       1.215  -0.681  -0.013  0.00  0.00    +0.027 A 
BRANCH  19  23
ATOM     23  N   UNL     1       1.147   3.566   0.010  0.00  0.00    +0.056 N 
ATOM     24  O   UNL     1       0.082   4.158   0.024  0.00  0.00    -0.126 OA
ATOM     25  O   UNL     1       2.191   4.192   0.004  0.00  0.00    -0.126 OA
ENDBRANCH  19  23
ENDBRANCH  15  22
ENDBRANCH  14  15
ENDBRANCH   1  14
TORSDOF 6
