REMARK  Name = ZINC08662688
REMARK  8 active torsions:
REMARK  status: ('A' for Active; 'I' for Inactive)
REMARK    1  A    between atoms: C_1  and  C_2
REMARK    2  A    between atoms: C_2  and  C_3
REMARK    3  A    between atoms: C_2  and  C_4
REMARK    4  A    between atoms: C_4  and  C_5
REMARK    5  A    between atoms: N_13  and  C_16
REMARK    6  A    between atoms: C_16  and  C_17
REMARK    7  A    between atoms: N_30  and  C_33
REMARK    8  A    between atoms: C_33  and  C_34
REMARK                            x       y       z     vdW  Elec       q    Type
REMARK                         _______ _______ _______ _____ _____    ______ ____
ROOT
ATOM      1  C   UNL     1      -1.719   1.026  -1.546  0.00  0.00    -0.057 C 
ATOM      2  C   UNL     1      -0.303   1.474  -1.661  0.00  0.00    +0.073 C 
ATOM      3  C   UNL     1       0.276   0.995  -0.269  0.00  0.00    +0.088 C 
ATOM      4  C   UNL     1       1.664   1.458  -0.458  0.00  0.00    +0.225 C 
ATOM      5  O   UNL     1       2.408   1.916   0.382  0.00  0.00    -0.275 OA
ATOM      6  N   UNL     1       1.933   1.260  -1.788  0.00  0.00    -0.237 N 
ATOM      7  C   UNL     1       0.797   1.049  -2.529  0.00  0.00    +0.224 C 
ATOM      8  O   UNL     1       0.722   0.609  -3.655  0.00  0.00    -0.275 OA
ATOM      9  C   UNL     1      -0.796   1.576   0.596  0.00  0.00    +0.050 C 
ATOM     10  C   UNL     1      -0.818   1.019   1.991  0.00  0.00    -0.027 A 
ATOM     11  C   UNL     1      -0.898  -0.257   2.502  0.00  0.00    +0.004 A 
ATOM     12  C   UNL     1      -0.897  -0.456   3.871  0.00  0.00    +0.000 A 
ATOM     13  C   UNL     1      -0.815   0.629   4.724  0.00  0.00    +0.002 A 
ATOM     14  C   UNL     1      -0.733   1.909   4.217  0.00  0.00    +0.024 A 
ATOM     15  C   UNL     1      -0.733   2.119   2.840  0.00  0.00    +0.039 A 
ATOM     16  N   UNL     1      -0.660   3.299   2.097  0.00  0.00    -0.268 N 
ATOM     17  C   UNL     1      -0.691   3.066   0.770  0.00  0.00    +0.214 C 
ATOM     18  O   UNL     1      -0.643   3.897  -0.112  0.00  0.00    -0.276 OA
ATOM     19  N   UNL     1      -2.039   1.208  -0.102  0.00  0.00    +0.394 N 
ATOM     20  H   UNL     1      -2.411   0.333   0.285  0.00  0.00    -0.083 HD
ATOM     21  H   UNL     1      -2.735   1.954   0.009  0.00  0.00    -0.083 HD
ENDROOT
BRANCH   1  22
ATOM     22  C   UNL     1      -1.847  -0.445  -1.946  0.00  0.00    -0.012 C 
BRANCH  22  24
ATOM     23  C   UNL     1      -3.459  -2.249  -2.568  0.00  0.00    +0.007 C 
ATOM     24  C   UNL     1      -3.327  -0.824  -2.027  0.00  0.00    -0.019 C 
ATOM     25  C   UNL     1      -3.950  -0.748  -0.632  0.00  0.00    +0.007 C 
ENDBRANCH  22  24
ENDBRANCH   1  22
BRANCH   6  26
ATOM     26  C   UNL     1       3.284   1.271  -2.355  0.00  0.00    +0.151 C 
BRANCH  26  27
ATOM     27  C   UNL     1       3.855  -0.123  -2.319  0.00  0.00    -0.030 A 
ATOM     28  C   UNL     1       4.577  -0.546  -1.219  0.00  0.00    +0.005 A 
ATOM     29  C   UNL     1       5.097  -1.826  -1.184  0.00  0.00    +0.000 A 
ATOM     30  C   UNL     1       4.904  -2.680  -2.254  0.00  0.00    +0.000 A 
ATOM     31  C   UNL     1       4.187  -2.255  -3.357  0.00  0.00    +0.000 A 
ATOM     32  C   UNL     1       3.663  -0.977  -3.389  0.00  0.00    +0.005 A 
ENDBRANCH  26  27
ENDBRANCH   6  26
BRANCH  16  33
ATOM     33  C   UNL     1      -0.560   4.635   2.690  0.00  0.00    +0.140 C 
BRANCH  33  34
ATOM     34  C   UNL     1       0.891   4.994   2.878  0.00  0.00    -0.015 C 
ATOM     35  C   UNL     1       1.364   6.101   2.361  0.00  0.00    +0.005 C 
ENDBRANCH  33  34
ENDBRANCH  16  33
TORSDOF 6
