REMARK  Name = ZINC11843745
REMARK  5 active torsions:
REMARK  status: ('A' for Active; 'I' for Inactive)
REMARK    1  A    between atoms: C_1  and  O_2
REMARK    2  A    between atoms: O_2  and  C_3
REMARK    3  A    between atoms: C_6  and  C_9
REMARK    4  A    between atoms: C_9  and  N_10
REMARK    5  A    between atoms: C_15  and  C_23
REMARK                            x       y       z     vdW  Elec       q    Type
REMARK                         _______ _______ _______ _____ _____    ______ ____
ROOT
ATOM      1  N   UNL     1       0.390   3.688   1.657  0.00  0.00    -0.298 N 
ATOM      2  C   UNL     1       0.629   2.286   2.019  0.00  0.00    +0.110 C 
ATOM      3  C   UNL     1      -0.387   1.456   1.208  0.00  0.00    +0.003 C 
ATOM      4  C   UNL     1       0.215   1.105  -0.163  0.00  0.00    -0.007 C 
ATOM      5  C   UNL     1      -0.790   1.612  -1.209  0.00  0.00    -0.035 C 
ATOM      6  C   UNL     1      -1.474   2.512   0.891  0.00  0.00    +0.018 C 
ATOM      7  C   UNL     1      -0.802   3.840   1.049  0.00  0.00    +0.206 C 
ATOM      8  O   UNL     1      -1.264   4.900   0.683  0.00  0.00    -0.277 OA
ATOM      9  C   UNL     1      -2.691   2.331   1.798  0.00  0.00    -0.004 C 
ATOM     10  C   UNL     1      -3.831   1.887   0.848  0.00  0.00    -0.019 C 
ATOM     11  C   UNL     1      -3.065   1.335  -0.383  0.00  0.00    -0.077 C 
ATOM     12  N   UNL     1      -1.903   2.243  -0.466  0.00  0.00    +0.394 N 
ATOM     13  H   UNL     1      -2.175   3.117  -0.932  0.00  0.00    -0.079 HD
ENDROOT
BRANCH   5  14
ATOM     14  C   UNL     1      -1.306   0.454  -2.023  0.00  0.00    -0.042 A 
ATOM     15  C   UNL     1      -1.229  -0.832  -1.521  0.00  0.00    +0.006 A 
ATOM     16  C   UNL     1      -1.707  -1.895  -2.264  0.00  0.00    +0.038 A 
ATOM     17  C   UNL     1      -2.253  -1.673  -3.518  0.00  0.00    +0.125 A 
ATOM     18  C   UNL     1      -2.325  -0.386  -4.022  0.00  0.00    +0.058 A 
ATOM     19  C   UNL     1      -1.852   0.677  -3.275  0.00  0.00    +0.045 A 
ATOM     20 CL   UNL     1      -1.942   2.291  -3.907  0.00  0.00    -0.083 Cl
ATOM     21  F   UNL     1      -2.715  -2.712  -4.247  0.00  0.00    -0.205 F 
ENDBRANCH   5  14
BRANCH   1  22
ATOM     22  C   UNL     1       1.327   4.782   1.923  0.00  0.00    +0.142 C 
BRANCH  22  26
ATOM     23  C   UNL     1       0.492   6.470   5.759  0.00  0.00    +0.120 A 
ATOM     24  C   UNL     1       1.390   5.418   5.643  0.00  0.00    +0.046 A 
ATOM     25  C   UNL     1       1.659   4.875   4.402  0.00  0.00    +0.009 A 
ATOM     26  C   UNL     1       1.033   5.377   3.276  0.00  0.00    -0.030 A 
ATOM     27  C   UNL     1       0.142   6.428   3.388  0.00  0.00    +0.009 A 
ATOM     28  C   UNL     1      -0.134   6.972   4.628  0.00  0.00    +0.046 A 
BRANCH  23  30
ATOM     29  C   UNL     1      -0.708   8.086   7.023  0.00  0.00    +0.277 C 
ATOM     30  O   UNL     1       0.227   7.007   6.979  0.00  0.00    -0.495 OA
ENDBRANCH  23  30
ENDBRANCH  22  26
ENDBRANCH   1  22
TORSDOF 4
