REMARK  Name = ZINC09298086
REMARK  6 active torsions:
REMARK  status: ('A' for Active; 'I' for Inactive)
REMARK    1  A    between atoms: C_1  and  C_2
REMARK    2  A    between atoms: C_9  and  N_18
REMARK    3  A    between atoms: C_10  and  C_11
REMARK    4  A    between atoms: C_14  and  O_16
REMARK    5  A    between atoms: O_16  and  C_17
REMARK    6  A    between atoms: C_19  and  C_21
REMARK                            x       y       z     vdW  Elec       q    Type
REMARK                         _______ _______ _______ _____ _____    ______ ____
ROOT
ATOM      1  C   UNL     1      -8.102  -5.816   0.148  0.00  0.00    +0.008 C 
ATOM      2  C   UNL     1      -7.303  -4.542   0.430  0.00  0.00    -0.009 C 
ATOM      3  C   UNL     1      -7.871  -3.384  -0.397  0.00  0.00    +0.008 C 
ATOM      4  C   UNL     1      -7.246  -2.064   0.060  0.00  0.00    +0.037 C 
ATOM      5  C   UNL     1      -5.729  -2.209   0.046  0.00  0.00    -0.023 A 
ATOM      6  C   UNL     1      -5.147  -3.427   0.035  0.00  0.00    -0.004 A 
ATOM      7  S   UNL     1      -3.407  -3.097   0.020  0.00  0.00    -0.077 S 
ATOM      8  C   UNL     1      -3.450  -1.365   0.028  0.00  0.00    +0.085 A 
ATOM      9  C   UNL     1      -4.810  -1.083   0.049  0.00  0.00    +0.069 A 
ATOM     10  C   UNL     1      -5.835  -4.757   0.036  0.00  0.00    +0.046 C 
ENDROOT
BRANCH   9  11
ATOM     11  C   UNL     1      -5.300   0.297   0.068  0.00  0.00    +0.255 C 
ATOM     12  O   UNL     1      -5.517   0.881  -0.978  0.00  0.00    -0.270 OA
ATOM     13  N   UNL     1      -5.509   0.922   1.244  0.00  0.00    -0.217 N 
ATOM     14  C   UNL     1      -5.960   2.192   1.262  0.00  0.00    +0.407 C 
ATOM     15  O   UNL     1      -6.176   2.774   0.218  0.00  0.00    -0.226 OA
ATOM     16  H   UNL     1      -5.336   0.457   2.077  0.00  0.00    +0.161 HD
BRANCH  14  17
ATOM     17  O   UNL     1      -6.169   2.815   2.436  0.00  0.00    -0.453 OA
ATOM     18  C   UNL     1      -6.654   4.183   2.379  0.00  0.00    +0.282 C 
ENDBRANCH  14  17
ENDBRANCH   9  11
BRANCH   8  19
ATOM     19  N   UNL     1      -2.387  -0.478   0.023  0.00  0.00    -0.275 N 
ATOM     20  C   UNL     1      -1.122  -0.942   0.008  0.00  0.00    +0.255 C 
ATOM     21  O   UNL     1      -0.914  -2.142   0.000  0.00  0.00    -0.269 OA
ATOM     22  H   UNL     1      -2.553   0.478   0.029  0.00  0.00    +0.156 HD
BRANCH  20  23
ATOM     23  C   UNL     1       0.002  -0.004   0.002  0.00  0.00    +0.075 A 
ATOM     24  C   UNL     1       1.363  -0.271  -0.012  0.00  0.00    +0.022 A 
ATOM     25  C   UNL     1       2.211   0.808  -0.015  0.00  0.00    +0.024 A 
ATOM     26  C   UNL     1       1.688   2.063  -0.003  0.00  0.00    +0.056 A 
ATOM     27  S   UNL     1      -0.022   1.780   0.012  0.00  0.00    -0.077 S 
ATOM     28 BR   UNL     1       2.604   3.718  -0.004  0.00  0.00    -0.043 Br
ENDBRANCH  20  23
ENDBRANCH   8  19
TORSDOF 4
