REMARK  Name = ZINC09798014
REMARK  12 active torsions:
REMARK  status: ('A' for Active; 'I' for Inactive)
REMARK    1  A    between atoms: C_1  and  C_2
REMARK    2  A    between atoms: C_2  and  N_3
REMARK    3  A    between atoms: C_6  and  C_19
REMARK    4  A    between atoms: C_7  and  N_18
REMARK    5  A    between atoms: N_8  and  C_11
REMARK    6  A    between atoms: C_11  and  C_12
REMARK    7  A    between atoms: C_19  and  C_21
REMARK    8  A    between atoms: C_21  and  S_22
REMARK    9  A    between atoms: S_22  and  C_23
REMARK   10  A    between atoms: N_27  and  C_28
REMARK   11  A    between atoms: C_33  and  O_34
REMARK   12  A    between atoms: O_34  and  C_35
REMARK                            x       y       z     vdW  Elec       q    Type
REMARK                         _______ _______ _______ _____ _____    ______ ____
ROOT
ATOM      1  N   UNL     1      -0.618   3.056   1.449  0.00  0.00    -0.260 N 
ATOM      2  C   UNL     1       0.283   3.787   2.137  0.00  0.00    +0.269 A 
ATOM      3  O   UNL     1       1.193   3.246   2.738  0.00  0.00    -0.267 OA
ATOM      4  C   UNL     1       0.146   5.249   2.142  0.00  0.00    +0.121 A 
ATOM      5  C   UNL     1      -0.930   5.811   1.433  0.00  0.00    +0.116 A 
ATOM      6  N   UNL     1      -1.791   4.981   0.772  0.00  0.00    -0.277 N 
ATOM      7  C   UNL     1      -1.627   3.649   0.789  0.00  0.00    +0.334 A 
ATOM      8  O   UNL     1      -2.420   2.954   0.185  0.00  0.00    -0.246 OA
ENDROOT
BRANCH   5   9
ATOM      9  N   UNL     1      -1.112   7.159   1.406  0.00  0.00    -0.344 N 
ATOM     10  H   UNL     1      -0.787   7.707   2.138  0.00  0.00    +0.144 HD
ATOM     11  H   UNL     1      -1.566   7.572   0.655  0.00  0.00    +0.144 HD
ENDBRANCH   5   9
BRANCH   1  13
ATOM     12  C   UNL     1       0.366   1.174   0.236  0.00  0.00    +0.027 C 
ATOM     13  C   UNL     1      -0.499   1.596   1.426  0.00  0.00    +0.126 C 
ENDBRANCH   1  13
BRANCH   4  14
ATOM     14  C   UNL     1       1.062   6.064   2.841  0.00  0.00    +0.182 C 
ATOM     15  O   UNL     1       0.891   7.265   2.891  0.00  0.00    -0.291 OA
BRANCH  14  16
ATOM     16  C   UNL     1       2.253   5.443   3.525  0.00  0.00    +0.157 C 
BRANCH  16  17
ATOM     17  S   UNL     1       3.231   6.738   4.327  0.00  0.00    -0.076 S 
BRANCH  17  18
ATOM     18  C   UNL     1       4.519   5.760   5.026  0.00  0.00    +0.215 A 
ATOM     19  N   UNL     1       4.647   4.454   4.934  0.00  0.00    -0.101 NA
ATOM     20  N   UNL     1       5.698   4.060   5.558  0.00  0.00    -0.022 NA
ATOM     21  N   UNL     1       6.310   5.064   6.086  0.00  0.00    -0.038 NA
ATOM     22  N   UNL     1       5.569   6.212   5.756  0.00  0.00    -0.184 N 
BRANCH  22  23
ATOM     23  C   UNL     1       5.853   7.541   6.109  0.00  0.00    +0.111 A 
ATOM     24  C   UNL     1       4.857   8.348   6.638  0.00  0.00    +0.031 A 
ATOM     25  C   UNL     1       5.140   9.656   6.984  0.00  0.00    +0.002 A 
ATOM     26  C   UNL     1       6.414  10.162   6.805  0.00  0.00    +0.004 A 
ATOM     27  C   UNL     1       7.412   9.364   6.279  0.00  0.00    +0.048 A 
ATOM     28  C   UNL     1       7.138   8.050   5.933  0.00  0.00    +0.146 A 
BRANCH  28  29
ATOM     29  O   UNL     1       8.119   7.261   5.421  0.00  0.00    -0.493 OA
ATOM     30  C   UNL     1       9.412   7.851   5.269  0.00  0.00    +0.277 C 
ENDBRANCH  28  29
ENDBRANCH  22  23
ENDBRANCH  17  18
ENDBRANCH  16  17
ENDBRANCH  14  16
ENDBRANCH   4  14
BRANCH   6  31
ATOM     31  C   UNL     1      -2.915   5.557   0.030  0.00  0.00    +0.163 C 
BRANCH  31  32
ATOM     32  C   UNL     1      -4.112   5.669   0.939  0.00  0.00    -0.028 A 
ATOM     33  C   UNL     1      -5.013   4.624   1.027  0.00  0.00    +0.005 A 
ATOM     34  C   UNL     1      -6.108   4.724   1.864  0.00  0.00    +0.000 A 
ATOM     35  C   UNL     1      -6.309   5.874   2.605  0.00  0.00    +0.000 A 
ATOM     36  C   UNL     1      -5.411   6.921   2.513  0.00  0.00    +0.000 A 
ATOM     37  C   UNL     1      -4.313   6.819   1.679  0.00  0.00    +0.005 A 
ENDBRANCH  31  32
ENDBRANCH   6  31
TORSDOF 10
