REMARK  Name = ZINC35807100
REMARK  12 active torsions:
REMARK  status: ('A' for Active; 'I' for Inactive)
REMARK    1  A    between atoms: C_1  and  C_2
REMARK    2  A    between atoms: C_2  and  C_3
REMARK    3  A    between atoms: C_3  and  C_4
REMARK    4  A    between atoms: C_4  and  C_5
REMARK    5  A    between atoms: C_5  and  C_7
REMARK    6  A    between atoms: C_5  and  C_9
REMARK    7  A    between atoms: C_7  and  C_8
REMARK    8  A    between atoms: C_19  and  C_27
REMARK    9  A    between atoms: C_20  and  C_25
REMARK   10  A    between atoms: C_22  and  C_24
REMARK   11  A    between atoms: C_25  and  C_26
REMARK   12  A    between atoms: C_27  and  C_28
REMARK                            x       y       z     vdW  Elec       q    Type
REMARK                         _______ _______ _______ _____ _____    ______ ____
ROOT
ATOM      1  C   UNL     1       1.680  -5.785   2.482  0.00  0.00    +0.219 C 
ATOM      2  O   UNL     1       1.149  -6.309   1.526  0.00  0.00    -0.275 OA
ATOM      3  N   UNL     1       2.415  -6.526   3.334  0.00  0.00    -0.300 N 
ATOM      4  C   UNL     1       2.453  -7.973   3.120  0.00  0.00    +0.109 C 
ATOM      5  C   UNL     1       3.718  -8.301   2.354  0.00  0.00    +0.038 C 
ATOM      6  C   UNL     1       4.890  -8.497   3.320  0.00  0.00    +0.108 C 
ATOM      7  N   UNL     1       4.894  -7.511   4.411  0.00  0.00    -0.313 N 
ATOM      8  C   UNL     1       4.625  -6.098   4.208  0.00  0.00    +0.125 C 
ATOM      9  C   UNL     1       3.106  -5.848   4.375  0.00  0.00    +0.126 C 
ATOM     10  C   UNL     1       5.166  -7.951   5.696  0.00  0.00    +0.129 A 
ATOM     11  C   UNL     1       6.485  -8.141   6.116  0.00  0.00    +0.018 A 
ATOM     12  C   UNL     1       6.704  -8.582   7.406  0.00  0.00    +0.050 A 
ATOM     13  N   UNL     1       5.665  -8.809   8.198  0.00  0.00    -0.237 NA
ATOM     14  C   UNL     1       4.433  -8.620   7.771  0.00  0.00    +0.128 A 
ATOM     15  N   UNL     1       4.177  -8.195   6.550  0.00  0.00    -0.217 NA
ATOM     16  C   UNL     1       3.284  -8.892   8.708  0.00  0.00    +0.088 C 
ENDROOT
BRANCH  12  17
ATOM     17  C   UNL     1       8.108  -8.803   7.908  0.00  0.00    +0.052 C 
ATOM     18  C   UNL     1       8.493  -7.669   8.861  0.00  0.00    +0.010 C 
ENDBRANCH  12  17
BRANCH   1  19
ATOM     19  C   UNL     1       1.517  -4.305   2.717  0.00  0.00    +0.075 C 
BRANCH  19  20
ATOM     20  C   UNL     1       0.363  -4.068   3.692  0.00  0.00    +0.009 C 
ATOM     21  C   UNL     1       0.738  -4.616   5.071  0.00  0.00    +0.004 C 
ENDBRANCH  19  20
BRANCH  19  22
ATOM     22  C   UNL     1       1.215  -3.608   1.389  0.00  0.00    +0.013 C 
BRANCH  22  23
ATOM     23  C   UNL     1       1.173  -2.094   1.606  0.00  0.00    +0.000 C 
BRANCH  23  25
ATOM     24  C   UNL     1       0.830   0.117   0.496  0.00  0.00    +0.004 C 
ATOM     25  C   UNL     1       0.871  -1.397   0.279  0.00  0.00    -0.003 C 
ENDBRANCH  23  25
ENDBRANCH  22  23
ENDBRANCH  19  22
ENDBRANCH   1  19
BRANCH  11  26
ATOM     26  C   UNL     1       7.639  -7.872   5.185  0.00  0.00    +0.075 C 
BRANCH  26  27
ATOM     27  C   UNL     1       8.139  -6.467   5.397  0.00  0.00    -0.040 A 
ATOM     28  C   UNL     1       7.636  -5.431   4.632  0.00  0.00    +0.004 A 
ATOM     29  C   UNL     1       8.094  -4.141   4.826  0.00  0.00    +0.003 A 
ATOM     30  C   UNL     1       9.056  -3.886   5.785  0.00  0.00    +0.038 A 
ATOM     31  C   UNL     1       9.560  -4.922   6.552  0.00  0.00    +0.124 A 
ATOM     32  C   UNL     1       9.096  -6.213   6.361  0.00  0.00    +0.042 A 
ATOM     33  F   UNL     1      10.501  -4.674   7.490  0.00  0.00    -0.205 F 
ENDBRANCH  26  27
ENDBRANCH  11  26
TORSDOF 8
