REMARK  Name = ZINC63686403
REMARK  7 active torsions:
REMARK  status: ('A' for Active; 'I' for Inactive)
REMARK    1  A    between atoms: C_1  and  C_2
REMARK    2  A    between atoms: C_4  and  C_30
REMARK    3  A    between atoms: C_9  and  C_13
REMARK    4  A    between atoms: C_13  and  S_14
REMARK    5  A    between atoms: S_14  and  C_15
REMARK    6  A    between atoms: C_19  and  C_23
REMARK    7  A    between atoms: N_21  and  C_22
REMARK                            x       y       z     vdW  Elec       q    Type
REMARK                         _______ _______ _______ _____ _____    ______ ____
ROOT
ATOM      1  S   UNL     1       2.767  -4.056   4.650  0.00  0.00    -0.119 S 
ENDROOT
BRANCH   1   2
ATOM      2  C   UNL     1       2.695  -5.242   6.021  0.00  0.00    +0.200 C 
ATOM      3  N   UNL     1       1.351  -5.221   6.641  0.00  0.00    -0.229 NA
ATOM      4  N   UNL     1       1.085  -6.625   6.990  0.00  0.00    -0.233 NA
ATOM      5  C   UNL     1       1.676  -7.372   5.850  0.00  0.00    +0.171 C 
ATOM      6  N   UNL     1       2.905  -6.614   5.515  0.00  0.00    -0.260 NA
ATOM      7  C   UNL     1       4.088  -7.228   6.132  0.00  0.00    +0.109 C 
ATOM      8  H   UNL     1       1.340  -4.635   7.462  0.00  0.00    +0.143 HD
ATOM      9  H   UNL     1       1.536  -6.873   7.858  0.00  0.00    +0.143 HD
BRANCH   5  10
ATOM     10  C   UNL     1       2.019  -8.780   6.263  0.00  0.00    -0.012 A 
ATOM     11  C   UNL     1       2.571  -9.020   7.508  0.00  0.00    +0.007 A 
ATOM     12  C   UNL     1       2.885 -10.311   7.888  0.00  0.00    +0.003 A 
ATOM     13  C   UNL     1       2.650 -11.364   7.024  0.00  0.00    +0.038 A 
ATOM     14  C   UNL     1       2.097 -11.125   5.778  0.00  0.00    +0.124 A 
ATOM     15  C   UNL     1       1.776  -9.832   5.400  0.00  0.00    +0.045 A 
ATOM     16  F   UNL     1       1.866 -12.153   4.932  0.00  0.00    -0.205 F 
ENDBRANCH   5  10
ENDBRANCH   1   2
BRANCH   1  17
ATOM     17  C   UNL     1       1.441  -4.594   3.534  0.00  0.00    +0.125 C 
BRANCH  17  26
ATOM     18  C   UNL     1      -0.409   1.946   0.695  0.00  0.00    +0.044 C 
ATOM     19  C   UNL     1       0.181   0.571   0.517  0.00  0.00    -0.048 A 
ATOM     20  C   UNL     1       0.657   0.183  -0.728  0.00  0.00    +0.007 A 
ATOM     21  C   UNL     1       1.196  -1.061  -0.909  0.00  0.00    -0.037 A 
ATOM     22  C   UNL     1       1.267  -1.946   0.167  0.00  0.00    +0.048 A 
ATOM     23  C   UNL     1       0.787  -1.559   1.430  0.00  0.00    +0.051 A 
ATOM     24  C   UNL     1       0.247  -0.286   1.594  0.00  0.00    +0.029 A 
ATOM     25  N   UNL     1       0.863  -2.442   2.484  0.00  0.00    -0.357 N 
ATOM     26  C   UNL     1       1.391  -3.681   2.337  0.00  0.00    +0.030 A 
ATOM     27  C   UNL     1       1.873  -4.128   1.159  0.00  0.00    +0.073 A 
ATOM     28  C   UNL     1       1.839  -3.295   0.016  0.00  0.00    +0.190 A 
ATOM     29  O   UNL     1       2.270  -3.681  -1.058  0.00  0.00    -0.287 OA
ATOM     30  C   UNL     1       1.709  -1.473  -2.264  0.00  0.00    +0.044 C 
ATOM     31  H   UNL     1       0.530  -2.170   3.354  0.00  0.00    +0.166 HD
ENDBRANCH  17  26
ENDBRANCH   1  17
TORSDOF 4
