REMARK  Name = ZINC39631581
REMARK  15 active torsions:
REMARK  status: ('A' for Active; 'I' for Inactive)
REMARK    1  A    between atoms: C_1  and  C_2
REMARK    2  A    between atoms: C_2  and  C_3
REMARK    3  A    between atoms: C_3  and  C_4
REMARK    4  A    between atoms: C_3  and  C_6
REMARK    5  A    between atoms: C_4  and  C_5
REMARK    6  A    between atoms: C_10  and  C_19
REMARK    7  A    between atoms: N_21  and  C_22
REMARK    8  A    between atoms: C_22  and  C_24
REMARK    9  A    between atoms: C_22  and  C_25
REMARK   10  A    between atoms: C_25  and  C_26
REMARK   11  A    between atoms: C_26  and  C_27
REMARK   12  A    between atoms: C_27  and  C_28
REMARK   13  A    between atoms: C_28  and  C_29
REMARK   14  A    between atoms: C_28  and  C_30
REMARK   15  A    between atoms: C_28  and  O_31
REMARK                            x       y       z     vdW  Elec       q    Type
REMARK                         _______ _______ _______ _____ _____    ______ ____
ROOT
ATOM      1  C   UNL     1       0.160  -2.378  -1.264  0.00  0.00    +0.219 C 
ATOM      2  O   UNL     1       1.070  -3.169  -1.394  0.00  0.00    -0.275 OA
ATOM      3  N   UNL     1      -1.115  -2.786  -1.419  0.00  0.00    -0.300 N 
ATOM      4  C   UNL     1      -2.349  -1.973  -1.307  0.00  0.00    +0.121 C 
ATOM      5  C   UNL     1      -3.264  -2.494  -2.438  0.00  0.00    +0.100 C 
ATOM      6  C   UNL     1      -2.769  -3.924  -2.716  0.00  0.00    -0.004 C 
ATOM      7  C   UNL     1      -1.600  -4.148  -1.746  0.00  0.00    +0.115 C 
ATOM      8  C   UNL     1      -2.281  -4.043  -4.157  0.00  0.00    -0.010 C 
ATOM      9  C   UNL     1      -1.847  -5.487  -4.425  0.00  0.00    -0.082 C 
ATOM     10  N   UNL     1      -2.980  -6.391  -4.194  0.00  0.00    +0.379 N 
ATOM     11  C   UNL     1      -3.383  -6.339  -2.784  0.00  0.00    -0.082 C 
ATOM     12  C   UNL     1      -3.882  -4.931  -2.446  0.00  0.00    -0.010 C 
ATOM     13  H   UNL     1      -3.756  -6.111  -4.776  0.00  0.00    -0.086 HD
ATOM     14  H   UNL     1      -2.709  -7.334  -4.431  0.00  0.00    -0.086 HD
ENDROOT
BRANCH   5  15
ATOM     15  C   UNL     1      -3.117  -1.637  -3.669  0.00  0.00    +0.218 C 
ATOM     16  O   UNL     1      -2.042  -1.147  -3.942  0.00  0.00    -0.275 OA
ATOM     17  N   UNL     1      -4.181  -1.415  -4.466  0.00  0.00    -0.312 N 
ATOM     18  H   UNL     1      -5.041  -1.808  -4.248  0.00  0.00    +0.149 HD
BRANCH  17  19
ATOM     19  C   UNL     1      -4.038  -0.582  -5.663  0.00  0.00    +0.070 C 
ATOM     20  C   UNL     1      -4.202   0.890  -5.281  0.00  0.00    +0.028 C 
BRANCH  19  21
ATOM     21  C   UNL     1      -5.111  -0.967  -6.683  0.00  0.00    +0.022 C 
BRANCH  21  22
ATOM     22  C   UNL     1      -4.872  -2.402  -7.158  0.00  0.00    +0.005 C 
BRANCH  22  23
ATOM     23  C   UNL     1      -5.945  -2.787  -8.179  0.00  0.00    +0.034 C 
BRANCH  23  24
ATOM     24  C   UNL     1      -5.706  -4.221  -8.654  0.00  0.00    +0.061 C 
ATOM     25  C   UNL     1      -6.702  -4.564  -9.764  0.00  0.00    +0.041 C 
ATOM     26  C   UNL     1      -4.279  -4.349  -9.191  0.00  0.00    +0.041 C 
BRANCH  24  27
ATOM     27  O   UNL     1      -5.885  -5.122  -7.559  0.00  0.00    -0.389 OA
ATOM     28  H   UNL     1      -5.749  -6.051  -7.787  0.00  0.00    +0.210 HD
ENDBRANCH  24  27
ENDBRANCH  23  24
ENDBRANCH  22  23
ENDBRANCH  21  22
ENDBRANCH  19  21
ENDBRANCH  17  19
ENDBRANCH   5  15
BRANCH   1  29
ATOM     29  C   UNL     1       0.455  -0.938  -0.930  0.00  0.00    +0.075 C 
BRANCH  29  31
ATOM     30  C   UNL     1      -0.032   0.919   0.669  0.00  0.00    +0.004 C 
ATOM     31  C   UNL     1      -0.213  -0.576   0.398  0.00  0.00    +0.009 C 
ENDBRANCH  29  31
BRANCH  29  32
ATOM     32  C   UNL     1       1.967  -0.742  -0.810  0.00  0.00    +0.009 C 
ATOM     33  C   UNL     1       2.618  -0.943  -2.180  0.00  0.00    +0.004 C 
ENDBRANCH  29  32
ENDBRANCH   1  29
TORSDOF 10
