REMARK  Name = ZINC13029445
REMARK  11 active torsions:
REMARK  status: ('A' for Active; 'I' for Inactive)
REMARK    1  A    between atoms: C_1  and  C_2
REMARK    2  A    between atoms: C_7  and  C_8
REMARK    3  A    between atoms: C_8  and  C_10
REMARK    4  A    between atoms: C_8  and  N_18
REMARK    5  A    between atoms: N_12  and  C_13
REMARK    6  A    between atoms: N_18  and  C_19
REMARK    7  A    between atoms: C_19  and  C_20
REMARK    8  A    between atoms: C_25  and  O_26
REMARK    9  A    between atoms: O_26  and  C_27
REMARK   10  A    between atoms: C_28  and  C_30
REMARK   11  A    between atoms: C_30  and  N_31
REMARK                            x       y       z     vdW  Elec       q    Type
REMARK                         _______ _______ _______ _____ _____    ______ ____
ROOT
ATOM      1  N   UNL     1      -2.862   0.451  -1.096  0.00  0.00    -0.280 N 
ATOM      2  C   UNL     1      -3.723  -0.454  -1.601  0.00  0.00    +0.238 C 
ATOM      3  O   UNL     1      -4.413  -0.167  -2.556  0.00  0.00    -0.274 OA
ENDROOT
BRANCH   1   4
ATOM      4  C   UNL     1      -2.759   1.782  -1.700  0.00  0.00    +0.193 C 
BRANCH   4  11
ATOM      5  C   UNL     1      -3.930   2.900   0.693  0.00  0.00    +0.044 C 
ATOM      6  C   UNL     1      -4.686   2.950  -0.610  0.00  0.00    -0.045 A 
ATOM      7  C   UNL     1      -5.939   3.531  -0.660  0.00  0.00    +0.004 A 
ATOM      8  C   UNL     1      -6.632   3.578  -1.856  0.00  0.00    +0.000 A 
ATOM      9  C   UNL     1      -6.072   3.043  -3.001  0.00  0.00    +0.000 A 
ATOM     10  C   UNL     1      -4.817   2.466  -2.951  0.00  0.00    +0.006 A 
ATOM     11  C   UNL     1      -4.126   2.415  -1.755  0.00  0.00    -0.015 A 
ENDBRANCH   4  11
BRANCH   4  12
ATOM     12  C   UNL     1      -2.207   1.658  -3.097  0.00  0.00    +0.238 C 
ATOM     13  O   UNL     1      -2.081   0.564  -3.604  0.00  0.00    -0.273 OA
ATOM     14  N   UNL     1      -1.852   2.764  -3.781  0.00  0.00    -0.311 N 
ATOM     15  H   UNL     1      -1.877   3.631  -3.348  0.00  0.00    +0.149 HD
BRANCH  14  16
ATOM     16  C   UNL     1      -1.429   2.655  -5.180  0.00  0.00    +0.073 C 
ATOM     17  C   UNL     1       0.088   2.387  -5.253  0.00  0.00    +0.022 C 
ATOM     18  C   UNL     1       0.557   3.195  -6.489  0.00  0.00    +0.002 C 
ATOM     19  C   UNL     1      -0.300   4.481  -6.402  0.00  0.00    +0.002 C 
ATOM     20  C   UNL     1      -1.676   3.987  -5.910  0.00  0.00    +0.022 C 
ENDBRANCH  14  16
ENDBRANCH   4  12
ENDBRANCH   1   4
BRANCH   1  21
ATOM     21  C   UNL     1      -2.028   0.104   0.058  0.00  0.00    +0.147 C 
BRANCH  21  22
ATOM     22  C   UNL     1      -0.751  -0.537  -0.421  0.00  0.00    +0.012 A 
ATOM     23  C   UNL     1      -0.580  -1.903  -0.310  0.00  0.00    +0.009 A 
ATOM     24  C   UNL     1       0.592  -2.493  -0.749  0.00  0.00    +0.001 A 
ATOM     25  C   UNL     1       1.594  -1.716  -1.300  0.00  0.00    +0.004 A 
ATOM     26  C   UNL     1       1.426  -0.350  -1.418  0.00  0.00    +0.046 A 
ATOM     27  C   UNL     1       0.254   0.244  -0.973  0.00  0.00    +0.125 A 
BRANCH  27  28
ATOM     28  O   UNL     1       0.088   1.588  -1.083  0.00  0.00    -0.495 OA
ATOM     29  C   UNL     1       1.205   2.343  -1.557  0.00  0.00    +0.277 C 
ENDBRANCH  27  28
ENDBRANCH  21  22
ENDBRANCH   1  21
BRANCH   2  30
ATOM     30  C   UNL     1      -3.828  -1.823  -0.980  0.00  0.00    +0.241 C 
BRANCH  30  31
ATOM     31  N   UNL     1      -4.826  -2.613  -1.705  0.00  0.00    -0.235 N 
ATOM     32  C   UNL     1      -6.171  -2.692  -1.430  0.00  0.00    +0.090 A 
ATOM     33  C   UNL     1      -6.999  -2.107  -0.478  0.00  0.00    +0.029 A 
ATOM     34  C   UNL     1      -8.336  -2.392  -0.474  0.00  0.00    +0.002 A 
ATOM     35  C   UNL     1      -8.877  -3.256  -1.417  0.00  0.00    +0.002 A 
ATOM     36  C   UNL     1      -8.088  -3.838  -2.365  0.00  0.00    +0.032 A 
ATOM     37  C   UNL     1      -6.714  -3.563  -2.391  0.00  0.00    +0.113 A 
ATOM     38  N   UNL     1      -5.706  -3.976  -3.185  0.00  0.00    -0.129 NA
ATOM     39  N   UNL     1      -4.596  -3.442  -2.813  0.00  0.00    -0.064 NA
ENDBRANCH  30  31
ENDBRANCH   2  30
TORSDOF 9
