REMARK  Name = ZINC40985204
REMARK  14 active torsions:
REMARK  status: ('A' for Active; 'I' for Inactive)
REMARK    1  A    between atoms: C_1  and  C_2
REMARK    2  A    between atoms: C_3  and  C_17
REMARK    3  A    between atoms: C_5  and  C_7
REMARK    4  A    between atoms: C_10  and  O_13
REMARK    5  A    between atoms: O_13  and  C_14
REMARK    6  A    between atoms: C_14  and  C_15
REMARK    7  A    between atoms: C_14  and  C_16
REMARK    8  A    between atoms: C_17  and  N_18
REMARK    9  A    between atoms: C_21  and  C_24
REMARK   10  A    between atoms: N_26  and  C_27
REMARK   11  A    between atoms: C_27  and  C_28
REMARK   12  A    between atoms: C_31  and  N_34
REMARK   13  A    between atoms: N_34  and  C_35
REMARK   14  A    between atoms: N_34  and  C_36
REMARK                            x       y       z     vdW  Elec       q    Type
REMARK                         _______ _______ _______ _____ _____    ______ ____
ROOT
ATOM      1  N   UNL     1      -3.164  -0.362  -0.993  0.00  0.00    +0.383 N 
ATOM      2  C   UNL     1      -2.541   0.644  -1.862  0.00  0.00    -0.078 C 
ATOM      3  C   UNL     1      -3.187   0.596  -3.249  0.00  0.00    -0.006 C 
ATOM      4  C   UNL     1      -4.684   0.889  -3.119  0.00  0.00    +0.071 C 
ATOM      5  C   UNL     1      -5.310  -0.120  -2.152  0.00  0.00    -0.006 C 
ATOM      6  C   UNL     1      -4.585  -0.046  -0.806  0.00  0.00    -0.078 C 
ATOM      7  H   UNL     1      -3.076  -1.272  -1.419  0.00  0.00    -0.081 HD
ENDROOT
BRANCH   4   8
ATOM      8  C   UNL     1      -5.341   0.767  -4.469  0.00  0.00    +0.216 C 
ATOM      9  O   UNL     1      -4.678   0.474  -5.442  0.00  0.00    -0.276 OA
ATOM     10  N   UNL     1      -6.665   0.983  -4.597  0.00  0.00    -0.311 N 
ATOM     11  H   UNL     1      -7.195   1.218  -3.819  0.00  0.00    +0.149 HD
BRANCH  10  12
ATOM     12  C   UNL     1      -7.303   0.865  -5.910  0.00  0.00    +0.139 C 
BRANCH  12  13
ATOM     13  C   UNL     1      -8.777   1.153  -5.780  0.00  0.00    -0.030 A 
ATOM     14  C   UNL     1      -9.660   0.125  -5.508  0.00  0.00    +0.007 A 
ATOM     15  C   UNL     1     -11.011   0.386  -5.389  0.00  0.00    +0.023 A 
ATOM     16  C   UNL     1     -11.482   1.684  -5.542  0.00  0.00    +0.029 A 
ATOM     17  C   UNL     1     -10.592   2.715  -5.815  0.00  0.00    +0.023 A 
ATOM     18  C   UNL     1      -9.242   2.447  -5.928  0.00  0.00    +0.007 A 
BRANCH  16  19
ATOM     19  N   UNL     1     -12.848   1.952  -5.423  0.00  0.00    -0.336 N 
ATOM     20  C   UNL     1     -13.785   0.863  -5.135  0.00  0.00    +0.129 C 
ATOM     21  C   UNL     1     -13.342   3.321  -5.585  0.00  0.00    +0.129 C 
ENDBRANCH  16  19
ENDBRANCH  12  13
ENDBRANCH  10  12
ENDBRANCH   4   8
BRANCH   1  22
ATOM     22  C   UNL     1      -2.489  -0.366   0.311  0.00  0.00    -0.019 C 
BRANCH  22  25
ATOM     23  C   UNL     1      -0.039   1.490  -0.260  0.00  0.00    +0.088 C 
ATOM     24  C   UNL     1      -0.006  -0.009  -0.110  0.00  0.00    +0.124 A 
ATOM     25  C   UNL     1      -1.059  -0.809   0.136  0.00  0.00    +0.066 A 
ATOM     26  N   UNL     1      -0.611  -2.073   0.197  0.00  0.00    -0.216 NA
ATOM     27  C   UNL     1       0.686  -2.067  -0.004  0.00  0.00    +0.228 A 
ATOM     28  O   UNL     1       1.083  -0.798  -0.203  0.00  0.00    -0.440 OA
BRANCH  27  29
ATOM     29  C   UNL     1       1.563  -3.257  -0.016  0.00  0.00    +0.037 A 
ATOM     30  C   UNL     1       1.021  -4.527   0.193  0.00  0.00    +0.017 A 
ATOM     31  C   UNL     1       1.842  -5.634   0.181  0.00  0.00    +0.046 A 
ATOM     32  C   UNL     1       3.206  -5.488  -0.039  0.00  0.00    +0.121 A 
ATOM     33  C   UNL     1       3.748  -4.226  -0.248  0.00  0.00    +0.046 A 
ATOM     34  C   UNL     1       2.933  -3.115  -0.243  0.00  0.00    +0.017 A 
BRANCH  32  35
ATOM     35  O   UNL     1       4.011  -6.582  -0.050  0.00  0.00    -0.489 OA
BRANCH  35  36
ATOM     36  C   UNL     1       3.375  -7.857   0.052  0.00  0.00    +0.167 C 
ATOM     37  C   UNL     1       4.271  -8.926  -0.576  0.00  0.00    +0.051 C 
ATOM     38  C   UNL     1       3.137  -8.192   1.526  0.00  0.00    +0.051 C 
ENDBRANCH  35  36
ENDBRANCH  32  35
ENDBRANCH  27  29
ENDBRANCH  22  25
ENDBRANCH   1  22
TORSDOF 9
