REMARK  Name = ZINC65683887
REMARK  11 active torsions:
REMARK  status: ('A' for Active; 'I' for Inactive)
REMARK    1  A    between atoms: C_1  and  C_2
REMARK    2  A    between atoms: C_2  and  C_3
REMARK    3  A    between atoms: C_2  and  C_4
REMARK    4  A    between atoms: C_4  and  N_5
REMARK    5  A    between atoms: C_6  and  N_27
REMARK    6  A    between atoms: C_7  and  C_14
REMARK    7  A    between atoms: C_14  and  C_16
REMARK    8  A    between atoms: C_16  and  N_17
REMARK    9  A    between atoms: N_17  and  C_18
REMARK   10  A    between atoms: N_17  and  C_24
REMARK   11  A    between atoms: C_18  and  C_19
REMARK                            x       y       z     vdW  Elec       q    Type
REMARK                         _______ _______ _______ _____ _____    ______ ____
ROOT
ATOM      1  N   UNL     1      -1.872  -1.598  -0.382  0.00  0.00    -0.281 N 
ATOM      2  C   UNL     1      -1.851  -2.224  -1.596  0.00  0.00    +0.116 A 
ATOM      3  C   UNL     1      -1.760  -3.626  -1.636  0.00  0.00    +0.118 A 
ATOM      4  C   UNL     1      -1.692  -4.346  -0.358  0.00  0.00    +0.266 A 
ATOM      5  O   UNL     1      -1.612  -5.561  -0.333  0.00  0.00    -0.267 OA
ATOM      6  N   UNL     1      -1.719  -3.634   0.787  0.00  0.00    -0.274 N 
ATOM      7  H   UNL     1      -1.675  -4.096   1.639  0.00  0.00    +0.173 HD
ATOM      8  C   UNL     1      -1.802  -2.294   0.763  0.00  0.00    +0.331 A 
ATOM      9  O   UNL     1      -1.820  -1.689   1.817  0.00  0.00    -0.246 OA
ENDROOT
BRANCH   2  10
ATOM     10  N   UNL     1      -1.918  -1.502  -2.748  0.00  0.00    -0.344 N 
ATOM     11  H   UNL     1      -2.069  -0.545  -2.712  0.00  0.00    +0.144 HD
ATOM     12  H   UNL     1      -1.814  -1.945  -3.604  0.00  0.00    +0.144 HD
ENDBRANCH   2  10
BRANCH   3  13
ATOM     13  C   UNL     1      -1.736  -4.319  -2.865  0.00  0.00    +0.155 C 
ATOM     14  O   UNL     1      -1.671  -3.703  -3.909  0.00  0.00    -0.294 OA
BRANCH  13  15
ATOM     15  C   UNL     1      -1.789  -5.825  -2.882  0.00  0.00    +0.003 C 
BRANCH  15  16
ATOM     16  N   UNL     1      -1.750  -6.301  -4.271  0.00  0.00    +0.389 N 
ATOM     17  H   UNL     1      -2.494  -5.867  -4.796  0.00  0.00    -0.080 HD
BRANCH  16  18
ATOM     18  C   UNL     1      -0.457  -5.952  -4.872  0.00  0.00    -0.068 C 
ATOM     19  C   UNL     1      -0.467  -4.987  -6.060  0.00  0.00    -0.017 C 
ATOM     20  C   UNL     1      -0.170  -6.472  -6.282  0.00  0.00    -0.017 C 
ENDBRANCH  16  18
BRANCH  16  21
ATOM     21  C   UNL     1      -1.923  -7.760  -4.294  0.00  0.00    -0.041 C 
BRANCH  21  22
ATOM     22  C   UNL     1      -3.308  -8.110  -3.812  0.00  0.00    -0.057 A 
ATOM     23  C   UNL     1      -3.553  -8.305  -2.466  0.00  0.00    +0.009 A 
ATOM     24  C   UNL     1      -4.810  -8.618  -2.066  0.00  0.00    +0.045 A 
ATOM     25  S   UNL     1      -5.695  -8.646  -3.616  0.00  0.00    -0.105 S 
ATOM     26  C   UNL     1      -4.332  -8.232  -4.692  0.00  0.00    +0.047 A 
ENDBRANCH  21  22
ENDBRANCH  16  21
ENDBRANCH  15  16
ENDBRANCH  13  15
ENDBRANCH   3  13
BRANCH   1  27
ATOM     27  C   UNL     1      -1.966  -0.137  -0.330  0.00  0.00    +0.131 C 
BRANCH  27  29
ATOM     28  C   UNL     1      -0.659   1.991  -0.413  0.00  0.00    +0.009 C 
ATOM     29  C   UNL     1      -0.559   0.466  -0.342  0.00  0.00    +0.003 C 
ATOM     30  C   UNL     1       0.179   0.061   0.935  0.00  0.00    +0.009 C 
ENDBRANCH  27  29
ENDBRANCH   1  27
TORSDOF 9
