REMARK  Name = ZINC04866073
REMARK  8 active torsions:
REMARK  status: ('A' for Active; 'I' for Inactive)
REMARK    1  A    between atoms: C_1  and  C_2
REMARK    2  A    between atoms: C_2  and  C_3
REMARK    3  A    between atoms: C_2  and  C_4
REMARK    4  A    between atoms: C_6  and  C_27
REMARK    5  A    between atoms: C_8  and  C_21
REMARK    6  A    between atoms: C_11  and  C_12
REMARK    7  A    between atoms: C_11  and  O_20
REMARK    8  A    between atoms: C_13  and  C_14
REMARK                            x       y       z     vdW  Elec       q    Type
REMARK                         _______ _______ _______ _____ _____    ______ ____
ROOT
ATOM      1  C   UNL     1       6.064   1.034  -0.142  0.00  0.00    +0.026 C 
ATOM      2  C   UNL     1       7.457   0.407  -0.247  0.00  0.00    -0.033 C 
ATOM      3  C   UNL     1       6.697  -1.134  -1.956  0.00  0.00    -0.036 C 
ATOM      4  C   UNL     1       5.282  -0.553  -1.902  0.00  0.00    +0.037 C 
ATOM      5  C   UNL     1       5.009  -0.018  -0.494  0.00  0.00    +0.127 C 
ATOM      6  N   UNL     1       7.679  -0.085  -1.620  0.00  0.00    +0.388 N 
ATOM      7  H   UNL     1       8.627  -0.473  -1.691  0.00  0.00    -0.084 HD
ATOM      8  H   UNL     1       7.579   0.696  -2.280  0.00  0.00    -0.084 HD
ENDROOT
BRANCH   3   9
ATOM      9  C   UNL     1       6.978  -1.645  -3.345  0.00  0.00    -0.061 A 
ATOM     10  C   UNL     1       7.335  -0.762  -4.347  0.00  0.00    +0.002 A 
ATOM     11  C   UNL     1       7.597  -1.231  -5.621  0.00  0.00    +0.000 A 
ATOM     12  C   UNL     1       7.493  -2.581  -5.895  0.00  0.00    +0.000 A 
ATOM     13  C   UNL     1       7.131  -3.464  -4.894  0.00  0.00    +0.000 A 
ATOM     14  C   UNL     1       6.873  -2.995  -3.620  0.00  0.00    +0.002 A 
ENDBRANCH   3   9
BRANCH   2  15
ATOM     15  C   UNL     1       7.566  -0.738   0.726  0.00  0.00    -0.061 A 
ATOM     16  C   UNL     1       7.328  -0.526   2.072  0.00  0.00    +0.002 A 
ATOM     17  C   UNL     1       7.424  -1.578   2.964  0.00  0.00    +0.000 A 
ATOM     18  C   UNL     1       7.768  -2.838   2.512  0.00  0.00    +0.000 A 
ATOM     19  C   UNL     1       8.011  -3.048   1.168  0.00  0.00    +0.000 A 
ATOM     20  C   UNL     1       7.910  -1.998   0.275  0.00  0.00    +0.002 A 
ENDBRANCH   2  15
BRANCH   1  22
ATOM     21  C   UNL     1       7.013   2.406   1.718  0.00  0.00    +0.007 C 
ATOM     22  C   UNL     1       5.834   1.532   1.286  0.00  0.00    -0.012 C 
ATOM     23  C   UNL     1       4.544   2.353   1.338  0.00  0.00    +0.007 C 
ENDBRANCH   1  22
BRANCH   5  24
ATOM     24  C   UNL     1       3.671   0.595  -0.452  0.00  0.00    -0.062 C 
ATOM     25  C   UNL     1       2.604   1.083  -0.418  0.00  0.00    -0.063 C 
BRANCH  25  26
ATOM     26  C   UNL     1       1.302   1.679  -0.378  0.00  0.00    +0.025 A 
ATOM     27  C   UNL     1       0.172   0.913  -0.664  0.00  0.00    +0.017 A 
ATOM     28  C   UNL     1      -1.079   1.495  -0.627  0.00  0.00    +0.001 A 
ATOM     29  C   UNL     1      -1.214   2.831  -0.298  0.00  0.00    +0.000 A 
ATOM     30  C   UNL     1      -0.097   3.596  -0.013  0.00  0.00    +0.001 A 
ATOM     31  C   UNL     1       1.159   3.028  -0.051  0.00  0.00    +0.017 A 
ENDBRANCH  25  26
ENDBRANCH   5  24
BRANCH   5  32
ATOM     32  O   UNL     1       5.072  -1.091   0.447  0.00  0.00    -0.376 OA
ATOM     33  H   UNL     1       4.431  -1.796   0.284  0.00  0.00    +0.211 HD
ENDBRANCH   5  32
TORSDOF 6
