REMARK  Name = ZINC25702740
REMARK  8 active torsions:
REMARK  status: ('A' for Active; 'I' for Inactive)
REMARK    1  A    between atoms: C_1  and  C_2
REMARK    2  A    between atoms: C_3  and  C_23
REMARK    3  A    between atoms: C_4  and  C_13
REMARK    4  A    between atoms: C_6  and  C_10
REMARK    5  A    between atoms: C_7  and  C_9
REMARK    6  A    between atoms: C_15  and  O_22
REMARK    7  A    between atoms: C_16  and  O_20
REMARK    8  A    between atoms: O_20  and  C_21
REMARK                            x       y       z     vdW  Elec       q    Type
REMARK                         _______ _______ _______ _____ _____    ______ ____
ROOT
ATOM      1  C   UNL     1      -3.957   3.300   1.906  0.00  0.00    +0.061 C 
ATOM      2  C   UNL     1      -2.626   2.644   2.167  0.00  0.00    +0.019 C 
ATOM      3  C   UNL     1      -2.013   2.833   3.346  0.00  0.00    +0.058 C 
ATOM      4  C   UNL     1      -0.690   2.191   3.653  0.00  0.00    +0.098 C 
ATOM      5  C   UNL     1      -0.031   1.700   2.395  0.00  0.00    +0.043 C 
ATOM      6  C   UNL     1      -0.722   1.555   1.252  0.00  0.00    +0.014 C 
ATOM      7  N   UNL     1      -2.053   1.865   1.194  0.00  0.00    -0.320 N 
ATOM      8  C   UNL     1      -0.021   1.051   0.017  0.00  0.00    +0.061 C 
ATOM      9  H   UNL     1      -2.665   1.486   0.362  0.00  0.00    +0.152 HD
ENDROOT
BRANCH   4  10
ATOM     10  C   UNL     1      -0.907   1.028   4.586  0.00  0.00    -0.017 A 
ATOM     11  C   UNL     1      -1.696  -0.036   4.189  0.00  0.00    +0.054 A 
ATOM     12  C   UNL     1      -1.893  -1.109   5.043  0.00  0.00    +0.159 A 
ATOM     13  C   UNL     1      -1.304  -1.108   6.304  0.00  0.00    +0.162 A 
ATOM     14  C   UNL     1      -0.519  -0.037   6.699  0.00  0.00    +0.065 A 
ATOM     15  C   UNL     1      -0.322   1.030   5.839  0.00  0.00    +0.026 A 
ATOM     16 BR   UNL     1       0.749   2.491   6.378  0.00  0.00    -0.050 Br
BRANCH  13  17
ATOM     17  O   UNL     1      -1.498  -2.157   7.148  0.00  0.00    -0.491 OA
ATOM     18  C   UNL     1      -0.862  -2.088   8.426  0.00  0.00    +0.277 C 
ENDBRANCH  13  17
BRANCH  12  19
ATOM     19  O   UNL     1      -2.663  -2.159   4.652  0.00  0.00    -0.503 OA
ATOM     20  H   UNL     1      -2.819  -3.010   5.331  0.00  0.00    +0.292 HD
ENDBRANCH  12  19
ENDBRANCH   4  10
BRANCH   5  21
ATOM     21  C   UNL     1       1.349   1.382   2.415  0.00  0.00    +0.240 C 
ATOM     22  O   UNL     1       1.920   1.085   1.382  0.00  0.00    -0.271 OA
ATOM     23  N   UNL     1       2.030   1.408   3.578  0.00  0.00    -0.326 N 
ATOM     24  H   UNL     1       3.101   1.161   3.594  0.00  0.00    +0.145 HD
ATOM     25  H   UNL     1       1.513   1.677   4.512  0.00  0.00    +0.145 HD
ENDBRANCH   5  21
BRANCH   3  26
ATOM     26  C   UNL     1      -2.634   3.664   4.332  0.00  0.00    +0.097 C 
ATOM     27  N   UNL     1      -3.127   4.324   5.115  0.00  0.00    -0.191 NA
ENDBRANCH   3  26
TORSDOF 5
