REMARK  Name = ZINC29724366
REMARK  11 active torsions:
REMARK  status: ('A' for Active; 'I' for Inactive)
REMARK    1  A    between atoms: C_1  and  C_2
REMARK    2  A    between atoms: C_2  and  C_3
REMARK    3  A    between atoms: C_2  and  C_4
REMARK    4  A    between atoms: C_4  and  N_5
REMARK    5  A    between atoms: N_5  and  C_6
REMARK    6  A    between atoms: N_5  and  C_27
REMARK    7  A    between atoms: C_6  and  C_7
REMARK    8  A    between atoms: C_17  and  S_19
REMARK    9  A    between atoms: S_19  and  N_22
REMARK   10  A    between atoms: C_27  and  C_28
REMARK   11  A    between atoms: C_27  and  C_29
REMARK                            x       y       z     vdW  Elec       q    Type
REMARK                         _______ _______ _______ _____ _____    ______ ____
ROOT
ATOM      1  C   UNL     1      -2.434   4.851  -0.461  0.00  0.00    +0.203 C 
ATOM      2  O   UNL     1      -1.414   5.500  -0.554  0.00  0.00    -0.277 OA
ATOM      3  N   UNL     1      -2.410   3.522  -0.683  0.00  0.00    -0.273 N 
ATOM      4  C   UNL     1      -3.619   2.710  -0.488  0.00  0.00    +0.114 C 
ATOM      5  C   UNL     1      -3.214   1.441   0.272  0.00  0.00    +0.024 C 
ATOM      6  C   UNL     1      -2.243   0.636  -0.591  0.00  0.00    +0.038 C 
ATOM      7  C   UNL     1      -1.115   1.510  -1.073  0.00  0.00    -0.024 A 
ATOM      8  C   UNL     1      -1.231   2.891  -1.104  0.00  0.00    +0.039 A 
ATOM      9  C   UNL     1      -0.173   3.668  -1.559  0.00  0.00    +0.026 A 
ATOM     10  C   UNL     1       0.999   3.066  -1.974  0.00  0.00    +0.030 A 
ATOM     11  C   UNL     1       1.117   1.689  -1.935  0.00  0.00    +0.106 A 
ATOM     12  C   UNL     1       0.065   0.914  -1.484  0.00  0.00    +0.034 A 
ENDROOT
BRANCH  11  13
ATOM     13  S   UNL     1       2.612   0.920  -2.462  0.00  0.00    +0.061 S 
ATOM     14  O   UNL     1       3.639   1.893  -2.325  0.00  0.00    -0.153 OA
ATOM     15  O   UNL     1       2.668  -0.344  -1.817  0.00  0.00    -0.153 OA
BRANCH  13  16
ATOM     16  N   UNL     1       2.461   0.617  -4.084  0.00  0.00    -0.177 NA
ATOM     17  C   UNL     1       1.924  -0.615  -4.678  0.00  0.00    +0.109 C 
ATOM     18  C   UNL     1       2.000  -0.455  -6.212  0.00  0.00    +0.018 C 
ATOM     19  C   UNL     1       3.105   0.619  -6.392  0.00  0.00    +0.018 C 
ATOM     20  C   UNL     1       2.850   1.536  -5.169  0.00  0.00    +0.109 C 
ENDBRANCH  13  16
ENDBRANCH  11  13
BRANCH   1  21
ATOM     21  C   UNL     1      -3.728   5.531  -0.095  0.00  0.00    +0.019 C 
BRANCH  21  22
ATOM     22  N   UNL     1      -3.494   6.971   0.073  0.00  0.00    +0.387 N 
ATOM     23  H   UNL     1      -2.884   7.316  -0.774  0.00  0.00    -0.081 HD
BRANCH  22  24
ATOM     24  C   UNL     1      -2.747   7.243   1.308  0.00  0.00    -0.074 C 
ATOM     25  C   UNL     1      -1.861   8.474   1.108  0.00  0.00    -0.014 C 
ATOM     26  C   UNL     1      -3.728   7.501   2.453  0.00  0.00    -0.014 C 
ENDBRANCH  22  24
BRANCH  22  27
ATOM     27  C   UNL     1      -4.760   7.716   0.050  0.00  0.00    -0.075 C 
BRANCH  27  29
ATOM     28  C   UNL     1      -3.698   9.335  -1.529  0.00  0.00    +0.005 C 
ATOM     29  C   UNL     1      -4.477   9.195  -0.219  0.00  0.00    -0.034 C 
ATOM     30  C   UNL     1      -5.799   9.957  -0.329  0.00  0.00    +0.005 C 
ENDBRANCH  27  29
ENDBRANCH  22  27
ENDBRANCH  21  22
ENDBRANCH   1  21
TORSDOF 7
