REMARK  Name = ZINC10042528
REMARK  15 active torsions:
REMARK  status: ('A' for Active; 'I' for Inactive)
REMARK    1  A    between atoms: C_1  and  C_2
REMARK    2  A    between atoms: C_5  and  C_8
REMARK    3  A    between atoms: N_10  and  C_11
REMARK    4  A    between atoms: C_11  and  C_13
REMARK    5  A    between atoms: C_11  and  C_16
REMARK    6  A    between atoms: C_13  and  C_14
REMARK    7  A    between atoms: C_13  and  C_15
REMARK    8  A    between atoms: N_18  and  N_19
REMARK    9  A    between atoms: C_20  and  C_21
REMARK   10  A    between atoms: C_24  and  O_29
REMARK   11  A    between atoms: C_25  and  O_27
REMARK   12  A    between atoms: O_27  and  C_28
REMARK   13  A    between atoms: O_29  and  C_30
REMARK   14  A    between atoms: C_30  and  C_31
REMARK   15  A    between atoms: C_36  and  C_37
REMARK                            x       y       z     vdW  Elec       q    Type
REMARK                         _______ _______ _______ _____ _____    ______ ____
ROOT
ATOM      1  N   UNL     1       1.431   0.919  -3.779  0.00  0.00    -0.188 NA
ATOM      2  C   UNL     1       2.668   0.527  -3.776  0.00  0.00    +0.138 C 
ENDROOT
BRANCH   2   3
ATOM      3  C   UNL     1       3.645   1.177  -2.883  0.00  0.00    -0.002 A 
ATOM      4  C   UNL     1       3.215   1.797  -1.707  0.00  0.00    +0.013 A 
ATOM      5  C   UNL     1       4.131   2.400  -0.871  0.00  0.00    +0.050 A 
ATOM      6  C   UNL     1       5.479   2.402  -1.199  0.00  0.00    +0.162 A 
ATOM      7  C   UNL     1       5.914   1.791  -2.373  0.00  0.00    +0.162 A 
ATOM      8  C   UNL     1       5.003   1.180  -3.213  0.00  0.00    +0.059 A 
BRANCH   7   9
ATOM      9  O   UNL     1       7.236   1.796  -2.692  0.00  0.00    -0.491 OA
ATOM     10  C   UNL     1       7.612   1.151  -3.910  0.00  0.00    +0.277 C 
ENDBRANCH   7   9
BRANCH   6  11
ATOM     11  O   UNL     1       6.377   3.002  -0.373  0.00  0.00    -0.484 OA
BRANCH  11  12
ATOM     12  C   UNL     1       5.862   3.609   0.813  0.00  0.00    +0.266 C 
BRANCH  12  13
ATOM     13  C   UNL     1       6.995   4.219   1.597  0.00  0.00    +0.007 A 
ATOM     14  C   UNL     1       8.289   4.127   1.128  0.00  0.00    +0.008 A 
ATOM     15  C   UNL     1       9.330   4.689   1.845  0.00  0.00    +0.000 A 
ATOM     16  C   UNL     1       9.083   5.340   3.041  0.00  0.00    +0.001 A 
ATOM     17  C   UNL     1       7.795   5.436   3.524  0.00  0.00    +0.019 A 
ATOM     18  C   UNL     1       6.739   4.874   2.804  0.00  0.00    +0.058 A 
BRANCH  18  19
ATOM     19  C   UNL     1       5.399   4.969   3.300  0.00  0.00    +0.100 C 
ATOM     20  N   UNL     1       4.336   5.044   3.693  0.00  0.00    -0.191 NA
ENDBRANCH  18  19
ENDBRANCH  12  13
ENDBRANCH  11  12
ENDBRANCH   6  11
ENDBRANCH   2   3
BRANCH   1  23
ATOM     21  C   UNL     1      -0.165   2.646  -3.407  0.00  0.00    +0.253 C 
ATOM     22  O   UNL     1      -1.051   1.819  -3.449  0.00  0.00    -0.272 OA
ATOM     23  N   UNL     1       1.121   2.264  -3.535  0.00  0.00    -0.205 N 
ATOM     24  H   UNL     1       1.832   2.919  -3.459  0.00  0.00    +0.177 HD
BRANCH  21  25
ATOM     25  C   UNL     1      -0.502   4.102  -3.211  0.00  0.00    +0.163 C 
BRANCH  25  28
ATOM     26  C   UNL     1      -2.381   5.521  -3.834  0.00  0.00    +0.245 C 
ATOM     27  O   UNL     1      -1.601   6.442  -3.976  0.00  0.00    -0.270 OA
ATOM     28  N   UNL     1      -1.931   4.309  -3.454  0.00  0.00    -0.300 N 
ATOM     29  H   UNL     1      -2.554   3.574  -3.341  0.00  0.00    +0.150 HD
BRANCH  26  34
ATOM     30  C   UNL     1      -7.997   6.335  -4.792  0.00  0.00    +0.044 C 
ATOM     31  C   UNL     1      -6.527   6.122  -4.541  0.00  0.00    -0.050 A 
ATOM     32  C   UNL     1      -5.641   7.173  -4.702  0.00  0.00    +0.004 A 
ATOM     33  C   UNL     1      -4.294   6.984  -4.474  0.00  0.00    +0.013 A 
ATOM     34  C   UNL     1      -3.824   5.731  -4.080  0.00  0.00    +0.037 A 
ATOM     35  C   UNL     1      -4.722   4.673  -3.924  0.00  0.00    +0.013 A 
ATOM     36  C   UNL     1      -6.068   4.876  -4.151  0.00  0.00    +0.004 A 
ENDBRANCH  26  34
ENDBRANCH  25  28
BRANCH  25  37
ATOM     37  C   UNL     1      -0.163   4.515  -1.777  0.00  0.00    +0.012 C 
ATOM     38  C   UNL     1      -0.810   3.534  -0.797  0.00  0.00    +0.009 C 
ATOM     39  C   UNL     1       1.355   4.500  -1.587  0.00  0.00    +0.009 C 
ENDBRANCH  25  37
ENDBRANCH  21  25
ENDBRANCH   1  23
TORSDOF 11
