REMARK  Name = ZINC10042999
REMARK  9 active torsions:
REMARK  status: ('A' for Active; 'I' for Inactive)
REMARK    1  A    between atoms: C_1  and  C_2
REMARK    2  A    between atoms: C_3  and  C_9
REMARK    3  A    between atoms: C_4  and  C_8
REMARK    4  A    between atoms: N_5  and  C_7
REMARK    5  A    between atoms: C_9  and  C_10
REMARK    6  A    between atoms: N_15  and  S_18
REMARK    7  A    between atoms: S_18  and  C_21
REMARK    8  A    between atoms: C_22  and  C_27
REMARK    9  A    between atoms: C_25  and  C_26
REMARK                            x       y       z     vdW  Elec       q    Type
REMARK                         _______ _______ _______ _____ _____    ______ ____
ROOT
ATOM      1  C   UNL     1      -0.014   1.209   0.009  0.00  0.00    +0.220 C 
ATOM      2  O   UNL     1       0.002  -0.004   0.002  0.00  0.00    -0.275 OA
ATOM      3  N   UNL     1       1.143   1.898   0.001  0.00  0.00    -0.299 N 
ATOM      4  C   UNL     1       1.139   3.368   0.003  0.00  0.00    +0.125 C 
ATOM      5  C   UNL     1       1.978   3.855   1.197  0.00  0.00    +0.128 C 
ATOM      6  N   UNL     1       3.268   3.151   1.181  0.00  0.00    -0.173 NA
ATOM      7  C   UNL     1       3.272   1.681   1.173  0.00  0.00    +0.128 C 
ATOM      8  C   UNL     1       2.433   1.194  -0.015  0.00  0.00    +0.125 C 
ENDROOT
BRANCH   6   9
ATOM      9  S   UNL     1       4.690   3.998   1.171  0.00  0.00    +0.066 S 
ATOM     10  O   UNL     1       4.408   5.273   1.731  0.00  0.00    -0.153 OA
ATOM     11  O   UNL     1       5.682   3.133   1.707  0.00  0.00    -0.153 OA
BRANCH   9  12
ATOM     12  C   UNL     1       5.121   4.273  -0.516  0.00  0.00    +0.170 A 
ATOM     13  C   UNL     1       4.764   5.366  -1.338  0.00  0.00    +0.107 A 
ATOM     14  N   UNL     1       5.305   5.143  -2.501  0.00  0.00    -0.081 NA
ATOM     15  O   UNL     1       5.924   4.105  -2.512  0.00  0.00    -0.358 OA
ATOM     16  C   UNL     1       5.876   3.489  -1.322  0.00  0.00    +0.161 A 
ATOM     17  C   UNL     1       6.530   2.182  -0.955  0.00  0.00    +0.091 C 
ATOM     18  C   UNL     1       3.923   6.554  -0.947  0.00  0.00    +0.071 C 
ENDBRANCH   9  12
ENDBRANCH   6   9
BRANCH   1  19
ATOM     19  C   UNL     1      -1.330   1.944   0.019  0.00  0.00    +0.134 C 
BRANCH  19  22
ATOM     20  C   UNL     1      -2.750   0.739  -2.545  0.00  0.00    +0.068 C 
ATOM     21  C   UNL     1      -3.089   0.417  -1.112  0.00  0.00    +0.064 A 
ATOM     22  C   UNL     1      -2.462   0.950   0.019  0.00  0.00    +0.005 A 
ATOM     23  C   UNL     1      -3.054   0.418   1.113  0.00  0.00    +0.040 A 
ATOM     24  N   UNL     1      -4.019  -0.425   0.689  0.00  0.00    -0.271 N 
ATOM     25  N   UNL     1      -4.019  -0.412  -0.711  0.00  0.00    -0.176 NA
ATOM     26  C   UNL     1      -4.909  -1.215   1.544  0.00  0.00    +0.172 C 
ATOM     27  C   UNL     1      -2.701   0.715   2.548  0.00  0.00    +0.065 C 
ENDBRANCH  19  22
ENDBRANCH   1  19
TORSDOF 4
