REMARK  Name = ZINC44786297
REMARK  6 active torsions:
REMARK  status: ('A' for Active; 'I' for Inactive)
REMARK    1  A    between atoms: C_1  and  C_2
REMARK    2  A    between atoms: C_2  and  C_4
REMARK    3  A    between atoms: C_2  and  N_11
REMARK    4  A    between atoms: C_12  and  C_14
REMARK    5  A    between atoms: C_14  and  C_19
REMARK    6  A    between atoms: N_20  and  O_21
REMARK                            x       y       z     vdW  Elec       q    Type
REMARK                         _______ _______ _______ _____ _____    ______ ____
ROOT
ATOM      1  N   UNL     1       0.683  -0.487  -1.209  0.00  0.00    -0.308 N 
ATOM      2  C   UNL     1       2.027  -0.593  -1.217  0.00  0.00    +0.227 C 
ATOM      3  O   UNL     1       2.670  -0.216  -0.260  0.00  0.00    -0.275 OA
ATOM      4  H   UNL     1       0.174  -0.718  -2.002  0.00  0.00    +0.149 HD
ENDROOT
BRANCH   2   5
ATOM      5  C   UNL     1       2.730  -1.179  -2.414  0.00  0.00    +0.105 C 
ATOM      6  C   UNL     1       4.229  -1.370  -2.105  0.00  0.00    +0.024 C 
ATOM      7  C   UNL     1       4.340  -2.848  -1.655  0.00  0.00    +0.001 C 
ATOM      8  C   UNL     1       3.340  -3.566  -2.595  0.00  0.00    +0.001 C 
ATOM      9  C   UNL     1       2.164  -2.576  -2.725  0.00  0.00    +0.024 C 
BRANCH   5  10
ATOM     10  C   UNL     1       2.558  -0.275  -3.607  0.00  0.00    +0.147 C 
ATOM     11  N   UNL     1       1.897  -0.685  -4.638  0.00  0.00    -0.076 NA
ATOM     12  N   UNL     1       3.105   0.989  -3.598  0.00  0.00    -0.343 N 
ATOM     13  H   UNL     1       3.537   1.324  -2.796  0.00  0.00    +0.144 HD
ATOM     14  H   UNL     1       3.059   1.543  -4.392  0.00  0.00    +0.144 HD
BRANCH  11  15
ATOM     15  O   UNL     1       1.736   0.165  -5.760  0.00  0.00    -0.408 OA
ATOM     16  H   UNL     1       1.228  -0.229  -6.482  0.00  0.00    +0.328 HD
ENDBRANCH  11  15
ENDBRANCH   5  10
ENDBRANCH   2   5
BRANCH   1  18
ATOM     17  C   UNL     1      -0.034   1.508   0.011  0.00  0.00    +0.033 C 
ATOM     18  C   UNL     1      -0.009  -0.022  -0.004  0.00  0.00    +0.100 C 
BRANCH  18  19
ATOM     19  C   UNL     1      -1.421  -0.548  -0.001  0.00  0.00    -0.027 A 
ATOM     20  C   UNL     1      -2.146  -0.588  -1.177  0.00  0.00    +0.006 A 
ATOM     21  C   UNL     1      -3.441  -1.071  -1.175  0.00  0.00    +0.015 A 
ATOM     22  C   UNL     1      -4.011  -1.515   0.004  0.00  0.00    +0.018 A 
ATOM     23  C   UNL     1      -3.285  -1.474   1.181  0.00  0.00    +0.015 A 
ATOM     24  C   UNL     1      -1.988  -0.996   1.177  0.00  0.00    +0.006 A 
ATOM     25 BR   UNL     1      -5.783  -2.175   0.009  0.00  0.00    -0.050 Br
ENDBRANCH  18  19
ENDBRANCH   1  18
TORSDOF 5
