REMARK  Name = ZINC56709279
REMARK  9 active torsions:
REMARK  status: ('A' for Active; 'I' for Inactive)
REMARK    1  A    between atoms: C_1  and  C_2
REMARK    2  A    between atoms: C_4  and  O_23
REMARK    3  A    between atoms: C_7  and  N_8
REMARK    4  A    between atoms: N_11  and  C_12
REMARK    5  A    between atoms: N_11  and  C_13
REMARK    6  A    between atoms: C_13  and  C_15
REMARK    7  A    between atoms: C_13  and  C_16
REMARK    8  A    between atoms: O_23  and  C_24
REMARK    9  A    between atoms: C_24  and  C_25
REMARK                            x       y       z     vdW  Elec       q    Type
REMARK                         _______ _______ _______ _____ _____    ______ ____
ROOT
ATOM      1  N   UNL     1      -0.216  -0.069   2.461  0.00  0.00    -0.269 N 
ATOM      2  C   UNL     1      -0.139  -0.754   3.619  0.00  0.00    +0.307 C 
ATOM      3  O   UNL     1       0.069  -1.952   3.603  0.00  0.00    -0.252 OA
ATOM      4  N   UNL     1      -0.291  -0.112   4.794  0.00  0.00    -0.282 N 
ATOM      5  C   UNL     1      -0.542   1.332   4.812  0.00  0.00    +0.134 C 
ATOM      6  H   UNL     1      -0.313   0.896   2.474  0.00  0.00    +0.156 HD
ENDROOT
BRANCH   1  13
ATOM      7  C   UNL     1      -1.743   0.941   0.284  0.00  0.00    +0.046 C 
ATOM      8  C   UNL     1      -0.885  -0.290   0.150  0.00  0.00    -0.026 A 
ATOM      9  C   UNL     1      -0.820  -0.959  -1.057  0.00  0.00    +0.050 A 
ATOM     10  C   UNL     1      -0.030  -2.093  -1.180  0.00  0.00    +0.122 A 
ATOM     11  C   UNL     1       0.695  -2.556  -0.092  0.00  0.00    +0.047 A 
ATOM     12  C   UNL     1       0.630  -1.889   1.115  0.00  0.00    +0.027 A 
ATOM     13  C   UNL     1      -0.155  -0.750   1.238  0.00  0.00    +0.038 A 
BRANCH  10  14
ATOM     14  O   UNL     1       0.033  -2.751  -2.369  0.00  0.00    -0.483 OA
BRANCH  14  15
ATOM     15  C   UNL     1       0.866  -3.910  -2.424  0.00  0.00    +0.324 C 
BRANCH  15  16
ATOM     16  C   UNL     1       0.811  -4.502  -3.809  0.00  0.00    +0.248 C 
ATOM     17  O   UNL     1       0.127  -3.982  -4.664  0.00  0.00    -0.272 OA
ATOM     18  N   UNL     1       1.524  -5.610  -4.098  0.00  0.00    -0.327 N 
ATOM     19  H   UNL     1       2.071  -6.026  -3.414  0.00  0.00    +0.145 HD
ATOM     20  H   UNL     1       1.488  -5.990  -4.989  0.00  0.00    +0.145 HD
ENDBRANCH  15  16
ENDBRANCH  14  15
ENDBRANCH  10  14
ENDBRANCH   1  13
BRANCH   4  21
ATOM     21  C   UNL     1      -0.208  -0.857   6.052  0.00  0.00    +0.107 C 
ATOM     22  C   UNL     1       1.013  -0.384   6.845  0.00  0.00    +0.033 C 
BRANCH  21  23
ATOM     23  C   UNL     1      -1.456  -0.617   6.862  0.00  0.00    +0.008 A 
ATOM     24  C   UNL     1      -1.418   0.226   7.957  0.00  0.00    +0.008 A 
ATOM     25  C   UNL     1      -2.563   0.446   8.700  0.00  0.00    +0.000 A 
ATOM     26  C   UNL     1      -3.746  -0.177   8.349  0.00  0.00    +0.003 A 
ATOM     27  C   UNL     1      -3.786  -1.020   7.255  0.00  0.00    +0.039 A 
ATOM     28  C   UNL     1      -2.641  -1.237   6.507  0.00  0.00    +0.128 A 
ATOM     29  F   UNL     1      -2.680  -2.058   5.435  0.00  0.00    -0.205 F 
ENDBRANCH  21  23
ENDBRANCH   4  21
TORSDOF 6
