REMARK  Name = ZINC63514398
REMARK  11 active torsions:
REMARK  status: ('A' for Active; 'I' for Inactive)
REMARK    1  A    between atoms: C_1  and  C_2
REMARK    2  A    between atoms: C_5  and  N_8
REMARK    3  A    between atoms: C_11  and  C_32
REMARK    4  A    between atoms: C_12  and  C_16
REMARK    5  A    between atoms: C_13  and  C_15
REMARK    6  A    between atoms: C_16  and  C_17
REMARK    7  A    between atoms: C_17  and  C_18
REMARK    8  A    between atoms: N_20  and  C_21
REMARK    9  A    between atoms: C_21  and  C_22
REMARK   10  A    between atoms: C_22  and  C_23
REMARK   11  A    between atoms: C_33  and  C_35
REMARK                            x       y       z     vdW  Elec       q    Type
REMARK                         _______ _______ _______ _____ _____    ______ ____
ROOT
ATOM      1  N   UNL     1       0.057  -4.171  -0.021  0.00  0.00    -0.214 N 
ATOM      2  C   UNL     1       0.709  -4.962   0.890  0.00  0.00    +0.164 A 
ATOM      3  C   UNL     1       0.464  -6.297   0.509  0.00  0.00    +0.045 A 
ATOM      4  C   UNL     1       1.013  -7.337   1.269  0.00  0.00    -0.033 A 
ATOM      5  C   UNL     1       1.773  -7.008   2.361  0.00  0.00    -0.022 A 
ATOM      6  C   UNL     1       1.975  -5.673   2.680  0.00  0.00    +0.044 A 
ATOM      7  N   UNL     1       1.453  -4.705   1.958  0.00  0.00    -0.232 NA
ATOM      8  C   UNL     1       2.812  -5.323   3.883  0.00  0.00    +0.066 C 
ATOM      9  C   UNL     1       0.775  -8.777   0.896  0.00  0.00    +0.045 C 
ATOM     10  C   UNL     1      -0.373  -6.240  -0.684  0.00  0.00    +0.070 A 
ATOM     11  N   UNL     1      -0.591  -4.984  -0.955  0.00  0.00    -0.169 NA
ATOM     12  C   UNL     1      -0.897  -7.421  -1.460  0.00  0.00    +0.068 C 
ENDROOT
BRANCH   1  17
ATOM     13  C   UNL     1      -0.018   1.503   0.010  0.00  0.00    +0.044 C 
ATOM     14  C   UNL     1       0.002  -0.004   0.002  0.00  0.00    -0.050 A 
ATOM     15  C   UNL     1       0.006  -0.687  -1.200  0.00  0.00    +0.005 A 
ATOM     16  C   UNL     1       0.024  -2.068  -1.211  0.00  0.00    +0.028 A 
ATOM     17  C   UNL     1       0.039  -2.771  -0.013  0.00  0.00    +0.068 A 
ATOM     18  C   UNL     1       0.036  -2.081   1.192  0.00  0.00    +0.028 A 
ATOM     19  C   UNL     1       0.023  -0.700   1.197  0.00  0.00    +0.005 A 
ENDBRANCH   1  17
BRANCH   5  20
ATOM     20  C   UNL     1       2.386  -8.091   3.211  0.00  0.00    +0.046 C 
BRANCH  20  21
ATOM     21  C   UNL     1       3.775  -8.439   2.671  0.00  0.00    +0.100 C 
BRANCH  21  22
ATOM     22  C   UNL     1       4.387  -9.522   3.521  0.00  0.00    +0.213 C 
ATOM     23  O   UNL     1       3.774  -9.971   4.465  0.00  0.00    -0.276 OA
ATOM     24  N   UNL     1       5.617  -9.991   3.231  0.00  0.00    -0.315 N 
ATOM     25  H   UNL     1       6.108  -9.631   2.475  0.00  0.00    +0.149 HD
BRANCH  24  26
ATOM     26  C   UNL     1       6.213 -11.044   4.057  0.00  0.00    +0.108 C 
BRANCH  26  27
ATOM     27  C   UNL     1       7.602 -11.392   3.517  0.00  0.00    +0.052 C 
BRANCH  27  28
ATOM     28  C   UNL     1       8.214 -12.475   4.367  0.00  0.00    -0.040 C 
ATOM     29  C   UNL     1       8.191 -13.806   4.130  0.00  0.00    -0.001 A 
ATOM     30  C   UNL     1       7.609 -14.613   3.051  0.00  0.00    +0.010 A 
ATOM     31  C   UNL     1       7.752 -15.958   3.087  0.00  0.00    +0.001 A 
ATOM     32  C   UNL     1       8.440 -16.598   4.127  0.00  0.00    +0.002 A 
ATOM     33  C   UNL     1       9.002 -15.924   5.153  0.00  0.00    +0.026 A 
ATOM     34  C   UNL     1       8.913 -14.506   5.216  0.00  0.00    +0.043 A 
ATOM     35  N   UNL     1       9.365 -13.641   6.091  0.00  0.00    -0.380 N 
ATOM     36  C   UNL     1       8.986 -12.293   5.655  0.00  0.00    +0.144 C 
ATOM     37  H   UNL     1       9.870 -13.857   6.891  0.00  0.00    +0.160 HD
ENDBRANCH  27  28
ENDBRANCH  26  27
ENDBRANCH  24  26
ENDBRANCH  21  22
ENDBRANCH  20  21
ENDBRANCH   5  20
TORSDOF 7
