REMARK  Name = ZINC64568177
REMARK  4 active torsions:
REMARK  status: ('A' for Active; 'I' for Inactive)
REMARK    1  A    between atoms: C_4  and  O_7
REMARK    2  A    between atoms: O_7  and  C_8
REMARK    3  A    between atoms: C_8  and  C_9
REMARK    4  A    between atoms: C_24  and  C_26
REMARK                            x       y       z     vdW  Elec       q    Type
REMARK                         _______ _______ _______ _____ _____    ______ ____
ROOT
ATOM      1  C   UNL     1       5.566  -2.994   1.494  0.00  0.00    +0.254 C 
ATOM      2  O   UNL     1       6.519  -2.262   1.326  0.00  0.00    -0.272 OA
ATOM      3  N   UNL     1       5.488  -4.162   0.827  0.00  0.00    -0.289 N 
ATOM      4  C   UNL     1       4.398  -5.097   1.126  0.00  0.00    +0.113 C 
ATOM      5  C   UNL     1       3.599  -5.380  -0.159  0.00  0.00    +0.052 C 
ATOM      6  C   UNL     1       4.609  -5.636  -1.250  0.00  0.00    -0.035 C 
ATOM      7  C   UNL     1       4.735  -6.636  -2.113  0.00  0.00    -0.001 A 
ATOM      8  C   UNL     1       3.879  -7.799  -2.396  0.00  0.00    +0.010 A 
ATOM      9  C   UNL     1       4.328  -8.655  -3.352  0.00  0.00    +0.001 A 
ATOM     10  C   UNL     1       5.528  -8.473  -4.046  0.00  0.00    +0.002 A 
ATOM     11  C   UNL     1       6.372  -7.428  -3.856  0.00  0.00    +0.026 A 
ATOM     12  C   UNL     1       6.004  -6.455  -2.882  0.00  0.00    +0.043 A 
ATOM     13  N   UNL     1       6.603  -5.360  -2.518  0.00  0.00    -0.375 N 
ATOM     14  C   UNL     1       5.766  -4.683  -1.527  0.00  0.00    +0.131 C 
ATOM     15  C   UNL     1       6.493  -4.483  -0.199  0.00  0.00    +0.133 C 
ATOM     16  H   UNL     1       7.460  -5.045  -2.848  0.00  0.00    +0.160 HD
ENDROOT
BRANCH  15  17
ATOM     17  C   UNL     1       7.476  -3.348  -0.323  0.00  0.00    -0.025 A 
ATOM     18  C   UNL     1       7.118  -2.195  -0.997  0.00  0.00    +0.007 A 
ATOM     19  C   UNL     1       8.019  -1.153  -1.112  0.00  0.00    +0.020 A 
ATOM     20  C   UNL     1       9.279  -1.264  -0.552  0.00  0.00    +0.041 A 
ATOM     21  C   UNL     1       9.637  -2.418   0.122  0.00  0.00    +0.020 A 
ATOM     22  C   UNL     1       8.733  -3.457   0.241  0.00  0.00    +0.007 A 
ATOM     23 CL   UNL     1      10.412   0.044  -0.696  0.00  0.00    -0.084 Cl
ENDBRANCH  15  17
BRANCH   1  24
ATOM     24  C   UNL     1       4.471  -2.597   2.450  0.00  0.00    +0.324 C 
BRANCH  24  25
ATOM     25  O   UNL     1       4.780  -1.328   3.029  0.00  0.00    -0.483 OA
BRANCH  25  29
ATOM     26  C   UNL     1       2.069   0.209   5.732  0.00  0.00    +0.000 A 
ATOM     27  C   UNL     1       3.215   0.919   5.425  0.00  0.00    +0.004 A 
ATOM     28  C   UNL     1       4.125   0.406   4.520  0.00  0.00    +0.045 A 
ATOM     29  C   UNL     1       3.887  -0.822   3.920  0.00  0.00    +0.121 A 
ATOM     30  C   UNL     1       2.736  -1.532   4.229  0.00  0.00    +0.045 A 
ATOM     31  C   UNL     1       1.830  -1.015   5.134  0.00  0.00    +0.004 A 
ENDBRANCH  25  29
ENDBRANCH  24  25
ENDBRANCH   1  24
TORSDOF 4
