REMARK  Name = ZINC46778321
REMARK  7 active torsions:
REMARK  status: ('A' for Active; 'I' for Inactive)
REMARK    1  A    between atoms: C_1  and  C_2
REMARK    2  A    between atoms: C_5  and  C_8
REMARK    3  A    between atoms: C_10  and  C_13
REMARK    4  A    between atoms: C_13  and  C_15
REMARK    5  A    between atoms: C_13  and  N_16
REMARK    6  A    between atoms: N_19  and  C_22
REMARK    7  A    between atoms: C_22  and  C_23
REMARK                            x       y       z     vdW  Elec       q    Type
REMARK                         _______ _______ _______ _____ _____    ______ ____
ROOT
ATOM      1  C   UNL     1       0.102  -7.482   1.642  0.00  0.00    +0.143 C 
ATOM      2  C   UNL     1      -1.284  -8.131   1.666  0.00  0.00    +0.034 C 
ENDROOT
BRANCH   1   3
ATOM      3  N   UNL     1       1.093  -8.460   1.175  0.00  0.00    -0.295 NA
ATOM      4  C   UNL     1       2.423  -7.846   1.055  0.00  0.00    +0.066 C 
ATOM      5  C   UNL     1       3.412  -8.880   0.511  0.00  0.00    -0.063 C 
ATOM      6  N   UNL     1       3.466 -10.032   1.421  0.00  0.00    +0.383 N 
ATOM      7  C   UNL     1       2.136 -10.649   1.511  0.00  0.00    -0.063 C 
ATOM      8  C   UNL     1       1.137  -9.630   2.063  0.00  0.00    +0.066 C 
ATOM      9  H   UNL     1       3.756  -9.724   2.337  0.00  0.00    -0.082 HD
BRANCH   6  10
ATOM     10  C   UNL     1       4.428 -11.015   0.908  0.00  0.00    -0.047 C 
BRANCH  10  11
ATOM     11  C   UNL     1       4.578 -12.157   1.916  0.00  0.00    +0.102 C 
ATOM     12  C   UNL     1       5.582 -13.182   1.381  0.00  0.00    +0.030 C 
ATOM     13  C   UNL     1       5.771 -14.290   2.422  0.00  0.00    +0.005 C 
ATOM     14  C   UNL     1       6.228 -13.662   3.742  0.00  0.00    +0.028 C 
ATOM     15  C   UNL     1       5.200 -12.618   4.186  0.00  0.00    +0.160 C 
ATOM     16  O   UNL     1       5.048 -11.635   3.160  0.00  0.00    -0.378 OA
ENDBRANCH  10  11
ENDBRANCH   6  10
ENDBRANCH   1   3
BRANCH   1  19
ATOM     17  C   UNL     1       0.059  -4.256  -0.021  0.00  0.00    +0.202 A 
ATOM     18  N   UNL     1       0.070  -5.047   1.067  0.00  0.00    -0.190 NA
ATOM     19  C   UNL     1       0.086  -6.299   0.708  0.00  0.00    +0.245 A 
ATOM     20  O   UNL     1       0.086  -6.357  -0.630  0.00  0.00    -0.336 OA
ATOM     21  N   UNL     1       0.064  -5.015  -1.090  0.00  0.00    -0.056 NA
BRANCH  17  26
ATOM     22  C   UNL     1      -0.018   1.503   0.010  0.00  0.00    +0.044 C 
ATOM     23  C   UNL     1       0.002  -0.004   0.002  0.00  0.00    -0.050 A 
ATOM     24  C   UNL     1       0.006  -0.686  -1.201  0.00  0.00    +0.004 A 
ATOM     25  C   UNL     1       0.024  -2.067  -1.214  0.00  0.00    +0.012 A 
ATOM     26  C   UNL     1       0.040  -2.772  -0.013  0.00  0.00    +0.022 A 
ATOM     27  C   UNL     1       0.036  -2.080   1.196  0.00  0.00    +0.012 A 
ATOM     28  C   UNL     1       0.023  -0.700   1.198  0.00  0.00    +0.004 A 
ENDBRANCH  17  26
ENDBRANCH   1  19
TORSDOF 5
