REMARK  Name = ZINC03318440
REMARK  6 active torsions:
REMARK  status: ('A' for Active; 'I' for Inactive)
REMARK    1  A    between atoms: C_1  and  C_2
REMARK    2  A    between atoms: C_9  and  O_32
REMARK    3  A    between atoms: N_11  and  N_12
REMARK    4  A    between atoms: C_13  and  C_15
REMARK    5  A    between atoms: C_17  and  C_26
REMARK    6  A    between atoms: N_19  and  C_20
REMARK                            x       y       z     vdW  Elec       q    Type
REMARK                         _______ _______ _______ _____ _____    ______ ____
ROOT
ATOM      1  N   UNL     1      -0.480  -6.393   4.026  0.00  0.00    -0.201 N 
ATOM      2  C   UNL     1      -0.559  -5.357   4.884  0.00  0.00    +0.282 C 
ATOM      3  O   UNL     1      -0.940  -4.271   4.492  0.00  0.00    -0.267 OA
ATOM      4  H   UNL     1      -0.107  -7.239   4.320  0.00  0.00    +0.178 HD
ENDROOT
BRANCH   1  15
ATOM      5  C   UNL     1      -1.265 -10.447  -1.605  0.00  0.00    +0.046 C 
ATOM      6  C   UNL     1      -1.380  -9.012  -1.159  0.00  0.00    -0.024 A 
ATOM      7  C   UNL     1      -1.731  -8.035  -2.065  0.00  0.00    +0.005 A 
ATOM      8  C   UNL     1      -1.842  -6.711  -1.673  0.00  0.00    +0.001 A 
ATOM      9  C   UNL     1      -1.600  -6.352  -0.360  0.00  0.00    +0.012 A 
ATOM     10  C   UNL     1      -1.246  -7.323   0.564  0.00  0.00    +0.033 A 
ATOM     11  C   UNL     1      -1.136  -8.674   0.176  0.00  0.00    +0.080 A 
ATOM     12  N   UNL     1      -0.785  -9.422   1.255  0.00  0.00    -0.211 NA
ATOM     13  C   UNL     1      -0.651  -8.710   2.343  0.00  0.00    +0.241 C 
ATOM     14  C   UNL     1      -0.924  -7.299   2.010  0.00  0.00    +0.152 C 
ATOM     15  N   UNL     1      -0.899  -6.260   2.813  0.00  0.00    -0.174 NA
BRANCH  13  16
ATOM     16  O   UNL     1      -0.310  -9.185   3.565  0.00  0.00    -0.491 OA
ATOM     17  H   UNL     1      -0.236 -10.148   3.606  0.00  0.00    +0.294 HD
ENDBRANCH  13  16
ENDBRANCH   1  15
BRANCH   2  18
ATOM     18  C   UNL     1      -0.186  -5.540   6.293  0.00  0.00    +0.131 A 
ATOM     19  C   UNL     1       0.147  -6.730   6.915  0.00  0.00    +0.063 A 
ATOM     20  C   UNL     1       0.423  -6.387   8.251  0.00  0.00    +0.094 A 
ATOM     21  N   UNL     1       0.255  -5.086   8.371  0.00  0.00    -0.166 NA
ATOM     22  N   UNL     1      -0.093  -4.564   7.251  0.00  0.00    -0.227 N 
BRANCH  22  23
ATOM     23  C   UNL     1      -0.343  -3.204   7.040  0.00  0.00    +0.066 A 
ATOM     24  C   UNL     1       0.172  -2.567   5.917  0.00  0.00    +0.028 A 
ATOM     25  C   UNL     1      -0.077  -1.224   5.712  0.00  0.00    +0.002 A 
ATOM     26  C   UNL     1      -0.837  -0.513   6.622  0.00  0.00    +0.000 A 
ATOM     27  C   UNL     1      -1.351  -1.144   7.741  0.00  0.00    +0.002 A 
ATOM     28  C   UNL     1      -1.110  -2.488   7.949  0.00  0.00    +0.028 A 
ENDBRANCH  22  23
BRANCH  20  29
ATOM     29  C   UNL     1       0.830  -7.322   9.329  0.00  0.00    +0.002 A 
ATOM     30  C   UNL     1       0.976  -8.681   9.059  0.00  0.00    +0.010 A 
ATOM     31  C   UNL     1       1.354  -9.546  10.065  0.00  0.00    +0.001 A 
ATOM     32  C   UNL     1       1.589  -9.066  11.341  0.00  0.00    +0.000 A 
ATOM     33  C   UNL     1       1.445  -7.718  11.615  0.00  0.00    +0.001 A 
ATOM     34  C   UNL     1       1.072  -6.843  10.615  0.00  0.00    +0.010 A 
ENDBRANCH  20  29
ENDBRANCH   2  18
TORSDOF 5
