REMARK  Name = ZINC15973747
REMARK  5 active torsions:
REMARK  status: ('A' for Active; 'I' for Inactive)
REMARK    1  A    between atoms: C_4  and  C_7
REMARK    2  A    between atoms: C_17  and  C_19
REMARK    3  A    between atoms: C_25  and  C_27
REMARK    4  A    between atoms: C_27  and  S_28
REMARK    5  A    between atoms: S_28  and  C_29
REMARK                            x       y       z     vdW  Elec       q    Type
REMARK                         _______ _______ _______ _____ _____    ______ ____
ROOT
ATOM      1  C   UNL     1       3.692  -0.680  -0.037  0.00  0.00    +0.013 C 
ATOM      2  C   UNL     1       3.717  -2.025   0.057  0.00  0.00    -0.024 C 
ATOM      3  C   UNL     1       2.428  -2.790   0.059  0.00  0.00    +0.037 C 
ATOM      4  C   UNL     1       2.597  -4.295   0.009  0.00  0.00    +0.005 C 
ATOM      5  C   UNL     1       3.852  -4.789   0.727  0.00  0.00    +0.012 C 
ATOM      6  C   UNL     1       5.072  -4.209   0.009  0.00  0.00    +0.066 C 
ATOM      7  C   UNL     1       4.960  -2.694   0.147  0.00  0.00    +0.068 C 
ATOM      8  N   UNL     1       6.139  -2.227   0.372  0.00  0.00    -0.181 NA
ATOM      9  N   UNL     1       7.094  -3.218   0.629  0.00  0.00    -0.184 N 
ATOM     10  C   UNL     1       6.379  -4.522   0.756  0.00  0.00    +0.140 C 
ATOM     11  C   UNL     1       8.424  -3.030   0.742  0.00  0.00    +0.246 C 
ATOM     12  O   UNL     1       9.153  -3.974   0.966  0.00  0.00    -0.273 OA
ENDROOT
BRANCH   1  16
ATOM     13  C   UNL     1      -0.004   1.393   0.180  0.00  0.00    +0.000 A 
ATOM     14  C   UNL     1       0.258   0.358   1.061  0.00  0.00    +0.001 A 
ATOM     15  C   UNL     1       1.457  -0.321   0.997  0.00  0.00    +0.008 A 
ATOM     16  C   UNL     1       2.409   0.039   0.038  0.00  0.00    -0.025 A 
ATOM     17  C   UNL     1       2.137   1.086  -0.849  0.00  0.00    +0.008 A 
ATOM     18  C   UNL     1       0.934   1.755  -0.771  0.00  0.00    +0.001 A 
ENDBRANCH   1  16
BRANCH  10  19
ATOM     19  C   UNL     1       7.141  -5.628   0.073  0.00  0.00    -0.024 A 
ATOM     20  C   UNL     1       7.913  -5.350  -1.040  0.00  0.00    +0.005 A 
ATOM     21  C   UNL     1       8.611  -6.365  -1.667  0.00  0.00    +0.000 A 
ATOM     22  C   UNL     1       8.539  -7.657  -1.181  0.00  0.00    +0.000 A 
ATOM     23  C   UNL     1       7.768  -7.934  -0.068  0.00  0.00    +0.000 A 
ATOM     24  C   UNL     1       7.073  -6.919   0.562  0.00  0.00    +0.005 A 
ENDBRANCH  10  19
BRANCH  11  25
ATOM     25  C   UNL     1       9.006  -1.648   0.589  0.00  0.00    +0.175 C 
BRANCH  25  26
ATOM     26  S   UNL     1      10.806  -1.725   0.794  0.00  0.00    -0.077 S 
BRANCH  26  27
ATOM     27  C   UNL     1      11.329  -0.054   0.591  0.00  0.00    +0.184 A 
ATOM     28  N   UNL     1      12.602   0.394   0.651  0.00  0.00    -0.254 N 
ATOM     29  H   UNL     1      13.398  -0.136   0.814  0.00  0.00    +0.191 HD
ATOM     30  N   UNL     1      12.544   1.780   0.432  0.00  0.00    -0.160 NA
ATOM     31  C   UNL     1      11.287   2.086   0.257  0.00  0.00    +0.245 A 
ATOM     32  N   UNL     1      10.550   0.978   0.346  0.00  0.00    -0.209 NA
ENDBRANCH  26  27
ENDBRANCH  25  26
ENDBRANCH  11  25
TORSDOF 5
