REMARK  Name = ZINC20285926
REMARK  13 active torsions:
REMARK  status: ('A' for Active; 'I' for Inactive)
REMARK    1  A    between atoms: C_1  and  C_2
REMARK    2  A    between atoms: C_2  and  C_3
REMARK    3  A    between atoms: C_3  and  N_4
REMARK    4  A    between atoms: N_4  and  C_5
REMARK    5  A    between atoms: C_5  and  C_6
REMARK    6  A    between atoms: N_12  and  C_13
REMARK    7  A    between atoms: C_14  and  C_15
REMARK    8  A    between atoms: C_14  and  N_16
REMARK    9  A    between atoms: N_16  and  C_17
REMARK   10  A    between atoms: C_19  and  C_25
REMARK   11  A    between atoms: C_19  and  C_26
REMARK   12  A    between atoms: C_21  and  C_23
REMARK   13  A    between atoms: C_21  and  C_24
REMARK                            x       y       z     vdW  Elec       q    Type
REMARK                         _______ _______ _______ _____ _____    ______ ____
ROOT
ATOM      1  C   UNL     1       5.130  -4.891   1.515  0.00  0.00    +0.131 C 
ATOM      2  C   UNL     1       5.916  -5.869   1.984  0.00  0.00    +0.019 C 
ATOM      3  C   UNL     1       5.496  -7.309   1.838  0.00  0.00    +0.062 C 
ENDROOT
BRANCH   1   8
ATOM      4  N   UNL     1       0.553  -2.109  -1.063  0.00  0.00    -0.309 N 
ATOM      5  C   UNL     1       1.586  -2.790  -0.479  0.00  0.00    +0.167 C 
ATOM      6  N   UNL     1       1.964  -4.067  -0.209  0.00  0.00    -0.200 NA
ATOM      7  C   UNL     1       3.184  -4.240   0.448  0.00  0.00    +0.198 C 
ATOM      8  N   UNL     1       3.953  -5.197   0.907  0.00  0.00    -0.228 NA
ATOM      9  S   UNL     1       3.140  -2.468   0.320  0.00  0.00    -0.015 S 
BRANCH   4  10
ATOM     10  C   UNL     1       0.587  -0.646  -1.134  0.00  0.00    +0.107 C 
BRANCH  10  12
ATOM     11  C   UNL     1      -0.037   1.468   0.042  0.00  0.00    +0.005 C 
ATOM     12  C   UNL     1      -0.072  -0.060   0.116  0.00  0.00    +0.016 C 
ENDBRANCH  10  12
ENDBRANCH   4  10
BRANCH   4  13
ATOM     13  C   UNL     1      -0.586  -2.843  -1.619  0.00  0.00    +0.110 C 
BRANCH  13  14
ATOM     14  C   UNL     1      -0.312  -3.176  -3.087  0.00  0.00    +0.006 C 
ATOM     15  C   UNL     1      -1.235  -2.554  -4.137  0.00  0.00    +0.005 C 
ATOM     16  C   UNL     1      -1.337  -4.047  -3.817  0.00  0.00    +0.005 C 
ENDBRANCH  13  14
ENDBRANCH   4  13
ENDBRANCH   1   8
BRANCH   2  17
ATOM     17  N   UNL     1       7.118  -5.556   2.605  0.00  0.00    -0.343 N 
ATOM     18  H   UNL     1       7.389  -4.630   2.699  0.00  0.00    +0.146 HD
BRANCH  17  19
ATOM     19  C   UNL     1       7.980  -6.629   3.119  0.00  0.00    +0.068 C 
ATOM     20  C   UNL     1       7.545  -6.983   4.543  0.00  0.00    +0.009 C 
ATOM     21  C   UNL     1       8.441  -8.090   5.097  0.00  0.00    -0.072 C 
ATOM     22  N   UNL     1       9.853  -7.747   5.014  0.00  0.00    +0.386 N 
ATOM     23  C   UNL     1      10.342  -7.200   3.759  0.00  0.00    -0.072 C 
ATOM     24  C   UNL     1       9.425  -6.134   3.168  0.00  0.00    +0.009 C 
ATOM     25  C   UNL     1      10.598  -8.299   2.724  0.00  0.00    -0.010 C 
ATOM     26  C   UNL     1      11.704  -6.525   4.046  0.00  0.00    -0.010 C 
ATOM     27  C   UNL     1       8.130  -9.418   4.406  0.00  0.00    -0.010 C 
ATOM     28  C   UNL     1       8.088  -8.259   6.593  0.00  0.00    -0.010 C 
ATOM     29  H   UNL     1      10.064  -7.079   5.760  0.00  0.00    -0.084 HD
ATOM     30  H   UNL     1      10.400  -8.581   5.238  0.00  0.00    -0.084 HD
ENDBRANCH  17  19
ENDBRANCH   2  17
TORSDOF 7
