REMARK  Name = ZINC32125021
REMARK  7 active torsions:
REMARK  status: ('A' for Active; 'I' for Inactive)
REMARK    1  A    between atoms: C_3  and  S_26
REMARK    2  A    between atoms: C_4  and  N_23
REMARK    3  A    between atoms: C_6  and  C_7
REMARK    4  A    between atoms: N_11  and  C_15
REMARK    5  A    between atoms: S_26  and  C_27
REMARK    6  A    between atoms: C_27  and  C_28
REMARK    7  A    between atoms: C_28  and  O_29
REMARK                            x       y       z     vdW  Elec       q    Type
REMARK                         _______ _______ _______ _____ _____    ______ ____
ROOT
ATOM      1  C   UNL     1      -3.454   2.999   7.217  0.00  0.00    +0.028 C 
ATOM      2  C   UNL     1      -3.836   4.302   7.164  0.00  0.00    +0.077 C 
ATOM      3  C   UNL     1      -3.925   5.210   6.005  0.00  0.00    +0.263 C 
ATOM      4  O   UNL     1      -3.637   4.841   4.881  0.00  0.00    -0.269 OA
ATOM      5  N   UNL     1      -4.333   6.444   6.247  0.00  0.00    -0.224 N 
ATOM      6  C   UNL     1      -4.652   6.848   7.494  0.00  0.00    +0.125 C 
ATOM      7  S   UNL     1      -5.196   8.389   8.005  0.00  0.00    -0.027 S 
ATOM      8  S   UNL     1      -4.377   5.385   8.479  0.00  0.00    -0.061 S 
ENDROOT
BRANCH   5   9
ATOM      9  C   UNL     1      -4.438   7.352   5.185  0.00  0.00    +0.044 A 
ATOM     10  C   UNL     1      -5.686   7.803   4.775  0.00  0.00    +0.025 A 
ATOM     11  C   UNL     1      -5.786   8.703   3.732  0.00  0.00    +0.023 A 
ATOM     12  C   UNL     1      -4.645   9.146   3.087  0.00  0.00    +0.059 A 
ATOM     13  C   UNL     1      -3.400   8.694   3.489  0.00  0.00    +0.061 A 
ATOM     14  C   UNL     1      -3.294   7.798   4.537  0.00  0.00    +0.045 A 
ATOM     15 CL   UNL     1      -1.970   9.253   2.678  0.00  0.00    -0.082 Cl
ATOM     16 CL   UNL     1      -4.776  10.271   1.771  0.00  0.00    -0.082 Cl
ENDBRANCH   5   9
BRANCH   1  22
ATOM     17  C   UNL     1      -4.088   2.401   4.889  0.00  0.00    +0.009 A 
ATOM     18  C   UNL     1      -3.861   1.706   3.735  0.00  0.00    +0.017 A 
ATOM     19  C   UNL     1      -2.765   0.852   3.638  0.00  0.00    +0.038 A 
ATOM     20  C   UNL     1      -1.899   0.698   4.718  0.00  0.00    +0.140 A 
ATOM     21  C   UNL     1      -2.115   1.393   5.874  0.00  0.00    +0.041 A 
ATOM     22  C   UNL     1      -3.216   2.254   5.976  0.00  0.00    -0.022 A 
BRANCH  20  23
ATOM     23  N   UNL     1      -0.739  -0.216   4.611  0.00  0.00    +0.058 N 
ATOM     24  O   UNL     1       0.019  -0.351   5.555  0.00  0.00    -0.126 OA
ATOM     25  O   UNL     1      -0.543  -0.833   3.579  0.00  0.00    -0.126 OA
ENDBRANCH  20  23
BRANCH  19  26
ATOM     26  S   UNL     1      -2.478  -0.043   2.147  0.00  0.00    -0.121 S 
BRANCH  26  27
ATOM     27  C   UNL     1      -3.839   0.466   1.061  0.00  0.00    +0.102 C 
BRANCH  27  28
ATOM     28  C   UNL     1      -3.710  -0.247  -0.286  0.00  0.00    +0.167 C 
BRANCH  28  29
ATOM     29  O   UNL     1      -4.782   0.154  -1.142  0.00  0.00    -0.394 OA
ATOM     30  H   UNL     1      -4.856  -0.257  -2.160  0.00  0.00    +0.209 HD
ENDBRANCH  28  29
ENDBRANCH  27  28
ENDBRANCH  26  27
ENDBRANCH  19  26
ENDBRANCH   1  22
TORSDOF 7
