REMARK  Name = ZINC00850566
REMARK  9 active torsions:
REMARK  status: ('A' for Active; 'I' for Inactive)
REMARK    1  A    between atoms: C_1  and  C_2
REMARK    2  A    between atoms: C_6  and  C_28
REMARK    3  A    between atoms: C_7  and  N_8
REMARK    4  A    between atoms: N_8  and  C_9
REMARK    5  A    between atoms: C_9  and  C_11
REMARK    6  A    between atoms: C_9  and  C_12
REMARK    7  A    between atoms: N_14  and  N_15
REMARK    8  A    between atoms: C_16  and  C_17
REMARK    9  A    between atoms: C_26  and  O_27
REMARK                            x       y       z     vdW  Elec       q    Type
REMARK                         _______ _______ _______ _____ _____    ______ ____
ROOT
ATOM      1  C   UNL     1       0.329   0.721   4.606  0.00  0.00    +0.252 C 
ATOM      2  O   UNL     1       0.961   1.629   4.108  0.00  0.00    -0.272 OA
ATOM      3  N   UNL     1       0.266   0.599   5.947  0.00  0.00    -0.205 N 
ATOM      4  H   UNL     1      -0.239  -0.128   6.345  0.00  0.00    +0.177 HD
ENDROOT
BRANCH   1   5
ATOM      5  C   UNL     1      -0.387  -0.271   3.725  0.00  0.00    +0.155 C 
ATOM      6  C   UNL     1      -1.885  -0.236   4.030  0.00  0.00    +0.038 C 
BRANCH   5   7
ATOM      7  N   UNL     1      -0.166   0.077   2.319  0.00  0.00    -0.333 N 
ATOM      8  H   UNL     1      -0.672   0.797   1.913  0.00  0.00    +0.147 HD
BRANCH   7  15
ATOM      9  C   UNL     1      -0.756  -2.618   1.622  0.00  0.00    +0.045 C 
ATOM     10  C   UNL     1       0.527  -1.947   1.201  0.00  0.00    -0.029 A 
ATOM     11  C   UNL     1       1.455  -2.640   0.450  0.00  0.00    +0.005 A 
ATOM     12  C   UNL     1       2.632  -2.026   0.064  0.00  0.00    +0.001 A 
ATOM     13  C   UNL     1       2.884  -0.716   0.428  0.00  0.00    +0.005 A 
ATOM     14  C   UNL     1       1.959  -0.016   1.179  0.00  0.00    -0.029 A 
ATOM     15  C   UNL     1       0.773  -0.629   1.564  0.00  0.00    +0.034 A 
ATOM     16  C   UNL     1       2.234   1.411   1.575  0.00  0.00    +0.045 C 
ENDBRANCH   7  15
ENDBRANCH   5   7
ENDBRANCH   1   5
BRANCH   3  17
ATOM     17  N   UNL     1       0.931   1.520   6.766  0.00  0.00    -0.188 NA
ATOM     18  C   UNL     1       0.871   1.403   8.059  0.00  0.00    +0.142 C 
BRANCH  18  19
ATOM     19  C   UNL     1       1.569   2.370   8.918  0.00  0.00    +0.044 A 
ATOM     20  C   UNL     1       1.517   2.249  10.374  0.00  0.00    -0.006 A 
ATOM     21  C   UNL     1       0.806   1.216  10.996  0.00  0.00    +0.009 A 
ATOM     22  C   UNL     1       0.783   1.138  12.357  0.00  0.00    +0.001 A 
ATOM     23  C   UNL     1       1.457   2.074  13.138  0.00  0.00    +0.001 A 
ATOM     24  C   UNL     1       2.158   3.091  12.565  0.00  0.00    +0.008 A 
ATOM     25  C   UNL     1       2.204   3.202  11.165  0.00  0.00    -0.017 A 
ATOM     26  C   UNL     1       2.917   4.238  10.538  0.00  0.00    +0.012 A 
ATOM     27  C   UNL     1       2.956   4.336   9.183  0.00  0.00    +0.046 A 
ATOM     28  C   UNL     1       2.300   3.420   8.362  0.00  0.00    +0.126 A 
BRANCH  28  29
ATOM     29  O   UNL     1       2.369   3.552   7.013  0.00  0.00    -0.506 OA
ATOM     30  H   UNL     1       1.668   4.100   6.634  0.00  0.00    +0.292 HD
ENDBRANCH  28  29
ENDBRANCH  18  19
ENDBRANCH   3  17
TORSDOF 6
