REMARK  Name = ZINC11882418
REMARK  10 active torsions:
REMARK  status: ('A' for Active; 'I' for Inactive)
REMARK    1  A    between atoms: C_1  and  C_2
REMARK    2  A    between atoms: C_2  and  C_3
REMARK    3  A    between atoms: C_3  and  C_5
REMARK    4  A    between atoms: C_3  and  N_16
REMARK    5  A    between atoms: C_11  and  C_15
REMARK    6  A    between atoms: C_17  and  C_19
REMARK    7  A    between atoms: C_19  and  C_20
REMARK    8  A    between atoms: C_20  and  C_21
REMARK    9  A    between atoms: C_21  and  C_27
REMARK   10  A    between atoms: C_27  and  C_28
REMARK                            x       y       z     vdW  Elec       q    Type
REMARK                         _______ _______ _______ _____ _____    ______ ____
ROOT
ATOM      1  N   UNL     1      -1.557   0.533   3.759  0.00  0.00    -0.306 N 
ATOM      2  C   UNL     1      -1.383   1.810   3.366  0.00  0.00    +0.214 C 
ATOM      3  O   UNL     1      -2.210   2.650   3.652  0.00  0.00    -0.276 OA
ATOM      4  H   UNL     1      -0.896  -0.139   3.531  0.00  0.00    +0.149 HD
ENDROOT
BRANCH   1   5
ATOM      5  C   UNL     1      -2.745   0.159   4.531  0.00  0.00    +0.139 C 
BRANCH   5   6
ATOM      6  C   UNL     1      -3.037  -1.306   4.327  0.00  0.00    +0.129 A 
ATOM      7  N   UNL     1      -4.148  -1.802   3.720  0.00  0.00    -0.340 N 
ATOM      8  H   UNL     1      -4.904  -1.269   3.340  0.00  0.00    +0.167 HD
ATOM      9  C   UNL     1      -4.040  -3.178   3.727  0.00  0.00    +0.066 A 
ATOM     10  C   UNL     1      -4.840  -4.214   3.264  0.00  0.00    +0.028 A 
ATOM     11  C   UNL     1      -4.436  -5.520   3.438  0.00  0.00    +0.005 A 
ATOM     12  C   UNL     1      -3.236  -5.806   4.074  0.00  0.00    -0.048 A 
ATOM     13  C   UNL     1      -2.436  -4.800   4.537  0.00  0.00    +0.033 A 
ATOM     14  C   UNL     1      -2.825  -3.468   4.371  0.00  0.00    +0.089 A 
ATOM     15  N   UNL     1      -2.264  -2.280   4.711  0.00  0.00    -0.231 NA
ATOM     16  C   UNL     1      -2.812  -7.240   4.256  0.00  0.00    +0.044 C 
ENDBRANCH   5   6
BRANCH   5  18
ATOM     17  C   UNL     1      -2.322   1.931   6.241  0.00  0.00    +0.006 C 
ATOM     18  C   UNL     1      -2.494   0.427   6.016  0.00  0.00    +0.027 C 
ENDBRANCH   5  18
ENDBRANCH   1   5
BRANCH   2  19
ATOM     19  C   UNL     1      -0.161   2.194   2.573  0.00  0.00    +0.098 C 
BRANCH  19  20
ATOM     20  C   UNL     1      -0.208   3.691   2.258  0.00  0.00    +0.035 C 
BRANCH  20  21
ATOM     21  C   UNL     1       1.028   4.079   1.444  0.00  0.00    +0.039 C 
ATOM     22  C   UNL     1       2.312   3.830   2.266  0.00  0.00    +0.035 C 
ATOM     23  C   UNL     1       3.303   3.368   1.172  0.00  0.00    +0.098 C 
ATOM     24  C   UNL     1       2.416   2.810   0.081  0.00  0.00    +0.214 C 
ATOM     25  O   UNL     1       2.794   2.097  -0.824  0.00  0.00    -0.276 OA
ATOM     26  N   UNL     1       1.148   3.219   0.261  0.00  0.00    -0.309 N 
ATOM     27  H   UNL     1       0.408   2.977  -0.317  0.00  0.00    +0.149 HD
BRANCH  21  28
ATOM     28  C   UNL     1       0.945   5.548   1.024  0.00  0.00    +0.061 C 
BRANCH  28  29
ATOM     29  C   UNL     1      -0.215   5.736   0.081  0.00  0.00    -0.045 A 
ATOM     30  C   UNL     1      -1.441   6.153   0.566  0.00  0.00    +0.005 A 
ATOM     31  C   UNL     1      -2.505   6.325  -0.298  0.00  0.00    +0.020 A 
ATOM     32  C   UNL     1      -2.344   6.081  -1.651  0.00  0.00    +0.041 A 
ATOM     33  C   UNL     1      -1.117   5.663  -2.136  0.00  0.00    +0.020 A 
ATOM     34  C   UNL     1      -0.054   5.491  -1.270  0.00  0.00    +0.005 A 
ATOM     35 CL   UNL     1      -3.680   6.297  -2.737  0.00  0.00    -0.084 Cl
ENDBRANCH  28  29
ENDBRANCH  21  28
ENDBRANCH  20  21
ENDBRANCH  19  20
ENDBRANCH   2  19
TORSDOF 8
