REMARK  Name = ZINC06300587
REMARK  15 active torsions:
REMARK  status: ('A' for Active; 'I' for Inactive)
REMARK    1  A    between atoms: C_1  and  C_2
REMARK    2  A    between atoms: C_4  and  C_40
REMARK    3  A    between atoms: C_9  and  C_14
REMARK    4  A    between atoms: C_14  and  C_16
REMARK    5  A    between atoms: C_14  and  N_73
REMARK    6  A    between atoms: N_20  and  C_21
REMARK    7  A    between atoms: C_21  and  C_22
REMARK    8  A    between atoms: C_21  and  C_23
REMARK    9  A    between atoms: C_21  and  C_24
REMARK   10  A    between atoms: C_25  and  C_26
REMARK   11  A    between atoms: C_25  and  N_73
REMARK   12  A    between atoms: C_29  and  O_32
REMARK   13  A    between atoms: O_32  and  C_33
REMARK   14  A    between atoms: C_34  and  C_35
REMARK   15  A    between atoms: C_34  and  N_73
REMARK                            x       y       z     vdW  Elec       q    Type
REMARK                         _______ _______ _______ _____ _____    ______ ____
ROOT
ATOM      1  C   UNL     1       3.967   1.502   0.407  0.00  0.00    +0.040 C 
ENDROOT
BRANCH   1  10
ATOM      2  C   UNL     1       8.634   0.100   6.053  0.00  0.00    +0.044 C 
ATOM      3  C   UNL     1       7.833   1.066   5.219  0.00  0.00    -0.050 A 
ATOM      4  C   UNL     1       7.868   2.423   5.514  0.00  0.00    +0.008 A 
ATOM      5  C   UNL     1       7.144   3.324   4.764  0.00  0.00    -0.026 A 
ATOM      6  C   UNL     1       6.369   2.873   3.701  0.00  0.00    +0.052 A 
ATOM      7  C   UNL     1       6.336   1.497   3.405  0.00  0.00    -0.001 A 
ATOM      8  C   UNL     1       7.080   0.600   4.179  0.00  0.00    +0.013 A 
ATOM      9  C   UNL     1       5.518   1.032   2.283  0.00  0.00    +0.017 A 
ATOM     10  C   UNL     1       4.819   1.947   1.568  0.00  0.00    +0.011 A 
ATOM     11  C   UNL     1       4.891   3.316   1.903  0.00  0.00    +0.251 A 
ATOM     12  O   UNL     1       4.258   4.123   1.243  0.00  0.00    -0.268 OA
ATOM     13  N   UNL     1       5.635   3.752   2.934  0.00  0.00    -0.322 N 
ATOM     14  H   UNL     1       5.658   4.700   3.139  0.00  0.00    +0.169 HD
ATOM     15  C   UNL     1       7.191   4.794   5.096  0.00  0.00    +0.046 C 
ENDBRANCH   1  10
BRANCH   1  16
ATOM     16  C   UNL     1       2.517   1.776   0.714  0.00  0.00    +0.143 A 
ATOM     17  N   UNL     1       1.920   2.942   0.694  0.00  0.00    -0.115 NA
ATOM     18  N   UNL     1       0.685   2.763   1.013  0.00  0.00    -0.023 NA
ATOM     19  N   UNL     1       0.478   1.512   1.236  0.00  0.00    -0.043 NA
ATOM     20  N   UNL     1       1.584   0.870   1.062  0.00  0.00    -0.225 N 
BRANCH  20  21
ATOM     21  C   UNL     1       1.786  -0.573   1.216  0.00  0.00    +0.059 C 
ATOM     22  C   UNL     1       0.498  -1.216   1.731  0.00  0.00    +0.036 C 
ATOM     23  C   UNL     1       2.155  -1.183  -0.138  0.00  0.00    +0.036 C 
ATOM     24  C   UNL     1       2.917  -0.826   2.215  0.00  0.00    +0.036 C 
ENDBRANCH  20  21
ENDBRANCH   1  16
BRANCH   1  25
ATOM     25  N   UNL     1       4.353   2.267  -0.796  0.00  0.00    +0.397 N 
ATOM     26  H   UNL     1       4.112   3.255  -0.655  0.00  0.00    -0.079 HD
BRANCH  25  27
ATOM     27  C   UNL     1       3.622   1.758  -1.975  0.00  0.00    -0.041 C 
BRANCH  27  28
ATOM     28  C   UNL     1       2.264   2.412  -2.018  0.00  0.00    -0.064 A 
ATOM     29  C   UNL     1       1.162   1.746  -1.514  0.00  0.00    +0.005 A 
ATOM     30  C   UNL     1      -0.082   2.346  -1.548  0.00  0.00    +0.046 A 
ATOM     31  C   UNL     1      -0.227   3.611  -2.097  0.00  0.00    +0.120 A 
ATOM     32  C   UNL     1       0.880   4.274  -2.607  0.00  0.00    +0.046 A 
ATOM     33  C   UNL     1       2.123   3.673  -2.566  0.00  0.00    +0.005 A 
BRANCH  31  34
ATOM     34  O   UNL     1      -1.451   4.201  -2.135  0.00  0.00    -0.495 OA
ATOM     35  C   UNL     1      -2.545   3.460  -1.592  0.00  0.00    +0.277 C 
ENDBRANCH  31  34
ENDBRANCH  27  28
ENDBRANCH  25  27
BRANCH  25  36
ATOM     36  C   UNL     1       5.810   2.156  -1.020  0.00  0.00    -0.001 C 
BRANCH  36  37
ATOM     37  C   UNL     1       6.230   3.213  -2.008  0.00  0.00    +0.089 A 
ATOM     38  C   UNL     1       6.614   4.466  -1.705  0.00  0.00    +0.042 A 
ATOM     39  C   UNL     1       6.918   5.109  -2.927  0.00  0.00    +0.041 A 
ATOM     40  C   UNL     1       6.702   4.210  -3.904  0.00  0.00    +0.195 A 
ATOM     41  O   UNL     1       6.291   3.062  -3.341  0.00  0.00    -0.470 OA
ENDBRANCH  36  37
ENDBRANCH  25  36
ENDBRANCH   1  25
TORSDOF 9
