REMARK  Name = ZINC65251507
REMARK  7 active torsions:
REMARK  status: ('A' for Active; 'I' for Inactive)
REMARK    1  A    between atoms: C_1  and  C_2
REMARK    2  A    between atoms: C_3  and  C_21
REMARK    3  A    between atoms: C_10  and  C_13
REMARK    4  A    between atoms: C_15  and  C_18
REMARK    5  A    between atoms: N_23  and  C_24
REMARK    6  A    between atoms: C_24  and  C_26
REMARK    7  A    between atoms: C_24  and  C_27
REMARK                            x       y       z     vdW  Elec       q    Type
REMARK                         _______ _______ _______ _____ _____    ______ ____
ROOT
ATOM      1  C   UNL     1      -0.018   1.503   0.010  0.00  0.00    +0.066 C 
ATOM      2  C   UNL     1       0.002  -0.004   0.002  0.00  0.00    +0.056 A 
ATOM      3  C   UNL     1       0.008  -0.815  -1.114  0.00  0.00    +0.077 A 
ATOM      4  C   UNL     1       0.028  -2.153  -0.658  0.00  0.00    +0.148 A 
ATOM      5  N   UNL     1       0.034  -2.137   0.646  0.00  0.00    -0.172 NA
ATOM      6  N   UNL     1       0.024  -0.807   1.083  0.00  0.00    -0.218 N 
ATOM      7  C   UNL     1       0.032  -0.385   2.413  0.00  0.00    +0.154 A 
ATOM      8  C   UNL     1      -0.454  -1.233   3.404  0.00  0.00    +0.049 A 
ATOM      9  C   UNL     1      -0.443  -0.810   4.718  0.00  0.00    +0.018 A 
ATOM     10  C   UNL     1       0.060   0.467   5.003  0.00  0.00    +0.058 A 
ATOM     11  C   UNL     1       0.529   1.259   3.954  0.00  0.00    +0.126 A 
ATOM     12  N   UNL     1       0.506   0.814   2.715  0.00  0.00    -0.235 NA
ENDROOT
BRANCH  10  13
ATOM     13  C   UNL     1       0.093   0.968   6.392  0.00  0.00    +0.260 A 
ATOM     14  N   UNL     1       0.535   2.144   6.779  0.00  0.00    -0.191 NA
ATOM     15  C   UNL     1       0.416   2.262   8.104  0.00  0.00    +0.175 A 
ATOM     16  N   UNL     1      -0.102   1.167   8.585  0.00  0.00    -0.061 NA
ATOM     17  O   UNL     1      -0.328   0.303   7.482  0.00  0.00    -0.333 OA
BRANCH  15  18
ATOM     18  C   UNL     1       0.818   3.468   8.913  0.00  0.00    +0.060 C 
ATOM     19  C   UNL     1       0.791   3.337  10.437  0.00  0.00    +0.012 C 
ATOM     20  C   UNL     1      -0.274   4.171   9.722  0.00  0.00    +0.012 C 
ENDBRANCH  15  18
ENDBRANCH  10  13
BRANCH   3  21
ATOM     21  C   UNL     1      -0.005  -0.370  -2.520  0.00  0.00    +0.248 C 
ATOM     22  O   UNL     1      -0.022   0.818  -2.781  0.00  0.00    -0.270 OA
ATOM     23  N   UNL     1       0.003  -1.279  -3.515  0.00  0.00    -0.305 N 
ATOM     24  H   UNL     1       0.017  -2.226  -3.306  0.00  0.00    +0.150 HD
BRANCH  23  25
ATOM     25  C   UNL     1      -0.009  -0.836  -4.911  0.00  0.00    +0.100 C 
ATOM     26  C   UNL     1      -1.452  -0.582  -5.353  0.00  0.00    +0.033 C 
BRANCH  25  27
ATOM     27  C   UNL     1       0.602  -1.903  -5.782  0.00  0.00    -0.027 A 
ATOM     28  C   UNL     1       0.324  -3.235  -5.540  0.00  0.00    +0.008 A 
ATOM     29  C   UNL     1       0.883  -4.215  -6.338  0.00  0.00    +0.038 A 
ATOM     30  C   UNL     1       1.723  -3.862  -7.381  0.00  0.00    +0.123 A 
ATOM     31  C   UNL     1       2.001  -2.527  -7.622  0.00  0.00    +0.038 A 
ATOM     32  C   UNL     1       1.436  -1.549  -6.826  0.00  0.00    +0.008 A 
ATOM     33  F   UNL     1       2.271  -4.818  -8.162  0.00  0.00    -0.205 F 
ENDBRANCH  25  27
ENDBRANCH  23  25
ENDBRANCH   3  21
TORSDOF 5
