REMARK  Name = ZINC48545127
REMARK  10 active torsions:
REMARK  status: ('A' for Active; 'I' for Inactive)
REMARK    1  A    between atoms: C_1  and  C_2
REMARK    2  A    between atoms: C_3  and  C_28
REMARK    3  A    between atoms: C_4  and  C_11
REMARK    4  A    between atoms: C_5  and  C_9
REMARK    5  A    between atoms: C_6  and  C_8
REMARK    6  A    between atoms: C_15  and  O_26
REMARK    7  A    between atoms: C_16  and  O_17
REMARK    8  A    between atoms: O_17  and  C_18
REMARK    9  A    between atoms: C_18  and  C_19
REMARK   10  A    between atoms: O_26  and  C_27
REMARK                            x       y       z     vdW  Elec       q    Type
REMARK                         _______ _______ _______ _____ _____    ______ ____
ROOT
ATOM      1  C   UNL     1      -1.540  -2.673   1.385  0.00  0.00    +0.011 A 
ATOM      2  C   UNL     1      -0.738  -2.345   2.463  0.00  0.00    +0.008 A 
ATOM      3  C   UNL     1      -1.062  -2.791   3.731  0.00  0.00    +0.004 A 
ATOM      4  C   UNL     1      -2.189  -3.568   3.927  0.00  0.00    +0.049 A 
ATOM      5  C   UNL     1      -2.996  -3.901   2.851  0.00  0.00    +0.162 A 
ATOM      6  C   UNL     1      -2.674  -3.446   1.576  0.00  0.00    +0.166 A 
ENDROOT
BRANCH   1  10
ATOM      7  C   UNL     1      -0.018   1.503   0.010  0.00  0.00    +0.061 C 
ATOM      8  C   UNL     1       0.002  -0.004   0.002  0.00  0.00    +0.019 C 
ATOM      9  C   UNL     1      -1.156  -0.683   0.004  0.00  0.00    +0.059 C 
ATOM     10  C   UNL     1      -1.184  -2.185   0.005  0.00  0.00    +0.106 C 
ATOM     11  C   UNL     1       0.154  -2.744  -0.387  0.00  0.00    +0.059 C 
ATOM     12  C   UNL     1       1.261  -1.986  -0.375  0.00  0.00    +0.019 C 
ATOM     13  N   UNL     1       1.203  -0.665  -0.013  0.00  0.00    -0.320 N 
ATOM     14  C   UNL     1       2.584  -2.592  -0.767  0.00  0.00    +0.061 C 
ATOM     15  H   UNL     1       2.016  -0.198   0.236  0.00  0.00    +0.152 HD
BRANCH  11  16
ATOM     16  C   UNL     1       0.250  -4.117  -0.783  0.00  0.00    +0.097 C 
ATOM     17  N   UNL     1       0.326  -5.206  -1.098  0.00  0.00    -0.191 NA
ENDBRANCH  11  16
BRANCH   9  18
ATOM     18  C   UNL     1      -2.392   0.040   0.005  0.00  0.00    +0.097 C 
ATOM     19  N   UNL     1      -3.372   0.614   0.006  0.00  0.00    -0.191 NA
ENDBRANCH   9  18
ENDBRANCH   1  10
BRANCH   5  20
ATOM     20  O   UNL     1      -4.105  -4.665   3.042  0.00  0.00    -0.491 OA
ATOM     21  C   UNL     1      -4.377  -5.091   4.379  0.00  0.00    +0.277 C 
ENDBRANCH   5  20
BRANCH   6  22
ATOM     22  O   UNL     1      -3.467  -3.765   0.518  0.00  0.00    -0.483 OA
BRANCH  22  23
ATOM     23  C   UNL     1      -3.159  -4.972  -0.183  0.00  0.00    +0.264 C 
BRANCH  23  24
ATOM     24  C   UNL     1      -4.136  -5.159  -1.314  0.00  0.00    -0.010 A 
ATOM     25  C   UNL     1      -5.315  -5.849  -1.102  0.00  0.00    +0.008 A 
ATOM     26  C   UNL     1      -6.212  -6.021  -2.140  0.00  0.00    +0.015 A 
ATOM     27  C   UNL     1      -5.930  -5.501  -3.391  0.00  0.00    +0.018 A 
ATOM     28  C   UNL     1      -4.750  -4.811  -3.602  0.00  0.00    +0.015 A 
ATOM     29  C   UNL     1      -3.856  -4.636  -2.563  0.00  0.00    +0.008 A 
ATOM     30 BR   UNL     1      -7.156  -5.736  -4.811  0.00  0.00    -0.050 Br
ENDBRANCH  23  24
ENDBRANCH  22  23
ENDBRANCH   6  22
TORSDOF 7
