REMARK  Name = ZINC36543448
REMARK  11 active torsions:
REMARK  status: ('A' for Active; 'I' for Inactive)
REMARK    1  A    between atoms: C_1  and  C_2
REMARK    2  A    between atoms: C_2  and  C_3
REMARK    3  A    between atoms: C_3  and  C_4
REMARK    4  A    between atoms: C_4  and  N_5
REMARK    5  A    between atoms: C_6  and  C_8
REMARK    6  A    between atoms: C_8  and  C_10
REMARK    7  A    between atoms: C_8  and  N_17
REMARK    8  A    between atoms: C_13  and  O_16
REMARK    9  A    between atoms: N_17  and  C_18
REMARK   10  A    between atoms: C_25  and  C_27
REMARK   11  A    between atoms: C_32  and  O_33
REMARK                            x       y       z     vdW  Elec       q    Type
REMARK                         _______ _______ _______ _____ _____    ______ ____
ROOT
ATOM      1  N   UNL     1       2.723  -5.729   3.753  0.00  0.00    -0.250 N 
ATOM      2  C   UNL     1       4.007  -6.051   4.006  0.00  0.00    +0.255 C 
ATOM      3  O   UNL     1       4.866  -5.191   3.982  0.00  0.00    -0.269 OA
ENDROOT
BRANCH   1   4
ATOM      4  C   UNL     1       1.750  -6.732   3.684  0.00  0.00    +0.056 A 
ATOM      5  C   UNL     1       1.482  -7.359   2.475  0.00  0.00    +0.025 A 
ATOM      6  C   UNL     1       0.521  -8.350   2.411  0.00  0.00    +0.002 A 
ATOM      7  C   UNL     1      -0.173  -8.717   3.549  0.00  0.00    +0.002 A 
ATOM      8  C   UNL     1       0.091  -8.095   4.755  0.00  0.00    +0.022 A 
ATOM      9  C   UNL     1       1.055  -7.106   4.827  0.00  0.00    +0.062 A 
ATOM     10 CL   UNL     1       1.391  -6.330   6.343  0.00  0.00    -0.082 Cl
ENDBRANCH   1   4
BRANCH   2  11
ATOM     11  C   UNL     1       4.370  -7.447   4.313  0.00  0.00    +0.079 A 
ATOM     12  C   UNL     1       4.023  -8.474   3.431  0.00  0.00    +0.017 A 
ATOM     13  C   UNL     1       4.366  -9.776   3.723  0.00  0.00    +0.001 A 
ATOM     14  C   UNL     1       5.053 -10.073   4.889  0.00  0.00    +0.004 A 
ATOM     15  C   UNL     1       5.401  -9.069   5.770  0.00  0.00    +0.046 A 
ATOM     16  C   UNL     1       5.070  -7.752   5.489  0.00  0.00    +0.129 A 
BRANCH  16  17
ATOM     17  O   UNL     1       5.417  -6.763   6.350  0.00  0.00    -0.506 OA
ATOM     18  H   UNL     1       4.753  -6.581   7.029  0.00  0.00    +0.292 HD
ENDBRANCH  16  17
ENDBRANCH   2  11
BRANCH   1  19
ATOM     19  C   UNL     1       2.346  -4.328   3.549  0.00  0.00    +0.197 C 
BRANCH  19  20
ATOM     20  C   UNL     1       1.223  -3.968   4.487  0.00  0.00    -0.018 A 
ATOM     21  C   UNL     1       1.389  -2.946   5.404  0.00  0.00    +0.009 A 
ATOM     22  C   UNL     1       0.361  -2.615   6.265  0.00  0.00    +0.046 A 
ATOM     23  C   UNL     1      -0.839  -3.309   6.210  0.00  0.00    +0.117 A 
ATOM     24  C   UNL     1      -1.004  -4.333   5.289  0.00  0.00    +0.046 A 
ATOM     25  C   UNL     1       0.026  -4.657   4.426  0.00  0.00    +0.009 A 
BRANCH  23  26
ATOM     26  O   UNL     1      -1.851  -2.985   7.056  0.00  0.00    -0.507 OA
ATOM     27  H   UNL     1      -2.453  -2.311   6.711  0.00  0.00    +0.292 HD
ENDBRANCH  23  26
ENDBRANCH  19  20
BRANCH  19  29
ATOM     28  N   UNL     1       1.497  -2.913   1.706  0.00  0.00    -0.313 N 
ATOM     29  C   UNL     1       1.894  -4.131   2.125  0.00  0.00    +0.238 C 
ATOM     30  O   UNL     1       1.887  -5.069   1.356  0.00  0.00    -0.273 OA
ATOM     31  H   UNL     1       1.502  -2.163   2.321  0.00  0.00    +0.149 HD
BRANCH  28  32
ATOM     32  C   UNL     1       1.057  -2.722   0.322  0.00  0.00    +0.104 C 
BRANCH  32  33
ATOM     33  C   UNL     1       0.663  -1.259   0.109  0.00  0.00    +0.018 C 
BRANCH  33  35
ATOM     34  C   UNL     1      -0.190   0.404  -1.549  0.00  0.00    +0.004 C 
ATOM     35  C   UNL     1       0.204  -1.059  -1.336  0.00  0.00    -0.002 C 
ENDBRANCH  33  35
ENDBRANCH  32  33
ENDBRANCH  28  32
ENDBRANCH  19  29
ENDBRANCH   1  19
TORSDOF 10
