REMARK  Name = ZINC45995855
REMARK  12 active torsions:
REMARK  status: ('A' for Active; 'I' for Inactive)
REMARK    1  A    between atoms: C_1  and  C_2
REMARK    2  A    between atoms: C_2  and  C_3
REMARK    3  A    between atoms: C_8  and  O_9
REMARK    4  A    between atoms: O_9  and  C_10
REMARK    5  A    between atoms: C_10  and  C_11
REMARK    6  A    between atoms: N_13  and  C_14
REMARK    7  A    between atoms: C_18  and  C_21
REMARK    8  A    between atoms: C_19  and  C_20
REMARK    9  A    between atoms: C_21  and  O_23
REMARK   10  A    between atoms: O_23  and  C_24
REMARK   11  A    between atoms: C_24  and  C_25
REMARK   12  A    between atoms: C_33  and  C_35
REMARK                            x       y       z     vdW  Elec       q    Type
REMARK                         _______ _______ _______ _____ _____    ______ ____
ROOT
ATOM      1  C   UNL     1      -1.045   0.120  -7.040  0.00  0.00    +0.037 A 
ATOM      2  C   UNL     1       0.251   0.618  -6.963  0.00  0.00    +0.023 A 
ATOM      3  C   UNL     1       0.787   1.331  -8.019  0.00  0.00    +0.003 A 
ATOM      4  C   UNL     1       0.039   1.553  -9.157  0.00  0.00    +0.015 A 
ATOM      5  C   UNL     1      -1.263   1.058  -9.245  0.00  0.00    +0.064 A 
ATOM      6  C   UNL     1      -1.802   0.333  -8.181  0.00  0.00    -0.015 A 
ATOM      7  C   UNL     1      -3.204  -0.211  -8.270  0.00  0.00    +0.046 C 
ENDROOT
BRANCH   1  10
ATOM      8  C   UNL     1      -0.764  -1.167  -5.058  0.00  0.00    +0.255 C 
ATOM      9  O   UNL     1       0.438  -1.131  -5.219  0.00  0.00    -0.272 OA
ATOM     10  N   UNL     1      -1.582  -0.601  -5.968  0.00  0.00    -0.282 N 
ATOM     11  H   UNL     1      -2.544  -0.694  -5.879  0.00  0.00    +0.155 HD
BRANCH   8  12
ATOM     12  C   UNL     1      -1.342  -1.843  -3.842  0.00  0.00    +0.324 C 
BRANCH  12  13
ATOM     13  O   UNL     1      -0.282  -2.360  -3.035  0.00  0.00    -0.482 OA
BRANCH  13  19
ATOM     14  C   UNL     1       0.344  -3.532  -1.062  0.00  0.00    -0.006 A 
ATOM     15  C   UNL     1      -0.017  -4.181   0.103  0.00  0.00    +0.007 A 
ATOM     16  C   UNL     1      -1.352  -4.312   0.438  0.00  0.00    +0.000 A 
ATOM     17  C   UNL     1      -2.330  -3.792  -0.391  0.00  0.00    +0.004 A 
ATOM     18  C   UNL     1      -1.974  -3.141  -1.556  0.00  0.00    +0.046 A 
ATOM     19  C   UNL     1      -0.635  -3.005  -1.892  0.00  0.00    +0.124 A 
BRANCH  14  21
ATOM     20  C   UNL     1       2.319  -2.038  -0.936  0.00  0.00    +0.009 C 
ATOM     21  C   UNL     1       1.799  -3.391  -1.427  0.00  0.00    +0.035 C 
ENDBRANCH  14  21
ENDBRANCH  13  19
ENDBRANCH  12  13
ENDBRANCH   8  12
ENDBRANCH   1  10
BRANCH   5  22
ATOM     22  C   UNL     1      -2.066   1.295 -10.462  0.00  0.00    +0.340 C 
ATOM     23  O   UNL     1      -3.237   0.974 -10.489  0.00  0.00    -0.245 OA
BRANCH  22  24
ATOM     24  O   UNL     1      -1.499   1.867 -11.542  0.00  0.00    -0.455 OA
BRANCH  24  25
ATOM     25  C   UNL     1      -2.335   2.066 -12.684  0.00  0.00    +0.288 C 
BRANCH  25  26
ATOM     26  C   UNL     1      -1.534   2.712 -13.786  0.00  0.00    +0.086 A 
ATOM     27  C   UNL     1      -1.304   2.030 -14.962  0.00  0.00    +0.100 A 
ATOM     28  C   UNL     1      -0.556   2.654 -15.971  0.00  0.00    +0.287 A 
ATOM     29  O   UNL     1      -0.333   2.080 -17.025  0.00  0.00    -0.265 OA
ATOM     30  N   UNL     1      -0.088   3.900 -15.755  0.00  0.00    -0.119 N 
ATOM     31  C   UNL     1      -0.343   4.531 -14.577  0.00  0.00    +0.177 A 
ATOM     32  N   UNL     1      -1.057   3.938 -13.625  0.00  0.00    -0.228 NA
ATOM     33  C   UNL     1       0.270   5.801 -14.650  0.00  0.00    +0.093 A 
ATOM     34  C   UNL     1       0.872   5.913 -15.848  0.00  0.00    +0.134 A 
ATOM     35  O   UNL     1       0.680   4.786 -16.547  0.00  0.00    -0.373 OA
ATOM     36  C   UNL     1       1.641   7.117 -16.329  0.00  0.00    +0.089 C 
ENDBRANCH  25  26
ENDBRANCH  24  25
ENDBRANCH  22  24
ENDBRANCH   5  22
TORSDOF 9
