REMARK  Name = ZINC37318494
REMARK  5 active torsions:
REMARK  status: ('A' for Active; 'I' for Inactive)
REMARK    1  A    between atoms: C_5  and  C_6
REMARK    2  A    between atoms: C_6  and  N_7
REMARK    3  A    between atoms: N_7  and  C_8
REMARK    4  A    between atoms: N_11  and  C_14
REMARK    5  A    between atoms: C_14  and  C_15
REMARK                            x       y       z     vdW  Elec       q    Type
REMARK                         _______ _______ _______ _____ _____    ______ ____
ROOT
ATOM      1  C   UNL     1      -2.795  -2.061  -1.366  0.00  0.00    -0.069 C 
ATOM      2  C   UNL     1      -3.981  -1.316  -0.748  0.00  0.00    -0.000 C 
ATOM      3  C   UNL     1      -5.222  -2.210  -0.799  0.00  0.00    +0.083 C 
ATOM      4  N   UNL     1      -5.516  -2.563  -2.194  0.00  0.00    -0.294 NA
ATOM      5  C   UNL     1      -4.410  -3.321  -2.794  0.00  0.00    +0.083 C 
ATOM      6  C   UNL     1      -3.146  -2.459  -2.803  0.00  0.00    -0.000 C 
ENDROOT
BRANCH   1   7
ATOM      7  N   UNL     1      -1.615  -1.186  -1.373  0.00  0.00    +0.386 N 
ATOM      8  H   UNL     1      -1.841  -0.322  -1.842  0.00  0.00    -0.085 HD
ATOM      9  H   UNL     1      -0.859  -1.645  -1.859  0.00  0.00    -0.085 HD
BRANCH   7  10
ATOM     10  C   UNL     1      -1.208  -0.902   0.009  0.00  0.00    -0.006 C 
BRANCH  10  15
ATOM     11  C   UNL     1      -0.016   1.341   0.009  0.00  0.00    +0.044 A 
ATOM     12  C   UNL     1       1.331   1.769  -0.001  0.00  0.00    +0.056 A 
ATOM     13  C   UNL     1       2.093   0.659  -0.014  0.00  0.00    +0.165 A 
ATOM     14  O   UNL     1       1.282  -0.411  -0.012  0.00  0.00    -0.456 OA
ATOM     15  C   UNL     1       0.002  -0.004   0.002  0.00  0.00    +0.090 A 
ATOM     16  I   UNL     1       4.187   0.611  -0.035  0.00  0.00    -0.001 I 
ENDBRANCH  10  15
ENDBRANCH   7  10
ENDBRANCH   1   7
BRANCH   4  17
ATOM     17  C   UNL     1      -6.779  -3.306  -2.294  0.00  0.00    +0.180 C 
BRANCH  17  18
ATOM     18  C   UNL     1      -7.172  -3.436  -3.743  0.00  0.00    +0.225 C 
ATOM     19  O   UNL     1      -6.469  -2.957  -4.607  0.00  0.00    -0.275 OA
ATOM     20  N   UNL     1      -8.304  -4.085  -4.079  0.00  0.00    -0.328 N 
ATOM     21  H   UNL     1      -8.867  -4.468  -3.388  0.00  0.00    +0.145 HD
ATOM     22  H   UNL     1      -8.557  -4.169  -5.011  0.00  0.00    +0.145 HD
ENDBRANCH  17  18
ENDBRANCH   4  17
TORSDOF 5
