REMARK  Name = ZINC20214586
REMARK  15 active torsions:
REMARK  status: ('A' for Active; 'I' for Inactive)
REMARK    1  A    between atoms: C_1  and  C_2
REMARK    2  A    between atoms: C_2  and  C_3
REMARK    3  A    between atoms: C_3  and  C_5
REMARK    4  A    between atoms: C_3  and  N_6
REMARK    5  A    between atoms: N_9  and  C_12
REMARK    6  A    between atoms: C_12  and  C_13
REMARK    7  A    between atoms: C_14  and  C_31
REMARK    8  A    between atoms: C_15  and  C_21
REMARK    9  A    between atoms: C_24  and  O_27
REMARK   10  A    between atoms: O_27  and  C_28
REMARK   11  A    between atoms: C_28  and  C_29
REMARK   12  A    between atoms: C_28  and  C_30
REMARK   13  A    between atoms: C_31  and  O_33
REMARK   14  A    between atoms: O_33  and  C_34
REMARK   15  A    between atoms: C_34  and  C_35
REMARK                            x       y       z     vdW  Elec       q    Type
REMARK                         _______ _______ _______ _____ _____    ______ ____
ROOT
ATOM      1  C   UNL     1      -2.463   2.051  -0.617  0.00  0.00    +0.038 C 
ATOM      2  C   UNL     1      -1.431   2.921  -0.556  0.00  0.00    +0.079 C 
ATOM      3  C   UNL     1      -1.713   4.311  -0.022  0.00  0.00    +0.144 C 
ATOM      4  N   UNL     1      -3.096   4.599   0.394  0.00  0.00    -0.288 N 
ATOM      5  C   UNL     1      -4.017   3.623   0.277  0.00  0.00    +0.304 C 
ATOM      6  O   UNL     1      -5.162   3.851   0.617  0.00  0.00    -0.252 OA
ATOM      7  N   UNL     1      -3.713   2.410  -0.202  0.00  0.00    -0.271 N 
ATOM      8  H   UNL     1      -3.356   5.593   0.788  0.00  0.00    +0.151 HD
ATOM      9  H   UNL     1      -4.538   1.684  -0.252  0.00  0.00    +0.156 HD
ENDROOT
BRANCH   3  10
ATOM     10  C   UNL     1      -0.813   4.544   1.165  0.00  0.00    -0.022 A 
ATOM     11  C   UNL     1      -1.152   4.024   2.400  0.00  0.00    +0.009 A 
ATOM     12  C   UNL     1      -0.327   4.231   3.488  0.00  0.00    +0.046 A 
ATOM     13  C   UNL     1       0.837   4.971   3.343  0.00  0.00    +0.121 A 
ATOM     14  C   UNL     1       1.172   5.497   2.104  0.00  0.00    +0.046 A 
ATOM     15  C   UNL     1       0.346   5.283   1.018  0.00  0.00    +0.009 A 
BRANCH  13  16
ATOM     16  O   UNL     1       1.648   5.181   4.413  0.00  0.00    -0.489 OA
BRANCH  16  17
ATOM     17  C   UNL     1       2.888   5.849   4.167  0.00  0.00    +0.167 C 
ATOM     18  C   UNL     1       2.665   7.362   4.190  0.00  0.00    +0.051 C 
ATOM     19  C   UNL     1       3.897   5.465   5.251  0.00  0.00    +0.051 C 
ENDBRANCH  16  17
ENDBRANCH  13  16
ENDBRANCH   3  10
BRANCH   2  20
ATOM     20  C   UNL     1      -0.134   2.549  -0.980  0.00  0.00    +0.339 C 
ATOM     21  O   UNL     1       0.707   2.235  -0.159  0.00  0.00    -0.245 OA
BRANCH  20  22
ATOM     22  O   UNL     1       0.168   2.538  -2.295  0.00  0.00    -0.462 OA
BRANCH  22  23
ATOM     23  C   UNL     1       1.495   2.146  -2.652  0.00  0.00    +0.229 C 
ATOM     24  C   UNL     1       1.649   2.194  -4.174  0.00  0.00    +0.048 C 
ENDBRANCH  22  23
ENDBRANCH  20  22
ENDBRANCH   2  20
BRANCH   1  25
ATOM     25  C   UNL     1      -2.228   0.660  -1.147  0.00  0.00    +0.135 C 
BRANCH  25  29
ATOM     26  N   UNL     1      -1.873  -2.541   1.586  0.00  0.00    +0.383 N 
ATOM     27  C   UNL     1      -2.855  -2.668   0.500  0.00  0.00    -0.063 C 
ATOM     28  C   UNL     1      -2.502  -1.687  -0.621  0.00  0.00    +0.066 C 
ATOM     29  N   UNL     1      -2.489  -0.319  -0.084  0.00  0.00    -0.300 NA
ATOM     30  C   UNL     1      -1.506  -0.192   1.001  0.00  0.00    +0.066 C 
ATOM     31  C   UNL     1      -1.859  -1.173   2.122  0.00  0.00    -0.063 C 
ATOM     32  H   UNL     1      -0.877  -2.753   1.169  0.00  0.00    -0.081 HD
BRANCH  26  33
ATOM     33  C   UNL     1      -2.133  -3.521   2.649  0.00  0.00    -0.072 C 
ATOM     34  C   UNL     1      -3.479  -3.212   3.308  0.00  0.00    -0.013 C 
BRANCH  33  36
ATOM     35  C   UNL     1       0.304  -3.872   3.069  0.00  0.00    +0.002 C 
ATOM     36  C   UNL     1      -1.022  -3.442   3.698  0.00  0.00    -0.019 C 
ENDBRANCH  33  36
ENDBRANCH  26  33
ENDBRANCH  25  29
ENDBRANCH   1  25
TORSDOF 10
