REMARK  Name = ZINC62815623
REMARK  6 active torsions:
REMARK  status: ('A' for Active; 'I' for Inactive)
REMARK    1  A    between atoms: C_1  and  C_2
REMARK    2  A    between atoms: C_2  and  C_3
REMARK    3  A    between atoms: C_3  and  C_5
REMARK    4  A    between atoms: C_3  and  N_6
REMARK    5  A    between atoms: C_12  and  C_14
REMARK    6  A    between atoms: C_18  and  C_22
REMARK                            x       y       z     vdW  Elec       q    Type
REMARK                         _______ _______ _______ _____ _____    ______ ____
ROOT
ATOM      1  N   UNL     1      -2.374   0.151  -0.442  0.00  0.00    +0.383 N 
ATOM      2  C   UNL     1      -3.785  -0.229  -0.589  0.00  0.00    -0.059 C 
ATOM      3  C   UNL     1      -4.255   0.098  -2.011  0.00  0.00    +0.089 C 
ATOM      4  N   UNL     1      -3.977   1.518  -2.279  0.00  0.00    -0.304 N 
ATOM      5  C   UNL     1      -2.623   2.023  -2.001  0.00  0.00    +0.089 C 
ATOM      6  C   UNL     1      -2.231   1.606  -0.580  0.00  0.00    -0.059 C 
ATOM      7  C   UNL     1      -4.934   2.332  -2.765  0.00  0.00    +0.231 C 
ATOM      8  O   UNL     1      -6.044   1.897  -2.988  0.00  0.00    -0.274 OA
ATOM      9  H   UNL     1      -1.829  -0.309  -1.154  0.00  0.00    -0.081 HD
ENDROOT
BRANCH   7  10
ATOM     10  C   UNL     1      -4.626   3.783  -3.032  0.00  0.00    +0.123 C 
ATOM     11  C   UNL     1      -4.510   4.533  -1.704  0.00  0.00    -0.054 C 
ATOM     12  N   UNL     1      -5.784   4.445  -0.979  0.00  0.00    +0.383 N 
ATOM     13  C   UNL     1      -6.849   5.062  -1.780  0.00  0.00    -0.061 C 
ATOM     14  C   UNL     1      -6.985   4.316  -3.109  0.00  0.00    +0.065 C 
ATOM     15  N   UNL     1      -5.707   4.374  -3.833  0.00  0.00    -0.309 NA
ATOM     16  C   UNL     1      -8.172   4.985  -1.015  0.00  0.00    -0.012 C 
ATOM     17  H   UNL     1      -6.008   3.475  -0.810  0.00  0.00    -0.085 HD
ATOM     18  H   UNL     1      -5.484   5.322  -4.098  0.00  0.00    +0.123 HD
ATOM     19  H   UNL     1      -5.703   4.929  -0.097  0.00  0.00    -0.085 HD
ENDBRANCH   7  10
BRANCH   1  20
ATOM     20  C   UNL     1      -1.894  -0.263   0.884  0.00  0.00    -0.072 C 
ATOM     21  C   UNL     1      -2.827   0.295   1.961  0.00  0.00    -0.013 C 
BRANCH  20  23
ATOM     22  C   UNL     1      -0.871  -2.343  -0.048  0.00  0.00    +0.002 C 
ATOM     23  C   UNL     1      -1.876  -1.790   0.966  0.00  0.00    -0.019 C 
ENDBRANCH  20  23
ENDBRANCH   1  20
TORSDOF 3
