REMARK  Name = ZINC50708981
REMARK  4 active torsions:
REMARK  status: ('A' for Active; 'I' for Inactive)
REMARK    1  A    between atoms: C_3  and  N_21
REMARK    2  A    between atoms: C_4  and  C_10
REMARK    3  A    between atoms: C_6  and  N_7
REMARK    4  A    between atoms: N_12  and  C_13
REMARK                            x       y       z     vdW  Elec       q    Type
REMARK                         _______ _______ _______ _____ _____    ______ ____
ROOT
ATOM      1  C   UNL     1       0.012   1.257   0.048  0.00  0.00    +0.034 A 
ATOM      2  C   UNL     1       1.168   2.010   0.031  0.00  0.00    +0.026 A 
ATOM      3  C   UNL     1       2.407   1.383   0.003  0.00  0.00    +0.037 A 
ATOM      4  C   UNL     1       2.476  -0.019  -0.007  0.00  0.00    +0.060 A 
ATOM      5  C   UNL     1       1.296  -0.768   0.012  0.00  0.00    +0.047 A 
ATOM      6  C   UNL     1       0.077  -0.128   0.039  0.00  0.00    +0.127 A 
ENDROOT
BRANCH   4   7
ATOM      7  C   UNL     1       3.784  -0.698  -0.037  0.00  0.00    +0.250 C 
ATOM      8  O   UNL     1       4.809  -0.047   0.042  0.00  0.00    -0.270 OA
ATOM      9  N   UNL     1       3.845  -2.039  -0.152  0.00  0.00    -0.280 N 
ATOM     10  H   UNL     1       3.034  -2.551  -0.297  0.00  0.00    +0.155 HD
BRANCH   9  11
ATOM     11  C   UNL     1       5.079  -2.693  -0.064  0.00  0.00    +0.049 A 
ATOM     12  C   UNL     1       6.130  -2.106   0.627  0.00  0.00    +0.039 A 
ATOM     13  C   UNL     1       7.347  -2.755   0.714  0.00  0.00    +0.020 A 
ATOM     14  C   UNL     1       7.518  -3.989   0.112  0.00  0.00    +0.016 A 
ATOM     15  C   UNL     1       6.474  -4.577  -0.576  0.00  0.00    +0.018 A 
ATOM     16  C   UNL     1       5.253  -3.936  -0.662  0.00  0.00    +0.039 A 
ATOM     17 BR   UNL     1       3.822  -4.744  -1.598  0.00  0.00    -0.048 Br
ATOM     18 BR   UNL     1       8.780  -1.955   1.654  0.00  0.00    -0.050 Br
ENDBRANCH   9  11
ENDBRANCH   4   7
BRANCH   6  19
ATOM     19  N   UNL     1      -1.172  -0.923   0.058  0.00  0.00    +0.056 N 
ATOM     20  O   UNL     1      -2.244  -0.364   0.082  0.00  0.00    -0.126 OA
ATOM     21  O   UNL     1      -1.119  -2.130   0.050  0.00  0.00    -0.126 OA
ENDBRANCH   6  19
BRANCH   3  22
ATOM     22  N   UNL     1       3.572   2.139  -0.016  0.00  0.00    -0.357 N 
ATOM     23  H   UNL     1       3.522   3.105  -0.085  0.00  0.00    +0.142 HD
ATOM     24  H   UNL     1       4.436   1.701   0.039  0.00  0.00    +0.142 HD
ENDBRANCH   3  22
TORSDOF 4
