REMARK  Name = ZINC38740189
REMARK  6 active torsions:
REMARK  status: ('A' for Active; 'I' for Inactive)
REMARK    1  A    between atoms: C_5  and  O_7
REMARK    2  A    between atoms: O_7  and  C_8
REMARK    3  A    between atoms: C_8  and  C_9
REMARK    4  A    between atoms: C_9  and  N_10
REMARK    5  A    between atoms: C_11  and  C_13
REMARK    6  A    between atoms: C_19  and  C_21
REMARK                            x       y       z     vdW  Elec       q    Type
REMARK                         _______ _______ _______ _____ _____    ______ ____
ROOT
ATOM      1  C   UNL     1       1.851  -6.416   3.038  0.00  0.00    +0.087 C 
ATOM      2  C   UNL     1       3.213  -5.728   3.152  0.00  0.00    +0.013 C 
ATOM      3  C   UNL     1       3.951  -5.834   1.816  0.00  0.00    +0.001 C 
ATOM      4  C   UNL     1       4.153  -7.308   1.461  0.00  0.00    +0.001 C 
ATOM      5  C   UNL     1       2.791  -7.996   1.347  0.00  0.00    +0.013 C 
ATOM      6  C   UNL     1       2.053  -7.890   2.683  0.00  0.00    +0.087 C 
ENDROOT
BRANCH   6   7
ATOM      7  C   UNL     1       0.711  -8.568   2.570  0.00  0.00    +0.219 C 
ATOM      8  O   UNL     1       0.203  -8.730   1.481  0.00  0.00    -0.275 OA
ATOM      9  N   UNL     1       0.076  -8.994   3.680  0.00  0.00    -0.298 N 
ATOM     10  C   UNL     1       0.624  -8.704   5.013  0.00  0.00    +0.126 C 
ATOM     11  C   UNL     1      -0.452  -7.990   5.840  0.00  0.00    +0.125 C 
ATOM     12  N   UNL     1      -1.704  -8.752   5.740  0.00  0.00    -0.314 N 
ATOM     13  C   UNL     1      -2.252  -9.041   4.407  0.00  0.00    +0.125 C 
ATOM     14  C   UNL     1      -1.179  -9.751   3.580  0.00  0.00    +0.126 C 
ATOM     15  C   UNL     1      -2.359  -9.191   6.885  0.00  0.00    +0.099 A 
ATOM     16  C   UNL     1      -1.902  -8.791   8.136  0.00  0.00    +0.042 A 
ATOM     17  C   UNL     1      -2.563  -9.235   9.267  0.00  0.00    +0.005 A 
ATOM     18  C   UNL     1      -3.663 -10.068   9.107  0.00  0.00    +0.018 A 
ATOM     19  C   UNL     1      -4.062 -10.425   7.835  0.00  0.00    +0.084 A 
ATOM     20  N   UNL     1      -3.415  -9.981   6.774  0.00  0.00    -0.350 N 
ATOM     21  H   UNL     1      -3.719 -10.244   5.891  0.00  0.00    +0.166 HD
ENDBRANCH   6   7
BRANCH   1  23
ATOM     22  N   UNL     1       0.734  -4.437   2.061  0.00  0.00    -0.312 N 
ATOM     23  C   UNL     1       1.038  -5.746   1.960  0.00  0.00    +0.217 C 
ATOM     24  O   UNL     1       0.658  -6.385   1.002  0.00  0.00    -0.275 OA
ATOM     25  H   UNL     1       1.039  -3.926   2.828  0.00  0.00    +0.149 HD
BRANCH  22  26
ATOM     26  C   UNL     1      -0.056  -3.785   1.014  0.00  0.00    +0.145 C 
BRANCH  26  27
ATOM     27  C   UNL     1      -0.257  -2.311   1.369  0.00  0.00    +0.248 C 
BRANCH  27  28
ATOM     28  O   UNL     1       1.006  -1.642   1.361  0.00  0.00    -0.489 OA
BRANCH  28  33
ATOM     29  C   UNL     1      -0.190   1.677   2.253  0.00  0.00    +0.004 A 
ATOM     30  C   UNL     1       0.998   2.385   2.264  0.00  0.00    +0.002 A 
ATOM     31  C   UNL     1       2.189   1.746   1.972  0.00  0.00    +0.023 A 
ATOM     32  C   UNL     1       2.195   0.397   1.670  0.00  0.00    +0.083 A 
ATOM     33  C   UNL     1       1.003  -0.316   1.659  0.00  0.00    +0.139 A 
ATOM     34  C   UNL     1      -0.190   0.329   1.951  0.00  0.00    +0.047 A 
ATOM     35 CL   UNL     1       3.690  -0.406   1.303  0.00  0.00    -0.080 Cl
ENDBRANCH  28  33
ENDBRANCH  27  28
ENDBRANCH  26  27
ENDBRANCH  22  26
ENDBRANCH   1  23
TORSDOF 6
