REMARK  Name = ZINC35921052
REMARK  9 active torsions:
REMARK  status: ('A' for Active; 'I' for Inactive)
REMARK    1  A    between atoms: C_1  and  N_2
REMARK    2  A    between atoms: N_2  and  C_3
REMARK    3  A    between atoms: N_2  and  C_4
REMARK    4  A    between atoms: C_4  and  C_5
REMARK    5  A    between atoms: C_5  and  N_6
REMARK    6  A    between atoms: C_12  and  C_14
REMARK    7  A    between atoms: C_17  and  C_20
REMARK    8  A    between atoms: N_24  and  C_28
REMARK    9  A    between atoms: C_28  and  C_29
REMARK                            x       y       z     vdW  Elec       q    Type
REMARK                         _______ _______ _______ _____ _____    ______ ____
ROOT
ATOM      1  C   UNL     1       6.818  -1.318  -5.213  0.00  0.00    +0.037 A 
ATOM      2  C   UNL     1       7.153  -0.030  -4.789  0.00  0.00    +0.013 A 
ATOM      3  C   UNL     1       8.444   0.417  -4.905  0.00  0.00    +0.009 A 
ATOM      4  C   UNL     1       9.427  -0.419  -5.449  0.00  0.00    -0.024 A 
ATOM      5  C   UNL     1       9.089  -1.710  -5.874  0.00  0.00    +0.009 A 
ATOM      6  C   UNL     1       7.799  -2.155  -5.752  0.00  0.00    +0.013 A 
ENDROOT
BRANCH   1  13
ATOM      7  N   UNL     1       2.502   0.240  -7.061  0.00  0.00    -0.301 NA
ATOM      8  C   UNL     1       3.917   0.606  -7.213  0.00  0.00    +0.103 C 
ATOM      9  C   UNL     1       4.643   0.386  -5.882  0.00  0.00    +0.123 C 
ATOM     10  N   UNL     1       4.402  -0.996  -5.441  0.00  0.00    -0.295 N 
ATOM     11  C   UNL     1       3.014  -1.480  -5.395  0.00  0.00    +0.123 C 
ATOM     12  C   UNL     1       2.351  -1.186  -6.745  0.00  0.00    +0.103 C 
ATOM     13  C   UNL     1       5.426  -1.798  -5.088  0.00  0.00    +0.247 C 
ATOM     14  O   UNL     1       5.204  -2.917  -4.665  0.00  0.00    -0.270 OA
BRANCH   7  15
ATOM     15  C   UNL     1       1.734   0.598  -8.262  0.00  0.00    +0.066 C 
BRANCH  15  16
ATOM     16  C   UNL     1       1.710   2.120  -8.417  0.00  0.00    -0.064 C 
BRANCH  16  18
ATOM     17  C   UNL     1      -0.462   2.082  -9.437  0.00  0.00    -0.097 C 
ATOM     18  N   UNL     1       0.942   2.477  -9.617  0.00  0.00    +0.377 N 
ATOM     19  C   UNL     1       1.018   3.928  -9.834  0.00  0.00    -0.097 C 
ATOM     20  H   UNL     1       1.326   1.997 -10.418  0.00  0.00    -0.083 HD
ENDBRANCH  16  18
ENDBRANCH  15  16
ENDBRANCH   7  15
ENDBRANCH   1  13
BRANCH   4  21
ATOM     21  C   UNL     1      10.811   0.059  -5.575  0.00  0.00    +0.028 C 
ATOM     22  C   UNL     1      11.226   1.131  -4.856  0.00  0.00    +0.080 C 
ATOM     23  C   UNL     1      12.498   1.885  -4.934  0.00  0.00    +0.261 C 
ATOM     24  O   UNL     1      13.373   1.584  -5.724  0.00  0.00    -0.269 OA
ATOM     25  N   UNL     1      12.634   2.902  -4.100  0.00  0.00    -0.224 N 
ATOM     26  C   UNL     1      11.661   3.232  -3.227  0.00  0.00    +0.286 C 
ATOM     27  O   UNL     1      11.654   4.134  -2.411  0.00  0.00    -0.262 OA
ATOM     28  S   UNL     1      10.384   2.029  -3.560  0.00  0.00    -0.026 S 
BRANCH  25  29
ATOM     29  C   UNL     1      13.870   3.688  -4.126  0.00  0.00    +0.152 C 
BRANCH  29  30
ATOM     30  C   UNL     1      13.720   4.827  -5.101  0.00  0.00    -0.029 A 
ATOM     31  C   UNL     1      14.071   4.651  -6.427  0.00  0.00    +0.008 A 
ATOM     32  C   UNL     1      13.934   5.694  -7.323  0.00  0.00    +0.038 A 
ATOM     33  C   UNL     1      13.445   6.916  -6.893  0.00  0.00    +0.123 A 
ATOM     34  C   UNL     1      13.094   7.091  -5.565  0.00  0.00    +0.038 A 
ATOM     35  C   UNL     1      13.227   6.045  -4.672  0.00  0.00    +0.008 A 
ATOM     36  F   UNL     1      13.312   7.937  -7.767  0.00  0.00    -0.205 F 
ENDBRANCH  29  30
ENDBRANCH  25  29
ENDBRANCH   4  21
TORSDOF 7
