REMARK  Name = ZINC59396415
REMARK  8 active torsions:
REMARK  status: ('A' for Active; 'I' for Inactive)
REMARK    1  A    between atoms: C_4  and  C_7
REMARK    2  A    between atoms: C_7  and  O_8
REMARK    3  A    between atoms: O_8  and  C_9
REMARK    4  A    between atoms: C_12  and  C_15
REMARK    5  A    between atoms: C_17  and  C_32
REMARK    6  A    between atoms: N_19  and  C_22
REMARK    7  A    between atoms: C_25  and  S_28
REMARK    8  A    between atoms: S_28  and  N_31
REMARK                            x       y       z     vdW  Elec       q    Type
REMARK                         _______ _______ _______ _____ _____    ______ ____
ROOT
ATOM      1  C   UNL     1      10.212  -1.509   3.563  0.00  0.00    +0.023 C 
ATOM      2  C   UNL     1      10.084  -2.819   3.991  0.00  0.00    +0.071 C 
ATOM      3  C   UNL     1       8.880  -3.474   4.524  0.00  0.00    +0.174 C 
ATOM      4  N   UNL     1       9.194  -4.702   4.804  0.00  0.00    -0.167 NA
ATOM      5  N   UNL     1      10.531  -4.966   4.509  0.00  0.00    -0.156 N 
ATOM      6  C   UNL     1      11.122  -3.864   4.006  0.00  0.00    +0.272 C 
ATOM      7  O   UNL     1      12.280  -3.753   3.641  0.00  0.00    -0.268 OA
ENDROOT
BRANCH   1  11
ATOM      8  C   UNL     1       7.668   1.482   5.126  0.00  0.00    +0.121 A 
ATOM      9  C   UNL     1       8.152   1.593   3.826  0.00  0.00    +0.046 A 
ATOM     10  C   UNL     1       8.974   0.630   3.315  0.00  0.00    +0.011 A 
ATOM     11  C   UNL     1       9.332  -0.474   4.104  0.00  0.00    -0.024 A 
ATOM     12  C   UNL     1       8.841  -0.581   5.414  0.00  0.00    +0.011 A 
ATOM     13  C   UNL     1       8.023   0.392   5.915  0.00  0.00    +0.046 A 
BRANCH   8  14
ATOM     14  O   UNL     1       6.852   2.442   5.628  0.00  0.00    -0.487 OA
BRANCH  14  15
ATOM     15  C   UNL     1       6.527   3.533   4.764  0.00  0.00    +0.264 C 
BRANCH  15  19
ATOM     16  C   UNL     1       3.950   6.254   6.814  0.00  0.00    +0.000 A 
ATOM     17  C   UNL     1       5.321   6.415   6.885  0.00  0.00    +0.000 A 
ATOM     18  C   UNL     1       6.155   5.534   6.221  0.00  0.00    +0.007 A 
ATOM     19  C   UNL     1       5.618   4.493   5.488  0.00  0.00    -0.010 A 
ATOM     20  C   UNL     1       4.247   4.332   5.418  0.00  0.00    +0.007 A 
ATOM     21  C   UNL     1       3.413   5.213   6.080  0.00  0.00    +0.000 A 
ENDBRANCH  15  19
ENDBRANCH  14  15
ENDBRANCH   8  14
ENDBRANCH   1  11
BRANCH   5  22
ATOM     22  C   UNL     1      11.166  -6.200   4.701  0.00  0.00    +0.060 A 
ATOM     23  C   UNL     1      12.508  -6.350   4.376  0.00  0.00    +0.027 A 
ATOM     24  C   UNL     1      13.131  -7.567   4.567  0.00  0.00    +0.030 A 
ATOM     25  C   UNL     1      12.420  -8.637   5.080  0.00  0.00    +0.105 A 
ATOM     26  C   UNL     1      11.084  -8.491   5.404  0.00  0.00    +0.030 A 
ATOM     27  C   UNL     1      10.456  -7.274   5.221  0.00  0.00    +0.027 A 
BRANCH  25  28
ATOM     28  S   UNL     1      13.219 -10.189   5.321  0.00  0.00    +0.056 S 
ATOM     29  O   UNL     1      12.198 -11.178   5.301  0.00  0.00    -0.153 OA
ATOM     30  O   UNL     1      14.326 -10.218   4.430  0.00  0.00    -0.153 OA
BRANCH  28  31
ATOM     31  N   UNL     1      13.844 -10.185   6.854  0.00  0.00    -0.204 NA
ATOM     32  H   UNL     1      13.727  -9.409   7.423  0.00  0.00    +0.144 HD
ATOM     33  H   UNL     1      14.328 -10.959   7.182  0.00  0.00    +0.144 HD
ENDBRANCH  28  31
ENDBRANCH  25  28
ENDBRANCH   5  22
BRANCH   3  34
ATOM     34  C   UNL     1       7.528  -2.836   4.713  0.00  0.00    +0.436 C 
ATOM     35  F   UNL     1       7.333  -2.549   6.068  0.00  0.00    -0.164 F 
ATOM     36  F   UNL     1       7.465  -1.651   3.971  0.00  0.00    -0.164 F 
ATOM     37  F   UNL     1       6.532  -3.714   4.274  0.00  0.00    -0.164 F 
ENDBRANCH   3  34
TORSDOF 8
