REMARK  Name = ZINC09521045
REMARK  10 active torsions:
REMARK  status: ('A' for Active; 'I' for Inactive)
REMARK    1  A    between atoms: C_1  and  C_2
REMARK    2  A    between atoms: C_2  and  C_3
REMARK    3  A    between atoms: C_2  and  C_4
REMARK    4  A    between atoms: C_2  and  N_5
REMARK    5  A    between atoms: C_10  and  O_26
REMARK    6  A    between atoms: C_12  and  S_14
REMARK    7  A    between atoms: S_14  and  C_15
REMARK    8  A    between atoms: C_15  and  C_16
REMARK    9  A    between atoms: N_18  and  C_19
REMARK   10  A    between atoms: C_19  and  C_20
REMARK                            x       y       z     vdW  Elec       q    Type
REMARK                         _______ _______ _______ _____ _____    ______ ____
ROOT
ATOM      1  N   UNL     1       9.929   8.992  -2.335  0.00  0.00    -0.241 N 
ATOM      2  C   UNL     1       9.030   8.026  -1.994  0.00  0.00    +0.167 A 
ATOM      3  C   UNL     1       9.775   6.956  -1.459  0.00  0.00    +0.100 A 
ATOM      4  C   UNL     1      11.134   7.337  -1.502  0.00  0.00    +0.149 A 
ATOM      5  N   UNL     1      11.212   8.531  -2.016  0.00  0.00    -0.176 NA
ATOM      6  C   UNL     1       9.084   5.811  -1.021  0.00  0.00    +0.227 A 
ATOM      7  N   UNL     1       7.763   5.788  -1.132  0.00  0.00    -0.187 NA
ATOM      8  C   UNL     1       7.098   6.819  -1.643  0.00  0.00    +0.194 A 
ATOM      9  N   UNL     1       7.706   7.913  -2.071  0.00  0.00    -0.202 NA
ENDROOT
BRANCH   1  11
ATOM     10  C   UNL     1       8.691  11.073  -1.990  0.00  0.00    +0.036 C 
ATOM     11  C   UNL     1       9.608  10.291  -2.932  0.00  0.00    +0.058 C 
ATOM     12  C   UNL     1      10.898  11.081  -3.160  0.00  0.00    +0.036 C 
ATOM     13  C   UNL     1       8.899  10.076  -4.271  0.00  0.00    +0.036 C 
ENDBRANCH   1  11
BRANCH   6  14
ATOM     14  O   UNL     1       9.752   4.757  -0.499  0.00  0.00    -0.492 OA
ATOM     15  H   UNL     1      10.020   4.097  -1.154  0.00  0.00    +0.294 HD
ENDBRANCH   6  14
BRANCH   8  16
ATOM     16  S   UNL     1       5.343   6.722  -1.761  0.00  0.00    -0.077 S 
BRANCH  16  17
ATOM     17  C   UNL     1       5.071   5.073  -1.066  0.00  0.00    +0.173 C 
BRANCH  17  18
ATOM     18  C   UNL     1       3.596   4.764  -1.066  0.00  0.00    +0.223 C 
ATOM     19  O   UNL     1       2.806   5.579  -1.494  0.00  0.00    -0.275 OA
ATOM     20  N   UNL     1       3.155   3.583  -0.590  0.00  0.00    -0.312 N 
ATOM     21  H   UNL     1       3.787   2.932  -0.247  0.00  0.00    +0.149 HD
BRANCH  20  22
ATOM     22  C   UNL     1       1.721   3.283  -0.590  0.00  0.00    +0.135 C 
BRANCH  22  23
ATOM     23  C   UNL     1       1.492   1.889  -0.002  0.00  0.00    +0.135 C 
ATOM     24  C   UNL     1      -0.019   1.544   0.011  0.00  0.00    +0.035 C 
ATOM     25  C   UNL     1       0.002  -0.004   0.002  0.00  0.00    +0.031 C 
ATOM     26  C   UNL     1       1.398  -0.360  -0.546  0.00  0.00    +0.160 C 
ATOM     27  O   UNL     1       2.062   0.876  -0.858  0.00  0.00    -0.375 OA
ENDBRANCH  22  23
ENDBRANCH  20  22
ENDBRANCH  17  18
ENDBRANCH  16  17
ENDBRANCH   8  16
TORSDOF 7
