REMARK  Name = ZINC26458630
REMARK  6 active torsions:
REMARK  status: ('A' for Active; 'I' for Inactive)
REMARK    1  A    between atoms: C_1  and  C_2
REMARK    2  A    between atoms: C_2  and  C_3
REMARK    3  A    between atoms: C_3  and  N_4
REMARK    4  A    between atoms: C_8  and  C_9
REMARK    5  A    between atoms: C_10  and  N_20
REMARK    6  A    between atoms: N_23  and  C_26
REMARK                            x       y       z     vdW  Elec       q    Type
REMARK                         _______ _______ _______ _____ _____    ______ ____
ROOT
ATOM      1  C   UNL     1       3.281   3.021   4.257  0.00  0.00    +0.081 A 
ATOM      2  C   UNL     1       4.241   3.733   5.014  0.00  0.00    +0.136 A 
ATOM      3  N   UNL     1       4.569   4.967   4.659  0.00  0.00    -0.214 NA
ATOM      4  C   UNL     1       4.011   5.563   3.606  0.00  0.00    +0.142 A 
ATOM      5  C   UNL     1       4.395   6.876   3.279  0.00  0.00    +0.047 A 
ATOM      6  C   UNL     1       3.829   7.495   2.204  0.00  0.00    +0.005 A 
ATOM      7  C   UNL     1       2.872   6.814   1.439  0.00  0.00    +0.018 A 
ATOM      8  C   UNL     1       2.513   5.553   1.768  0.00  0.00    +0.096 A 
ATOM      9  N   UNL     1       3.074   4.925   2.841  0.00  0.00    -0.268 N 
ATOM     10  C   UNL     1       2.694   3.665   3.142  0.00  0.00    +0.267 A 
ATOM     11  O   UNL     1       1.859   3.091   2.464  0.00  0.00    -0.267 OA
ENDROOT
BRANCH   1  16
ATOM     12  N   UNL     1      -0.581   1.834   5.702  0.00  0.00    -0.255 N 
ATOM     13  C   UNL     1       0.563   2.336   5.272  0.00  0.00    +0.258 C 
ATOM     14  O   UNL     1       0.687   3.532   5.074  0.00  0.00    -0.269 OA
ATOM     15  C   UNL     1       1.647   1.440   5.046  0.00  0.00    +0.077 C 
ATOM     16  C   UNL     1       2.913   1.702   4.609  0.00  0.00    +0.037 C 
ATOM     17  S   UNL     1       0.898  -0.121   5.492  0.00  0.00    -0.061 S 
ATOM     18  C   UNL     1      -0.717   0.508   5.928  0.00  0.00    +0.121 C 
ATOM     19  S   UNL     1      -2.088  -0.351   6.487  0.00  0.00    -0.027 S 
BRANCH  12  20
ATOM     20  C   UNL     1      -1.716   2.727   5.945  0.00  0.00    +0.115 C 
BRANCH  20  22
ATOM     21  C   UNL     1      -3.731   3.791   4.918  0.00  0.00    +0.005 C 
ATOM     22  C   UNL     1      -2.545   2.857   4.665  0.00  0.00    +0.016 C 
ENDBRANCH  20  22
ENDBRANCH  12  20
ENDBRANCH   1  16
BRANCH   2  23
ATOM     23  N   UNL     1       4.834   3.146   6.111  0.00  0.00    -0.318 N 
ATOM     24  C   UNL     1       3.850   2.906   7.176  0.00  0.00    +0.088 C 
ATOM     25  C   UNL     1       4.529   2.183   8.341  0.00  0.00    -0.060 C 
ATOM     26  N   UNL     1       5.647   2.999   8.835  0.00  0.00    +0.380 N 
ATOM     27  C   UNL     1       6.631   3.239   7.771  0.00  0.00    -0.060 C 
ATOM     28  C   UNL     1       5.952   3.962   6.605  0.00  0.00    +0.088 C 
ATOM     29  C   UNL     1       6.279   2.373  10.005  0.00  0.00    -0.096 C 
ATOM     30  H   UNL     1       5.244   3.973   9.151  0.00  0.00    -0.082 HD
ENDBRANCH   2  23
TORSDOF 4
