REMARK  Name = ZINC34732715
REMARK  7 active torsions:
REMARK  status: ('A' for Active; 'I' for Inactive)
REMARK    1  A    between atoms: C_1  and  N_2
REMARK    2  A    between atoms: N_2  and  C_3
REMARK    3  A    between atoms: C_3  and  C_4
REMARK    4  A    between atoms: C_9  and  C_11
REMARK    5  A    between atoms: C_14  and  C_29
REMARK    6  A    between atoms: N_21  and  C_22
REMARK    7  A    between atoms: C_22  and  C_23
REMARK                            x       y       z     vdW  Elec       q    Type
REMARK                         _______ _______ _______ _____ _____    ______ ____
ROOT
ATOM      1  C   UNL     1       0.056   0.350  -2.294  0.00  0.00    +0.093 C 
ATOM      2  C   UNL     1      -0.185  -0.531  -3.522  0.00  0.00    +0.024 C 
ATOM      3  C   UNL     1      -1.511  -1.279  -3.362  0.00  0.00    +0.037 C 
ATOM      4  C   UNL     1      -2.655  -0.267  -3.262  0.00  0.00    +0.117 C 
ATOM      5  N   UNL     1      -2.360   0.675  -2.174  0.00  0.00    -0.284 N 
ATOM      6  C   UNL     1      -1.071   1.382  -2.181  0.00  0.00    +0.122 C 
ATOM      7  C   UNL     1      -3.253   0.887  -1.187  0.00  0.00    +0.302 C 
ATOM      8  O   UNL     1      -3.042   1.742  -0.349  0.00  0.00    -0.253 OA
ATOM      9  N   UNL     1      -4.381   0.152  -1.130  0.00  0.00    -0.295 N 
ATOM     10  H   UNL     1      -4.515  -0.581  -1.752  0.00  0.00    +0.151 HD
ENDROOT
BRANCH   3  11
ATOM     11  C   UNL     1      -1.731  -2.172  -4.556  0.00  0.00    -0.043 A 
ATOM     12  C   UNL     1      -1.802  -1.626  -5.824  0.00  0.00    +0.004 A 
ATOM     13  C   UNL     1      -2.004  -2.444  -6.919  0.00  0.00    +0.000 A 
ATOM     14  C   UNL     1      -2.135  -3.810  -6.747  0.00  0.00    +0.000 A 
ATOM     15  C   UNL     1      -2.063  -4.356  -5.479  0.00  0.00    +0.000 A 
ATOM     16  C   UNL     1      -1.857  -3.538  -4.384  0.00  0.00    +0.004 A 
ENDBRANCH   3  11
BRANCH   1  19
ATOM     17  C   UNL     1       2.471  -0.825  -1.385  0.00  0.00    +0.132 C 
ATOM     18  N   UNL     1       1.224  -1.099  -0.666  0.00  0.00    -0.297 N 
ATOM     19  C   UNL     1       0.078  -0.508  -1.055  0.00  0.00    +0.220 C 
ATOM     20  O   UNL     1      -0.936  -0.666  -0.409  0.00  0.00    -0.275 OA
BRANCH  18  21
ATOM     21  C   UNL     1       1.224  -2.017   0.476  0.00  0.00    +0.181 C 
BRANCH  21  22
ATOM     22  C   UNL     1       1.437  -1.236   1.748  0.00  0.00    +0.122 A 
ATOM     23  C   UNL     1       0.475  -0.647   2.480  0.00  0.00    +0.046 A 
ATOM     24  C   UNL     1       1.116  -0.031   3.579  0.00  0.00    +0.041 A 
ATOM     25  C   UNL     1       2.432  -0.280   3.453  0.00  0.00    +0.195 A 
ATOM     26  O   UNL     1       2.620  -1.015   2.345  0.00  0.00    -0.466 OA
ENDBRANCH  21  22
ENDBRANCH  18  21
ENDBRANCH   1  19
BRANCH   9  27
ATOM     27  C   UNL     1      -5.407   0.461  -0.130  0.00  0.00    +0.141 C 
BRANCH  27  28
ATOM     28  C   UNL     1      -6.502  -0.572  -0.200  0.00  0.00    -0.030 A 
ATOM     29  C   UNL     1      -7.533  -0.427  -1.110  0.00  0.00    +0.005 A 
ATOM     30  C   UNL     1      -8.537  -1.374  -1.173  0.00  0.00    +0.000 A 
ATOM     31  C   UNL     1      -8.512  -2.467  -0.327  0.00  0.00    +0.000 A 
ATOM     32  C   UNL     1      -7.481  -2.612   0.583  0.00  0.00    +0.000 A 
ATOM     33  C   UNL     1      -6.474  -1.667   0.643  0.00  0.00    +0.005 A 
ENDBRANCH  27  28
ENDBRANCH   9  27
TORSDOF 6
