REMARK  Name = ZINC04799122
REMARK  12 active torsions:
REMARK  status: ('A' for Active; 'I' for Inactive)
REMARK    1  A    between atoms: C_1  and  C_2
REMARK    2  A    between atoms: C_2  and  C_3
REMARK    3  A    between atoms: C_2  and  C_4
REMARK    4  A    between atoms: C_4  and  C_6
REMARK    5  A    between atoms: C_4  and  N_58
REMARK    6  A    between atoms: C_7  and  C_8
REMARK    7  A    between atoms: C_7  and  N_58
REMARK    8  A    between atoms: C_12  and  N_14
REMARK    9  A    between atoms: C_17  and  C_18
REMARK   10  A    between atoms: C_17  and  N_58
REMARK   11  A    between atoms: N_22  and  C_23
REMARK   12  A    between atoms: C_23  and  C_24
REMARK                            x       y       z     vdW  Elec       q    Type
REMARK                         _______ _______ _______ _____ _____    ______ ____
ROOT
ATOM      1  N   UNL     1      -0.504   7.037  -1.937  0.00  0.00    +0.388 N 
ATOM      2  H   UNL     1      -1.249   6.486  -2.379  0.00  0.00    -0.080 HD
ENDROOT
BRANCH   1   3
ATOM      3  C   UNL     1       0.724   6.218  -1.867  0.00  0.00    -0.068 C 
ATOM      4  C   UNL     1       0.352   4.817  -1.376  0.00  0.00    -0.013 C 
BRANCH   3   6
ATOM      5  C   UNL     1       0.233   6.017  -4.309  0.00  0.00    +0.005 C 
ATOM      6  C   UNL     1       1.345   6.121  -3.262  0.00  0.00    -0.031 C 
ATOM      7  C   UNL     1       2.185   7.370  -3.534  0.00  0.00    +0.005 C 
ENDBRANCH   3   6
ENDBRANCH   1   3
BRANCH   1   8
ATOM      8  C   UNL     1      -0.934   7.421  -0.576  0.00  0.00    -0.042 C 
BRANCH   8   9
ATOM      9  C   UNL     1      -1.649   6.252   0.051  0.00  0.00    -0.062 A 
ATOM     10  C   UNL     1      -1.231   5.761   1.274  0.00  0.00    +0.002 A 
ATOM     11  C   UNL     1      -1.887   4.689   1.849  0.00  0.00    +0.002 A 
ATOM     12  C   UNL     1      -2.961   4.107   1.202  0.00  0.00    +0.033 A 
ATOM     13  C   UNL     1      -3.375   4.594  -0.024  0.00  0.00    +0.126 A 
ATOM     14  C   UNL     1      -2.722   5.670  -0.597  0.00  0.00    +0.034 A 
BRANCH  13  15
ATOM     15  N   UNL     1      -4.521   3.967  -0.721  0.00  0.00    +0.056 N 
ATOM     16  O   UNL     1      -5.098   3.022  -0.214  0.00  0.00    -0.126 OA
ATOM     17  O   UNL     1      -4.885   4.396  -1.801  0.00  0.00    -0.126 OA
ENDBRANCH  13  15
ENDBRANCH   8   9
ENDBRANCH   1   8
BRANCH   1  18
ATOM     18  C   UNL     1      -0.257   8.248  -2.748  0.00  0.00    -0.024 C 
BRANCH  18  19
ATOM     19  C   UNL     1      -1.564   8.970  -2.955  0.00  0.00    +0.003 A 
ATOM     20  C   UNL     1      -2.785   8.399  -2.996  0.00  0.00    +0.021 A 
ATOM     21  C   UNL     1      -3.725   9.427  -3.207  0.00  0.00    +0.019 A 
ATOM     22  C   UNL     1      -3.043  10.587  -3.287  0.00  0.00    +0.086 A 
ATOM     23  N   UNL     1      -1.716  10.314  -3.127  0.00  0.00    -0.348 N 
BRANCH  23  24
ATOM     24  C   UNL     1      -0.634  11.301  -3.142  0.00  0.00    +0.156 C 
BRANCH  24  25
ATOM     25  C   UNL     1      -0.077  11.415  -4.537  0.00  0.00    -0.028 A 
ATOM     26  C   UNL     1       0.932  10.565  -4.950  0.00  0.00    +0.008 A 
ATOM     27  C   UNL     1       1.440  10.666  -6.231  0.00  0.00    +0.038 A 
ATOM     28  C   UNL     1       0.945  11.625  -7.098  0.00  0.00    +0.123 A 
ATOM     29  C   UNL     1      -0.062  12.479  -6.682  0.00  0.00    +0.038 A 
ATOM     30  C   UNL     1      -0.572  12.373  -5.402  0.00  0.00    +0.008 A 
ATOM     31  F   UNL     1       1.444  11.728  -8.350  0.00  0.00    -0.205 F 
ENDBRANCH  24  25
ENDBRANCH  23  24
ENDBRANCH  18  19
ENDBRANCH   1  18
TORSDOF 9
