REMARK  Name = ZINC08384611
REMARK  10 active torsions:
REMARK  status: ('A' for Active; 'I' for Inactive)
REMARK    1  A    between atoms: C_1  and  C_2
REMARK    2  A    between atoms: C_2  and  C_3
REMARK    3  A    between atoms: C_3  and  C_5
REMARK    4  A    between atoms: C_3  and  O_24
REMARK    5  A    between atoms: N_7  and  N_8
REMARK    6  A    between atoms: C_9  and  C_10
REMARK    7  A    between atoms: C_19  and  O_20
REMARK    8  A    between atoms: O_20  and  C_21
REMARK    9  A    between atoms: C_21  and  C_22
REMARK   10  A    between atoms: O_24  and  C_25
REMARK                            x       y       z     vdW  Elec       q    Type
REMARK                         _______ _______ _______ _____ _____    ______ ____
ROOT
ATOM      1  C   UNL     1       0.249   9.603   0.444  0.00  0.00    +0.273 C 
ATOM      2  O   UNL     1      -0.855  10.033   0.710  0.00  0.00    -0.270 OA
ATOM      3  N   UNL     1       0.399   8.317   0.069  0.00  0.00    -0.204 N 
ATOM      4  H   UNL     1       1.287   7.954  -0.072  0.00  0.00    +0.177 HD
ENDROOT
BRANCH   3   5
ATOM      5  N   UNL     1      -0.728   7.505  -0.117  0.00  0.00    -0.187 NA
ATOM      6  C   UNL     1      -0.581   6.241  -0.378  0.00  0.00    +0.142 C 
BRANCH   6   7
ATOM      7  C   UNL     1       0.756   5.631  -0.334  0.00  0.00    +0.044 A 
ATOM      8  C   UNL     1       1.299   4.937  -1.500  0.00  0.00    -0.006 A 
ATOM      9  C   UNL     1       0.570   4.829  -2.691  0.00  0.00    +0.009 A 
ATOM     10  C   UNL     1       1.115   4.178  -3.758  0.00  0.00    +0.001 A 
ATOM     11  C   UNL     1       2.383   3.609  -3.676  0.00  0.00    +0.001 A 
ATOM     12  C   UNL     1       3.119   3.696  -2.534  0.00  0.00    +0.008 A 
ATOM     13  C   UNL     1       2.591   4.364  -1.416  0.00  0.00    -0.017 A 
ATOM     14  C   UNL     1       3.321   4.473  -0.219  0.00  0.00    +0.012 A 
ATOM     15  C   UNL     1       2.801   5.123   0.856  0.00  0.00    +0.047 A 
ATOM     16  C   UNL     1       1.534   5.703   0.821  0.00  0.00    +0.130 A 
BRANCH  16  17
ATOM     17  O   UNL     1       1.054   6.341   1.919  0.00  0.00    -0.487 OA
BRANCH  17  18
ATOM     18  C   UNL     1       1.932   6.451   3.041  0.00  0.00    +0.256 C 
BRANCH  18  19
ATOM     19  C   UNL     1       1.195   7.079   4.196  0.00  0.00    +0.006 C 
ATOM     20  C   UNL     1       1.259   6.537   5.386  0.00  0.00    +0.007 C 
ENDBRANCH  18  19
ENDBRANCH  17  18
ENDBRANCH  16  17
ENDBRANCH   6   7
ENDBRANCH   3   5
BRANCH   1  21
ATOM     21  C   UNL     1       1.451  10.508   0.533  0.00  0.00    +0.260 C 
BRANCH  21  23
ATOM     22  C   UNL     1       3.664  10.853   1.639  0.00  0.00    +0.008 C 
ATOM     23  C   UNL     1       2.407   9.981   1.605  0.00  0.00    +0.051 C 
ENDBRANCH  21  23
BRANCH  21  24
ATOM     24  O   UNL     1       1.028  11.829   0.878  0.00  0.00    -0.478 OA
BRANCH  24  25
ATOM     25  C   UNL     1       0.625  12.633  -0.140  0.00  0.00    +0.136 A 
ATOM     26  C   UNL     1       0.527  12.113  -1.434  0.00  0.00    +0.047 A 
ATOM     27  C   UNL     1       0.121  12.892  -2.472  0.00  0.00    +0.012 A 
ATOM     28  C   UNL     1      -0.195  14.243  -2.248  0.00  0.00    -0.017 A 
ATOM     29  C   UNL     1      -0.613  15.077  -3.300  0.00  0.00    +0.008 A 
ATOM     30  C   UNL     1      -0.910  16.381  -3.047  0.00  0.00    +0.001 A 
ATOM     31  C   UNL     1      -0.808  16.904  -1.760  0.00  0.00    +0.001 A 
ATOM     32  C   UNL     1      -0.407  16.127  -0.717  0.00  0.00    +0.010 A 
ATOM     33  C   UNL     1      -0.090  14.775  -0.939  0.00  0.00    -0.000 A 
ATOM     34  C   UNL     1       0.327  13.943   0.113  0.00  0.00    +0.067 A 
ATOM     35 BR   UNL     1       0.474  14.630   1.869  0.00  0.00    -0.046 Br
ENDBRANCH  24  25
ENDBRANCH  21  24
ENDBRANCH   1  21
TORSDOF 9
