REMARK  Name = ZINC09763916
REMARK  10 active torsions:
REMARK  status: ('A' for Active; 'I' for Inactive)
REMARK    1  A    between atoms: C_1  and  C_2
REMARK    2  A    between atoms: C_5  and  C_29
REMARK    3  A    between atoms: C_6  and  N_8
REMARK    4  A    between atoms: N_8  and  C_9
REMARK    5  A    between atoms: C_9  and  C_10
REMARK    6  A    between atoms: C_10  and  N_11
REMARK    7  A    between atoms: C_12  and  C_28
REMARK    8  A    between atoms: C_13  and  C_27
REMARK    9  A    between atoms: N_21  and  C_26
REMARK   10  A    between atoms: N_24  and  C_25
REMARK                            x       y       z     vdW  Elec       q    Type
REMARK                         _______ _______ _______ _____ _____    ______ ____
ROOT
ATOM      1  N   UNL     1      -0.964   3.264   6.729  0.00  0.00    -0.312 N 
ATOM      2  C   UNL     1       0.402   3.073   6.818  0.00  0.00    +0.038 A 
ATOM      3  C   UNL     1       0.839   2.647   5.637  0.00  0.00    +0.043 A 
ATOM      4  N   UNL     1      -0.243   2.560   4.777  0.00  0.00    -0.275 N 
ATOM      5  C   UNL     1      -1.351   2.942   5.455  0.00  0.00    +0.218 A 
ATOM      6  N   UNL     1      -2.402   2.867   4.651  0.00  0.00    -0.193 NA
ATOM      7  C   UNL     1      -2.024   2.444   3.448  0.00  0.00    +0.170 A 
ATOM      8  C   UNL     1      -0.646   2.236   3.491  0.00  0.00    +0.157 A 
ATOM      9  C   UNL     1       0.014   1.783   2.337  0.00  0.00    +0.283 A 
ATOM     10  O   UNL     1       1.218   1.594   2.350  0.00  0.00    -0.265 OA
ATOM     11  N   UNL     1      -0.698   1.558   1.213  0.00  0.00    -0.262 N 
ATOM     12  C   UNL     1      -2.026   1.766   1.180  0.00  0.00    +0.333 A 
ATOM     13  O   UNL     1      -2.633   1.557   0.147  0.00  0.00    -0.246 OA
ATOM     14  N   UNL     1      -2.701   2.195   2.264  0.00  0.00    -0.280 N 
ATOM     15  C   UNL     1      -4.149   2.404   2.189  0.00  0.00    +0.155 C 
ATOM     16  C   UNL     1      -0.013   1.086   0.008  0.00  0.00    +0.157 C 
ATOM     17  C   UNL     1       2.267   2.314   5.292  0.00  0.00    +0.066 C 
ATOM     18  C   UNL     1       1.249   3.308   8.042  0.00  0.00    +0.065 C 
ENDROOT
BRANCH   1  19
ATOM     19  C   UNL     1      -1.842   3.730   7.805  0.00  0.00    +0.143 C 
BRANCH  19  20
ATOM     20  C   UNL     1      -1.930   5.257   7.768  0.00  0.00    +0.123 C 
BRANCH  20  21
ATOM     21  N   UNL     1      -2.808   5.722   8.844  0.00  0.00    -0.342 N 
ATOM     22  H   UNL     1      -3.226   5.081   9.440  0.00  0.00    +0.146 HD
BRANCH  21  28
ATOM     23  C   UNL     1      -2.034  10.356   7.401  0.00  0.00    +0.044 C 
ATOM     24  C   UNL     1      -2.682   9.358   8.326  0.00  0.00    -0.049 A 
ATOM     25  C   UNL     1      -3.512   9.796   9.342  0.00  0.00    +0.004 A 
ATOM     26  C   UNL     1      -4.108   8.883  10.194  0.00  0.00    +0.005 A 
ATOM     27  C   UNL     1      -3.881   7.531  10.028  0.00  0.00    -0.030 A 
ATOM     28  C   UNL     1      -3.044   7.088   9.011  0.00  0.00    +0.030 A 
ATOM     29  C   UNL     1      -2.446   8.008   8.158  0.00  0.00    +0.026 A 
ATOM     30  C   UNL     1      -4.536   6.537  10.952  0.00  0.00    +0.045 C 
ENDBRANCH  21  28
ENDBRANCH  20  21
ENDBRANCH  19  20
ENDBRANCH   1  19
TORSDOF 4
