REMARK  Name = ZINC63375350
REMARK  7 active torsions:
REMARK  status: ('A' for Active; 'I' for Inactive)
REMARK    1  A    between atoms: C_1  and  C_2
REMARK    2  A    between atoms: C_2  and  C_3
REMARK    3  A    between atoms: C_3  and  C_4
REMARK    4  A    between atoms: C_4  and  N_5
REMARK    5  A    between atoms: C_6  and  C_8
REMARK    6  A    between atoms: C_13  and  N_14
REMARK    7  A    between atoms: C_30  and  C_35
REMARK                            x       y       z     vdW  Elec       q    Type
REMARK                         _______ _______ _______ _____ _____    ______ ____
ROOT
ATOM      1  N   UNL     1       2.084  -6.919  -3.413  0.00  0.00    -0.192 N 
ATOM      2  C   UNL     1       0.824  -7.396  -3.468  0.00  0.00    +0.248 C 
ATOM      3  O   UNL     1      -0.003  -7.184  -4.329  0.00  0.00    -0.273 OA
ATOM      4  C   UNL     1       0.656  -8.251  -2.231  0.00  0.00    +0.169 C 
ATOM      5  C   UNL     1      -0.508  -7.718  -1.377  0.00  0.00    +0.065 C 
ATOM      6  C   UNL     1      -0.250  -8.189   0.035  0.00  0.00    -0.034 C 
ATOM      7  C   UNL     1      -1.021  -8.874   0.873  0.00  0.00    -0.001 A 
ATOM      8  C   UNL     1      -2.416  -9.330   0.768  0.00  0.00    +0.010 A 
ATOM      9  C   UNL     1      -2.896 -10.039   1.824  0.00  0.00    +0.001 A 
ATOM     10  C   UNL     1      -2.137 -10.335   2.960  0.00  0.00    +0.002 A 
ATOM     11  C   UNL     1      -0.849  -9.950   3.144  0.00  0.00    +0.026 A 
ATOM     12  C   UNL     1      -0.236  -9.192   2.104  0.00  0.00    +0.043 A 
ATOM     13  N   UNL     1       0.958  -8.684   2.025  0.00  0.00    -0.375 N 
ATOM     14  C   UNL     1       1.062  -7.941   0.768  0.00  0.00    +0.131 C 
ATOM     15  C   UNL     1       2.183  -8.493  -0.123  0.00  0.00    +0.135 C 
ATOM     16  N   UNL     1       1.922  -8.041  -1.500  0.00  0.00    -0.264 N 
ATOM     17  C   UNL     1       2.717  -7.322  -2.302  0.00  0.00    +0.317 C 
ATOM     18  O   UNL     1       3.878  -7.062  -2.051  0.00  0.00    -0.252 OA
ATOM     19  H   UNL     1       1.661  -8.781   2.687  0.00  0.00    +0.160 HD
ENDROOT
BRANCH  15  20
ATOM     20  C   UNL     1       3.518  -7.973   0.346  0.00  0.00    -0.025 A 
ATOM     21  C   UNL     1       3.746  -6.611   0.407  0.00  0.00    +0.008 A 
ATOM     22  C   UNL     1       4.968  -6.133   0.838  0.00  0.00    +0.038 A 
ATOM     23  C   UNL     1       5.966  -7.019   1.209  0.00  0.00    +0.123 A 
ATOM     24  C   UNL     1       5.736  -8.383   1.148  0.00  0.00    +0.038 A 
ATOM     25  C   UNL     1       4.511  -8.859   0.722  0.00  0.00    +0.008 A 
ATOM     26  F   UNL     1       7.162  -6.553   1.631  0.00  0.00    -0.205 F 
ENDBRANCH  15  20
BRANCH   1  32
ATOM     27  C   UNL     1       2.558  -4.714  -4.306  0.00  0.00    +0.059 A 
ATOM     28  C   UNL     1       3.143  -3.916  -5.291  0.00  0.00    +0.015 A 
ATOM     29  C   UNL     1       3.812  -4.502  -6.344  0.00  0.00    +0.001 A 
ATOM     30  C   UNL     1       3.907  -5.881  -6.430  0.00  0.00    +0.002 A 
ATOM     31  C   UNL     1       3.334  -6.683  -5.464  0.00  0.00    +0.025 A 
ATOM     32  C   UNL     1       2.661  -6.110  -4.394  0.00  0.00    +0.058 A 
BRANCH  27  34
ATOM     33  N   UNL     1       1.743  -2.751  -3.096  0.00  0.00    -0.311 N 
ATOM     34  C   UNL     1       1.840  -4.093  -3.176  0.00  0.00    +0.246 C 
ATOM     35  O   UNL     1       1.336  -4.791  -2.318  0.00  0.00    -0.270 OA
ATOM     36  H   UNL     1       2.145  -2.194  -3.781  0.00  0.00    +0.149 HD
BRANCH  33  37
ATOM     37  C   UNL     1       1.030  -2.134  -1.974  0.00  0.00    +0.104 C 
BRANCH  37  38
ATOM     38  C   UNL     1       1.067  -0.612  -2.122  0.00  0.00    +0.018 C 
BRANCH  38  40
ATOM     39  C   UNL     1       0.360   1.555  -1.099  0.00  0.00    +0.004 C 
ATOM     40  C   UNL     1       0.323   0.033  -0.951  0.00  0.00    -0.002 C 
ENDBRANCH  38  40
ENDBRANCH  37  38
ENDBRANCH  33  37
ENDBRANCH  27  34
ENDBRANCH   1  32
TORSDOF 6
