REMARK  Name = ZINC03941698
REMARK  8 active torsions:
REMARK  status: ('A' for Active; 'I' for Inactive)
REMARK    1  A    between atoms: C_3  and  N_20
REMARK    2  A    between atoms: C_6  and  C_7
REMARK    3  A    between atoms: C_7  and  O_9
REMARK    4  A    between atoms: O_9  and  C_10
REMARK    5  A    between atoms: N_20  and  C_21
REMARK    6  A    between atoms: C_21  and  C_22
REMARK    7  A    between atoms: C_24  and  O_29
REMARK    8  A    between atoms: C_27  and  O_28
REMARK                            x       y       z     vdW  Elec       q    Type
REMARK                         _______ _______ _______ _____ _____    ______ ____
ROOT
ATOM      1  C   UNL     1       7.163   0.852  -5.463  0.00  0.00    +0.017 A 
ATOM      2  C   UNL     1       6.423   0.775  -4.311  0.00  0.00    +0.024 A 
ATOM      3  C   UNL     1       5.494   1.768  -4.011  0.00  0.00    +0.027 A 
ATOM      4  C   UNL     1       5.310   2.840  -4.881  0.00  0.00    +0.024 A 
ATOM      5  C   UNL     1       6.051   2.926  -6.032  0.00  0.00    +0.017 A 
ATOM      6  C   UNL     1       6.985   1.930  -6.336  0.00  0.00    +0.059 A 
ENDROOT
BRANCH   6   7
ATOM      7  C   UNL     1       7.780   2.017  -7.574  0.00  0.00    +0.340 C 
ATOM      8  O   UNL     1       8.591   1.151  -7.837  0.00  0.00    -0.245 OA
BRANCH   7   9
ATOM      9  O   UNL     1       7.607   3.056  -8.415  0.00  0.00    -0.455 OA
BRANCH   9  10
ATOM     10  C   UNL     1       8.424   3.076  -9.615  0.00  0.00    +0.115 C 
ATOM     11  C   UNL     1       8.140   1.823 -10.446  0.00  0.00    +0.051 C 
ATOM     12  C   UNL     1       9.001   1.844 -11.711  0.00  0.00    -0.007 C 
ATOM     13  C   UNL     1       8.666   3.089 -12.534  0.00  0.00    +0.007 C 
ATOM     14  C   UNL     1       8.950   4.342 -11.703  0.00  0.00    -0.007 C 
ATOM     15  C   UNL     1       8.090   4.321 -10.438  0.00  0.00    +0.051 C 
ATOM     16  C   UNL     1      10.430   4.371 -11.313  0.00  0.00    +0.007 C 
ATOM     17  C   UNL     1      10.764   3.125 -10.489  0.00  0.00    -0.007 C 
ATOM     18  C   UNL     1      10.480   1.873 -11.320  0.00  0.00    +0.007 C 
ATOM     19  C   UNL     1       9.903   3.104  -9.225  0.00  0.00    +0.051 C 
ENDBRANCH   9  10
ENDBRANCH   7   9
ENDBRANCH   6   7
BRANCH   3  20
ATOM     20  N   UNL     1       4.745   1.687  -2.843  0.00  0.00    -0.340 N 
ATOM     21  H   UNL     1       4.870   0.939  -2.238  0.00  0.00    +0.146 HD
BRANCH  20  22
ATOM     22  C   UNL     1       3.768   2.731  -2.526  0.00  0.00    +0.140 C 
BRANCH  22  23
ATOM     23  C   UNL     1       3.096   2.409  -1.216  0.00  0.00    +0.014 A 
ATOM     24  C   UNL     1       1.842   1.830  -1.207  0.00  0.00    +0.054 A 
ATOM     25  C   UNL     1       1.224   1.533  -0.001  0.00  0.00    +0.117 A 
ATOM     26  C   UNL     1       1.862   1.822   1.196  0.00  0.00    +0.049 A 
ATOM     27  C   UNL     1       3.119   2.396   1.187  0.00  0.00    +0.049 A 
ATOM     28  C   UNL     1       3.737   2.693  -0.019  0.00  0.00    +0.122 A 
BRANCH  28  29
ATOM     29  O   UNL     1       4.972   3.262  -0.028  0.00  0.00    -0.506 OA
ATOM     30  H   UNL     1       4.959   4.229  -0.023  0.00  0.00    +0.292 HD
ENDBRANCH  28  29
BRANCH  25  31
ATOM     31  O   UNL     1      -0.011   0.963   0.007  0.00  0.00    -0.507 OA
ATOM     32  H   UNL     1       0.002  -0.004   0.002  0.00  0.00    +0.292 HD
ENDBRANCH  25  31
ENDBRANCH  22  23
ENDBRANCH  20  22
ENDBRANCH   3  20
TORSDOF 8
