REMARK  Name = ZINC59382666
REMARK  7 active torsions:
REMARK  status: ('A' for Active; 'I' for Inactive)
REMARK    1  A    between atoms: C_1  and  C_2
REMARK    2  A    between atoms: C_10  and  O_40
REMARK    3  A    between atoms: N_22  and  N_23
REMARK    4  A    between atoms: C_24  and  C_26
REMARK    5  A    between atoms: C_26  and  C_27
REMARK    6  A    between atoms: C_26  and  C_33
REMARK    7  A    between atoms: C_26  and  O_39
REMARK                            x       y       z     vdW  Elec       q    Type
REMARK                         _______ _______ _______ _____ _____    ______ ____
ROOT
ATOM      1  C   UNL     1       1.116   2.404  -0.434  0.00  0.00    +0.018 C 
ATOM      2  C   UNL     1       0.967   0.896  -0.222  0.00  0.00    +0.011 C 
ATOM      3  C   UNL     1      -0.457   0.585   0.186  0.00  0.00    +0.013 C 
ATOM      4  C   UNL     1      -0.783   1.438   1.427  0.00  0.00    +0.009 C 
ATOM      5  C   UNL     1       0.212   1.161   2.546  0.00  0.00    +0.023 C 
ATOM      6  C   UNL     1      -0.064   2.003   3.758  0.00  0.00    -0.041 A 
ATOM      7  C   UNL     1      -1.384   2.316   4.055  0.00  0.00    +0.008 A 
ATOM      8  C   UNL     1      -1.693   3.077   5.162  0.00  0.00    +0.046 A 
ATOM      9  C   UNL     1      -0.675   3.534   5.987  0.00  0.00    +0.117 A 
ATOM     10  C   UNL     1       0.640   3.226   5.689  0.00  0.00    +0.049 A 
ATOM     11  C   UNL     1       0.952   2.465   4.569  0.00  0.00    -0.040 A 
ATOM     12  C   UNL     1       2.407   2.194   4.292  0.00  0.00    +0.036 C 
ATOM     13  C   UNL     1       2.579   1.077   3.264  0.00  0.00    +0.009 C 
ATOM     14  C   UNL     1       1.657   1.389   2.084  0.00  0.00    +0.001 C 
ATOM     15  C   UNL     1       1.909   0.443   0.928  0.00  0.00    +0.005 C 
ATOM     16  C   UNL     1       3.279   0.556   0.246  0.00  0.00    +0.010 C 
ATOM     17  C   UNL     1       2.995  -0.002  -1.176  0.00  0.00    +0.053 C 
ATOM     18  C   UNL     1       1.500   0.171  -1.422  0.00  0.00    +0.043 C 
ATOM     19  N   UNL     1       0.836  -0.222  -2.443  0.00  0.00    -0.189 NA
ENDROOT
BRANCH  19  20
ATOM     20  N   UNL     1       1.488  -0.890  -3.488  0.00  0.00    -0.204 N 
ATOM     21  C   UNL     1       0.788  -1.304  -4.563  0.00  0.00    +0.273 C 
ATOM     22  O   UNL     1      -0.405  -1.097  -4.627  0.00  0.00    -0.270 OA
ATOM     23  H   UNL     1       2.442  -1.056  -3.437  0.00  0.00    +0.177 HD
BRANCH  21  24
ATOM     24  C   UNL     1       1.490  -2.023  -5.687  0.00  0.00    +0.194 C 
BRANCH  24  25
ATOM     25  C   UNL     1       1.582  -3.492  -5.362  0.00  0.00    -0.003 A 
ATOM     26  C   UNL     1       0.516  -4.136  -4.764  0.00  0.00    +0.007 A 
ATOM     27  C   UNL     1       0.601  -5.483  -4.467  0.00  0.00    +0.000 A 
ATOM     28  C   UNL     1       1.752  -6.186  -4.768  0.00  0.00    +0.000 A 
ATOM     29  C   UNL     1       2.818  -5.542  -5.367  0.00  0.00    +0.000 A 
ATOM     30  C   UNL     1       2.732  -4.196  -5.669  0.00  0.00    +0.007 A 
ENDBRANCH  24  25
BRANCH  24  31
ATOM     31  C   UNL     1       0.712  -1.839  -6.964  0.00  0.00    -0.003 A 
ATOM     32  C   UNL     1       1.272  -1.145  -8.020  0.00  0.00    +0.007 A 
ATOM     33  C   UNL     1       0.558  -0.975  -9.192  0.00  0.00    +0.000 A 
ATOM     34  C   UNL     1      -0.716  -1.501  -9.308  0.00  0.00    +0.000 A 
ATOM     35  C   UNL     1      -1.275  -2.196  -8.252  0.00  0.00    +0.000 A 
ATOM     36  C   UNL     1      -0.560  -2.368  -7.082  0.00  0.00    +0.007 A 
ENDBRANCH  24  31
BRANCH  24  37
ATOM     37  O   UNL     1       2.804  -1.487  -5.848  0.00  0.00    -0.371 OA
ATOM     38  H   UNL     1       2.821  -0.543  -6.059  0.00  0.00    +0.212 HD
ENDBRANCH  24  37
ENDBRANCH  21  24
ENDBRANCH  19  20
BRANCH   9  39
ATOM     39  O   UNL     1      -0.969   4.281   7.083  0.00  0.00    -0.507 OA
ATOM     40  H   UNL     1      -1.117   3.762   7.885  0.00  0.00    +0.292 HD
ENDBRANCH   9  39
TORSDOF 6
