REMARK  Name = ZINC64137684
REMARK  12 active torsions:
REMARK  status: ('A' for Active; 'I' for Inactive)
REMARK    1  A    between atoms: C_1  and  C_2
REMARK    2  A    between atoms: C_4  and  C_32
REMARK    3  A    between atoms: C_5  and  C_31
REMARK    4  A    between atoms: C_6  and  C_8
REMARK    5  A    between atoms: C_8  and  C_10
REMARK    6  A    between atoms: C_10  and  C_12
REMARK    7  A    between atoms: C_10  and  S_13
REMARK    8  A    between atoms: S_13  and  C_14
REMARK    9  A    between atoms: C_17  and  C_22
REMARK   10  A    between atoms: N_18  and  C_19
REMARK   11  A    between atoms: C_32  and  O_34
REMARK   12  A    between atoms: O_34  and  C_35
REMARK                            x       y       z     vdW  Elec       q    Type
REMARK                         _______ _______ _______ _____ _____    ______ ____
ROOT
ATOM      1  C   UNL     1       2.941  -3.168   5.545  0.00  0.00    +0.193 A 
ATOM      2  N   UNL     1       2.315  -2.147   6.112  0.00  0.00    -0.122 NA
ATOM      3  N   UNL     1       2.506  -2.162   7.383  0.00  0.00    -0.129 NA
ATOM      4  C   UNL     1       3.269  -3.196   7.709  0.00  0.00    +0.163 A 
ATOM      5  N   UNL     1       3.560  -3.868   6.535  0.00  0.00    -0.299 N 
ENDROOT
BRANCH   4   6
ATOM      6  C   UNL     1       3.696  -3.545   9.000  0.00  0.00    +0.025 C 
ATOM      7  C   UNL     1       3.403  -2.885  10.192  0.00  0.00    +0.006 A 
ATOM      8  C   UNL     1       2.638  -1.734  10.482  0.00  0.00    +0.010 A 
ATOM      9  C   UNL     1       2.521  -1.309  11.766  0.00  0.00    +0.001 A 
ATOM     10  C   UNL     1       3.143  -1.983  12.819  0.00  0.00    +0.002 A 
ATOM     11  C   UNL     1       3.893  -3.094  12.614  0.00  0.00    +0.026 A 
ATOM     12  C   UNL     1       4.060  -3.599  11.299  0.00  0.00    +0.043 A 
ATOM     13  N   UNL     1       4.725  -4.642  10.844  0.00  0.00    -0.380 N 
ATOM     14  C   UNL     1       4.566  -4.720   9.388  0.00  0.00    +0.152 C 
ATOM     15  H   UNL     1       5.236  -5.263  11.386  0.00  0.00    +0.160 HD
ENDBRANCH   4   6
BRANCH   5  16
ATOM     16  C   UNL     1       4.370  -5.080   6.387  0.00  0.00    +0.091 C 
ATOM     17  C   UNL     1       4.883  -5.420   4.987  0.00  0.00    +0.027 C 
ATOM     18  C   UNL     1       3.758  -6.248   5.611  0.00  0.00    +0.027 C 
ENDBRANCH   5  16
BRANCH   1  19
ATOM     19  S   UNL     1       2.961  -3.553   3.826  0.00  0.00    -0.075 S 
BRANCH  19  20
ATOM     20  C   UNL     1       1.958  -2.244   3.071  0.00  0.00    +0.124 C 
ATOM     21  C   UNL     1       2.655  -0.895   3.256  0.00  0.00    +0.028 C 
BRANCH  20  22
ATOM     22  C   UNL     1       1.790  -2.525   1.600  0.00  0.00    +0.194 C 
ATOM     23  O   UNL     1       2.609  -3.194   1.015  0.00  0.00    -0.289 OA
BRANCH  22  28
ATOM     24  C   UNL     1      -1.360   0.608   0.192  0.00  0.00    +0.038 C 
ATOM     25  C   UNL     1      -1.288  -0.910   0.369  0.00  0.00    +0.140 C 
ATOM     26  C   UNL     1      -0.783  -1.561  -0.900  0.00  0.00    +0.065 C 
ATOM     27  C   UNL     1       0.360  -2.191  -0.562  0.00  0.00    -0.010 C 
ATOM     28  C   UNL     1       0.621  -1.980   0.869  0.00  0.00    +0.106 C 
ATOM     29  N   UNL     1      -0.310  -1.254   1.409  0.00  0.00    -0.272 NA
ATOM     30  C   UNL     1       1.231  -2.986  -1.502  0.00  0.00    +0.046 C 
BRANCH  26  31
ATOM     31  C   UNL     1      -1.409  -1.516  -2.228  0.00  0.00    +0.337 C 
ATOM     32  O   UNL     1      -0.889  -2.088  -3.165  0.00  0.00    -0.245 OA
BRANCH  31  33
ATOM     33  O   UNL     1      -2.562  -0.839  -2.407  0.00  0.00    -0.465 OA
ATOM     34  C   UNL     1      -3.115  -0.837  -3.724  0.00  0.00    +0.280 C 
ENDBRANCH  31  33
ENDBRANCH  26  31
ENDBRANCH  22  28
ENDBRANCH  20  22
ENDBRANCH  19  20
ENDBRANCH   1  19
TORSDOF 8
