REMARK  Name = ZINC36491459
REMARK  13 active torsions:
REMARK  status: ('A' for Active; 'I' for Inactive)
REMARK    1  A    between atoms: C_1  and  C_2
REMARK    2  A    between atoms: C_5  and  S_8
REMARK    3  A    between atoms: S_8  and  C_11
REMARK    4  A    between atoms: C_11  and  N_12
REMARK    5  A    between atoms: C_13  and  C_15
REMARK    6  A    between atoms: C_15  and  C_17
REMARK    7  A    between atoms: C_15  and  N_26
REMARK    8  A    between atoms: C_20  and  N_23
REMARK    9  A    between atoms: N_23  and  C_24
REMARK   10  A    between atoms: N_23  and  C_25
REMARK   11  A    between atoms: N_26  and  C_27
REMARK   12  A    between atoms: C_33  and  C_35
REMARK   13  A    between atoms: C_35  and  C_37
REMARK                            x       y       z     vdW  Elec       q    Type
REMARK                         _______ _______ _______ _____ _____    ______ ____
ROOT
ATOM      1  C   UNL     1       3.639  -6.122   3.677  0.00  0.00    +0.193 C 
ENDROOT
BRANCH   1   2
ATOM      2  C   UNL     1       4.969  -6.773   3.959  0.00  0.00    -0.018 A 
ATOM      3  C   UNL     1       5.014  -8.023   4.549  0.00  0.00    +0.008 A 
ATOM      4  C   UNL     1       6.231  -8.623   4.809  0.00  0.00    +0.023 A 
ATOM      5  C   UNL     1       7.410  -7.968   4.477  0.00  0.00    +0.029 A 
ATOM      6  C   UNL     1       7.362  -6.713   3.885  0.00  0.00    +0.023 A 
ATOM      7  C   UNL     1       6.141  -6.122   3.623  0.00  0.00    +0.008 A 
BRANCH   5   8
ATOM      8  N   UNL     1       8.643  -8.572   4.739  0.00  0.00    -0.336 N 
ATOM      9  C   UNL     1       8.693  -9.945   5.247  0.00  0.00    +0.129 C 
ATOM     10  C   UNL     1       9.885  -7.831   4.506  0.00  0.00    +0.129 C 
ENDBRANCH   5   8
ENDBRANCH   1   2
BRANCH   1  12
ATOM     11  N   UNL     1       2.714  -8.036   2.413  0.00  0.00    -0.294 N 
ATOM     12  C   UNL     1       2.596  -7.187   3.453  0.00  0.00    +0.239 C 
ATOM     13  O   UNL     1       1.652  -7.279   4.208  0.00  0.00    -0.273 OA
ATOM     14  H   UNL     1       3.410  -7.900   1.751  0.00  0.00    +0.150 HD
BRANCH  11  15
ATOM     15  C   UNL     1       1.790  -9.166   2.282  0.00  0.00    +0.278 C 
BRANCH  15  16
ATOM     16  S   UNL     1       0.414  -8.698   1.196  0.00  0.00    +0.013 S 
ATOM     17  O   UNL     1      -0.200  -7.507   1.668  0.00  0.00    -0.168 OA
ATOM     18  O   UNL     1      -0.370  -9.841   0.880  0.00  0.00    -0.168 OA
BRANCH  16  23
ATOM     19  C   UNL     1       3.014  -7.129  -4.018  0.00  0.00    +0.044 C 
ATOM     20  C   UNL     1       2.365  -7.521  -2.715  0.00  0.00    -0.050 A 
ATOM     21  C   UNL     1       2.095  -8.850  -2.450  0.00  0.00    +0.005 A 
ATOM     22  C   UNL     1       1.499  -9.210  -1.256  0.00  0.00    +0.027 A 
ATOM     23  C   UNL     1       1.174  -8.240  -0.326  0.00  0.00    +0.090 A 
ATOM     24  C   UNL     1       1.445  -6.911  -0.591  0.00  0.00    +0.027 A 
ATOM     25  C   UNL     1       2.045  -6.551  -1.783  0.00  0.00    +0.005 A 
ENDBRANCH  16  23
ENDBRANCH  15  16
ENDBRANCH  11  15
ENDBRANCH   1  12
BRANCH   1  26
ATOM     26  N   UNL     1       3.251  -5.291   4.819  0.00  0.00    -0.279 N 
ATOM     27  C   UNL     1       1.986  -4.835   4.921  0.00  0.00    +0.243 C 
ATOM     28  O   UNL     1       1.693  -4.049   5.801  0.00  0.00    -0.270 OA
BRANCH  26  29
ATOM     29  C   UNL     1       4.236  -4.955   5.850  0.00  0.00    +0.077 C 
ATOM     30  C   UNL     1       3.824  -5.593   7.177  0.00  0.00    +0.022 C 
ATOM     31  C   UNL     1       4.853  -5.242   8.254  0.00  0.00    +0.002 C 
ATOM     32  C   UNL     1       4.921  -3.723   8.418  0.00  0.00    +0.000 C 
ATOM     33  C   UNL     1       5.333  -3.084   7.090  0.00  0.00    +0.002 C 
ATOM     34  C   UNL     1       4.304  -3.435   6.014  0.00  0.00    +0.022 C 
ENDBRANCH  26  29
BRANCH  27  35
ATOM     35  C   UNL     1       0.961  -5.290   3.969  0.00  0.00    +0.004 C 
ATOM     36  C   UNL     1      -0.256  -5.606   4.403  0.00  0.00    +0.017 C 
ATOM     37  C   UNL     1       1.290  -5.397   2.503  0.00  0.00    +0.048 C 
ENDBRANCH  27  35
ENDBRANCH   1  26
TORSDOF 9
