REMARK  Name = ZINC39457872
REMARK  9 active torsions:
REMARK  status: ('A' for Active; 'I' for Inactive)
REMARK    1  A    between atoms: C_1  and  C_2
REMARK    2  A    between atoms: C_3  and  S_31
REMARK    3  A    between atoms: N_6  and  C_7
REMARK    4  A    between atoms: C_12  and  O_13
REMARK    5  A    between atoms: C_16  and  C_20
REMARK    6  A    between atoms: C_20  and  C_21
REMARK    7  A    between atoms: S_31  and  C_34
REMARK    8  A    between atoms: C_34  and  C_35
REMARK    9  A    between atoms: C_34  and  C_36
REMARK                            x       y       z     vdW  Elec       q    Type
REMARK                         _______ _______ _______ _____ _____    ______ ____
ROOT
ATOM      1  C   UNL     1      -0.006   1.511   0.040  0.00  0.00    +0.066 C 
ATOM      2  C   UNL     1       0.015   0.004   0.022  0.00  0.00    +0.046 A 
ATOM      3  C   UNL     1       0.034  -0.773  -1.089  0.00  0.00    +0.113 A 
ATOM      4  C   UNL     1       0.053  -2.106  -0.675  0.00  0.00    +0.005 A 
ATOM      5  C   UNL     1       0.055  -2.103   0.698  0.00  0.00    +0.078 A 
ATOM      6  N   UNL     1       0.024  -0.805   1.121  0.00  0.00    -0.306 N 
ATOM      7  C   UNL     1       0.113  -3.342   1.492  0.00  0.00    +0.099 A 
ATOM      8  C   UNL     1       1.050  -4.322   1.079  0.00  0.00    +0.048 A 
ATOM      9  C   UNL     1       1.112  -5.532   1.772  0.00  0.00    -0.029 A 
ATOM     10  C   UNL     1       0.262  -5.705   2.852  0.00  0.00    +0.024 A 
ATOM     11  C   UNL     1      -0.611  -4.690   3.211  0.00  0.00    +0.112 A 
ATOM     12  N   UNL     1      -0.666  -3.556   2.539  0.00  0.00    -0.253 NA
ATOM     13  C   UNL     1       1.936  -4.015  -0.041  0.00  0.00    +0.166 C 
ATOM     14  O   UNL     1       3.099  -3.744   0.177  0.00  0.00    -0.292 OA
ATOM     15  C   UNL     1       1.434  -4.029  -1.467  0.00  0.00    +0.084 C 
ATOM     16  C   UNL     1       0.060  -3.347  -1.523  0.00  0.00    +0.047 C 
ENDROOT
BRANCH   6  17
ATOM     17  C   UNL     1       0.003  -0.377   2.456  0.00  0.00    +0.089 A 
ATOM     18  C   UNL     1      -1.207  -0.198   3.110  0.00  0.00    +0.030 A 
ATOM     19  C   UNL     1      -1.226   0.223   4.426  0.00  0.00    +0.002 A 
ATOM     20  C   UNL     1      -0.040   0.469   5.094  0.00  0.00    +0.004 A 
ATOM     21  C   UNL     1       1.170   0.293   4.449  0.00  0.00    +0.047 A 
ATOM     22  C   UNL     1       1.197  -0.135   3.131  0.00  0.00    +0.141 A 
BRANCH  22  23
ATOM     23  O   UNL     1       2.387  -0.314   2.497  0.00  0.00    -0.505 OA
ATOM     24  H   UNL     1       2.713   0.475   2.044  0.00  0.00    +0.292 HD
ENDBRANCH  22  23
ENDBRANCH   6  17
BRANCH   3  25
ATOM     25  S   UNL     1       0.033  -0.203  -2.756  0.00  0.00    +0.001 S 
ATOM     26  O   UNL     1      -0.549  -1.264  -3.501  0.00  0.00    -0.169 OA
ATOM     27  O   UNL     1      -0.591   1.072  -2.703  0.00  0.00    -0.169 OA
BRANCH  25  28
ATOM     28  C   UNL     1       1.785  -0.024  -3.188  0.00  0.00    +0.130 C 
ATOM     29  C   UNL     1       2.485  -1.378  -3.053  0.00  0.00    +0.032 C 
ATOM     30  C   UNL     1       1.907   0.471  -4.631  0.00  0.00    +0.032 C 
ENDBRANCH  25  28
ENDBRANCH   3  25
BRANCH   9  31
ATOM     31  C   UNL     1       2.072  -6.617   1.357  0.00  0.00    +0.071 C 
BRANCH  31  32
ATOM     32  C   UNL     1       2.018  -7.744   2.356  0.00  0.00    -0.043 A 
ATOM     33  C   UNL     1       2.786  -7.688   3.504  0.00  0.00    +0.004 A 
ATOM     34  C   UNL     1       2.737  -8.722   4.420  0.00  0.00    +0.000 A 
ATOM     35  C   UNL     1       1.920  -9.812   4.188  0.00  0.00    +0.000 A 
ATOM     36  C   UNL     1       1.151  -9.868   3.041  0.00  0.00    +0.000 A 
ATOM     37  C   UNL     1       1.197  -8.832   2.127  0.00  0.00    +0.004 A 
ENDBRANCH  31  32
ENDBRANCH   9  31
TORSDOF 6
