REMARK  Name = ZINC63180565
REMARK  6 active torsions:
REMARK  status: ('A' for Active; 'I' for Inactive)
REMARK    1  A    between atoms: C_1  and  C_2
REMARK    2  A    between atoms: C_5  and  C_8
REMARK    3  A    between atoms: C_10  and  C_13
REMARK    4  A    between atoms: C_13  and  N_14
REMARK    5  A    between atoms: C_17  and  C_22
REMARK    6  A    between atoms: C_22  and  C_23
REMARK                            x       y       z     vdW  Elec       q    Type
REMARK                         _______ _______ _______ _____ _____    ______ ____
ROOT
ATOM      1  N   UNL     1       1.481  -7.524   2.443  0.00  0.00    -0.219 N 
ATOM      2  C   UNL     1       2.305  -8.487   1.984  0.00  0.00    +0.244 C 
ATOM      3  O   UNL     1       2.054  -9.328   1.147  0.00  0.00    -0.273 OA
ATOM      4  C   UNL     1       3.610  -8.301   2.732  0.00  0.00    +0.165 C 
ATOM      5  N   UNL     1       3.345  -7.146   3.608  0.00  0.00    -0.287 N 
ATOM      6  C   UNL     1       2.080  -6.760   3.364  0.00  0.00    +0.309 C 
ATOM      7  O   UNL     1       1.540  -5.824   3.920  0.00  0.00    -0.252 OA
ATOM      8  H   UNL     1       3.964  -6.741   4.235  0.00  0.00    +0.151 HD
ENDROOT
BRANCH   1   9
ATOM      9  C   UNL     1       0.102  -7.334   1.986  0.00  0.00    +0.173 C 
BRANCH   9  12
ATOM     10  C   UNL     1       0.061  -4.251  -0.021  0.00  0.00    +0.109 A 
ATOM     11  N   UNL     1       0.072  -5.098   0.998  0.00  0.00    -0.242 NA
ATOM     12  C   UNL     1       0.089  -6.396   0.806  0.00  0.00    +0.067 A 
ATOM     13  C   UNL     1       0.097  -6.894  -0.459  0.00  0.00    +0.072 A 
ATOM     14  S   UNL     1       0.068  -5.379  -1.409  0.00  0.00    -0.075 S 
BRANCH  10  19
ATOM     15  C   UNL     1      -0.018   1.503   0.010  0.00  0.00    +0.044 C 
ATOM     16  C   UNL     1       0.002  -0.004   0.002  0.00  0.00    -0.050 A 
ATOM     17  C   UNL     1       0.006  -0.686  -1.202  0.00  0.00    +0.004 A 
ATOM     18  C   UNL     1       0.025  -2.066  -1.216  0.00  0.00    +0.011 A 
ATOM     19  C   UNL     1       0.041  -2.773  -0.013  0.00  0.00    +0.007 A 
ATOM     20  C   UNL     1       0.037  -2.079   1.197  0.00  0.00    +0.011 A 
ATOM     21  C   UNL     1       0.023  -0.699   1.198  0.00  0.00    +0.004 A 
ENDBRANCH  10  19
ENDBRANCH   9  12
ENDBRANCH   1   9
BRANCH   4  22
ATOM     22  C   UNL     1       4.749  -7.993   1.758  0.00  0.00    +0.065 C 
BRANCH  22  23
ATOM     23  C   UNL     1       6.053  -7.934   2.512  0.00  0.00    -0.039 C 
ATOM     24  C   UNL     1       6.948  -8.935   2.669  0.00  0.00    -0.001 A 
ATOM     25  C   UNL     1       6.974 -10.327   2.203  0.00  0.00    +0.010 A 
ATOM     26  C   UNL     1       8.030 -11.107   2.527  0.00  0.00    +0.001 A 
ATOM     27  C   UNL     1       9.097 -10.622   3.295  0.00  0.00    +0.002 A 
ATOM     28  C   UNL     1       9.144  -9.355   3.760  0.00  0.00    +0.026 A 
ATOM     29  C   UNL     1       8.086  -8.447   3.478  0.00  0.00    +0.043 A 
ATOM     30  N   UNL     1       7.903  -7.192   3.810  0.00  0.00    -0.380 N 
ATOM     31  C   UNL     1       6.628  -6.740   3.242  0.00  0.00    +0.144 C 
ATOM     32  H   UNL     1       8.510  -6.651   4.339  0.00  0.00    +0.160 HD
ENDBRANCH  22  23
ENDBRANCH   4  22
TORSDOF 5
