REMARK  Name = ZINC55047229
REMARK  6 active torsions:
REMARK  status: ('A' for Active; 'I' for Inactive)
REMARK    1  A    between atoms: C_1  and  N_2
REMARK    2  A    between atoms: N_2  and  C_3
REMARK    3  A    between atoms: C_6  and  C_11
REMARK    4  A    between atoms: C_11  and  O_12
REMARK    5  A    between atoms: O_12  and  N_13
REMARK    6  A    between atoms: C_14  and  C_15
REMARK                            x       y       z     vdW  Elec       q    Type
REMARK                         _______ _______ _______ _____ _____    ______ ____
ROOT
ATOM      1  C   UNL     1      -2.277  -4.225   0.012  0.00  0.00    +0.338 C 
ENDROOT
BRANCH   1   7
ATOM      2  C   UNL     1      -0.018   1.461   0.010  0.00  0.00    +0.132 C 
ATOM      3  N   UNL     1       0.002  -0.004   0.002  0.00  0.00    -0.306 N 
ATOM      4  C   UNL     1       1.281  -0.719  -0.014  0.00  0.00    +0.132 C 
ATOM      5  C   UNL     1      -1.183  -0.710   0.009  0.00  0.00    +0.222 A 
ATOM      6  N   UNL     1      -1.166  -2.041   0.008  0.00  0.00    -0.196 NA
ATOM      7  C   UNL     1      -2.301  -2.718   0.015  0.00  0.00    +0.176 A 
ATOM      8  N   UNL     1      -3.457  -2.078   0.024  0.00  0.00    -0.196 NA
ATOM      9  C   UNL     1      -3.482  -0.747   0.026  0.00  0.00    +0.217 A 
ATOM     10  N   UNL     1      -2.343  -0.063   0.024  0.00  0.00    -0.181 NA
ATOM     11  N   UNL     1      -4.690  -0.079   0.035  0.00  0.00    -0.327 N 
ATOM     12  H   UNL     1      -5.521  -0.579   0.040  0.00  0.00    +0.145 HD
ATOM     13  H   UNL     1      -4.707   0.891   0.036  0.00  0.00    +0.145 HD
ENDBRANCH   1   7
BRANCH   1  14
ATOM     14  O   UNL     1      -2.260  -4.704   1.359  0.00  0.00    -0.384 OA
BRANCH  14  15
ATOM     15  N   UNL     1      -2.237  -6.115   1.468  0.00  0.00    -0.068 NA
ATOM     16  C   UNL     1      -2.219  -6.678   2.644  0.00  0.00    +0.169 C 
ATOM     17  N   UNL     1      -2.223  -5.894   3.788  0.00  0.00    -0.340 N 
ATOM     18  H   UNL     1      -2.239  -4.927   3.713  0.00  0.00    +0.144 HD
ATOM     19  H   UNL     1      -2.210  -6.313   4.663  0.00  0.00    +0.144 HD
BRANCH  16  20
ATOM     20  C   UNL     1      -2.195  -8.145   2.758  0.00  0.00    +0.056 A 
ATOM     21  C   UNL     1      -2.180  -8.925   3.887  0.00  0.00    +0.034 A 
ATOM     22  C   UNL     1      -2.158 -10.293   3.746  0.00  0.00    +0.026 A 
ATOM     23  C   UNL     1      -2.153 -10.830   2.496  0.00  0.00    +0.061 A 
ATOM     24  S   UNL     1      -2.185  -9.374   1.463  0.00  0.00    -0.093 S 
ATOM     25 BR   UNL     1      -2.137 -11.413   5.269  0.00  0.00    -0.050 Br
ENDBRANCH  16  20
ENDBRANCH  14  15
ENDBRANCH   1  14
TORSDOF 4
