REMARK  Name = ZINC36879678
REMARK  8 active torsions:
REMARK  status: ('A' for Active; 'I' for Inactive)
REMARK    1  A    between atoms: C_1  and  N_2
REMARK    2  A    between atoms: N_2  and  C_23
REMARK    3  A    between atoms: C_3  and  C_5
REMARK    4  A    between atoms: C_5  and  O_6
REMARK    5  A    between atoms: O_6  and  C_7
REMARK    6  A    between atoms: C_7  and  C_9
REMARK    7  A    between atoms: C_9  and  N_10
REMARK    8  A    between atoms: C_23  and  C_30
REMARK                            x       y       z     vdW  Elec       q    Type
REMARK                         _______ _______ _______ _____ _____    ______ ____
ROOT
ATOM      1  C   UNL     1      -0.066   1.459   0.015  0.00  0.00    +0.133 C 
ATOM      2  N   UNL     1       0.002  -0.004   0.002  0.00  0.00    -0.285 N 
ATOM      3  C   UNL     1       0.168  -0.681   1.155  0.00  0.00    +0.254 C 
ATOM      4  O   UNL     1       0.225  -1.893   1.144  0.00  0.00    -0.272 OA
ENDROOT
BRANCH   2   5
ATOM      5  C   UNL     1      -0.111  -0.731  -1.265  0.00  0.00    +0.122 C 
ATOM      6  C   UNL     1       1.089  -1.671  -1.427  0.00  0.00    +0.038 C 
ATOM      7  C   UNL     1       2.369  -0.844  -1.551  0.00  0.00    +0.003 C 
ATOM      8  C   UNL     1       2.315   0.009  -2.820  0.00  0.00    +0.008 C 
ATOM      9  C   UNL     1       1.162   1.012  -2.710  0.00  0.00    +0.077 C 
ATOM     10  C   UNL     1      -0.111   0.250  -2.416  0.00  0.00    +0.161 C 
ATOM     11  O   UNL     1      -1.103   0.421  -3.083  0.00  0.00    -0.295 OA
BRANCH   5  12
ATOM     12  C   UNL     1      -1.389  -1.528  -1.279  0.00  0.00    +0.002 A 
ATOM     13  C   UNL     1      -2.243  -1.485  -0.192  0.00  0.00    +0.007 A 
ATOM     14  C   UNL     1      -3.416  -2.216  -0.205  0.00  0.00    +0.000 A 
ATOM     15  C   UNL     1      -3.736  -2.992  -1.304  0.00  0.00    +0.001 A 
ATOM     16  C   UNL     1      -2.883  -3.036  -2.390  0.00  0.00    +0.020 A 
ATOM     17  C   UNL     1      -1.712  -2.300  -2.381  0.00  0.00    +0.047 A 
ATOM     18 CL   UNL     1      -0.643  -2.350  -3.748  0.00  0.00    -0.083 Cl
ENDBRANCH   5  12
ENDBRANCH   2   5
BRANCH   3  19
ATOM     19  C   UNL     1       0.284   0.067   2.458  0.00  0.00    +0.327 C 
BRANCH  19  20
ATOM     20  O   UNL     1       0.453  -0.865   3.529  0.00  0.00    -0.454 OA
BRANCH  20  21
ATOM     21  C   UNL     1       0.573  -0.357   4.766  0.00  0.00    +0.326 C 
ATOM     22  O   UNL     1       0.535   0.839   4.934  0.00  0.00    -0.249 OA
BRANCH  21  23
ATOM     23  C   UNL     1       0.754  -1.278   5.944  0.00  0.00    +0.236 C 
BRANCH  23  24
ATOM     24  N   UNL     1       0.859  -0.485   7.172  0.00  0.00    -0.231 N 
ATOM     25  C   UNL     1       2.040  -0.023   7.663  0.00  0.00    +0.226 C 
ATOM     26  O   UNL     1       3.108   0.004   7.090  0.00  0.00    -0.275 OA
ATOM     27  C   UNL     1       1.753   0.447   9.054  0.00  0.00    +0.087 C 
ATOM     28  C   UNL     1       2.515   1.629   9.612  0.00  0.00    +0.013 C 
ATOM     29  C   UNL     1       1.955   1.872  11.028  0.00  0.00    +0.001 C 
ATOM     30  C   UNL     1       0.450   2.119  11.009  0.00  0.00    +0.001 C 
ATOM     31  C   UNL     1      -0.311   1.004  10.268  0.00  0.00    +0.013 C 
ATOM     32  C   UNL     1       0.273   0.903   8.886  0.00  0.00    +0.087 C 
ATOM     33  C   UNL     1      -0.216  -0.135   7.929  0.00  0.00    +0.226 C 
ATOM     34  O   UNL     1      -1.342  -0.577   7.846  0.00  0.00    -0.275 OA
ENDBRANCH  23  24
ENDBRANCH  21  23
ENDBRANCH  20  21
ENDBRANCH  19  20
ENDBRANCH   3  19
TORSDOF 7
