REMARK  Name = ZINC15074753
REMARK  5 active torsions:
REMARK  status: ('A' for Active; 'I' for Inactive)
REMARK    1  A    between atoms: C_1  and  S_2
REMARK    2  A    between atoms: S_2  and  C_3
REMARK    3  A    between atoms: C_6  and  C_9
REMARK    4  A    between atoms: N_23  and  C_24
REMARK    5  A    between atoms: C_24  and  C_25
REMARK                            x       y       z     vdW  Elec       q    Type
REMARK                         _______ _______ _______ _____ _____    ______ ____
ROOT
ATOM      1  C   UNL     1       2.901  -1.397  -5.106  0.00  0.00    +0.134 C 
ATOM      2  C   UNL     1       1.899  -1.770  -6.173  0.00  0.00    +0.042 A 
ATOM      3  C   UNL     1       2.062  -2.829  -6.999  0.00  0.00    -0.016 A 
ATOM      4  C   UNL     1       0.911  -2.869  -7.873  0.00  0.00    +0.003 A 
ATOM      5  C   UNL     1       0.535  -3.727  -8.912  0.00  0.00    +0.010 A 
ATOM      6  C   UNL     1      -0.656  -3.459  -9.538  0.00  0.00    +0.001 A 
ATOM      7  C   UNL     1      -1.459  -2.392  -9.169  0.00  0.00    +0.002 A 
ATOM      8  C   UNL     1      -1.111  -1.526  -8.146  0.00  0.00    +0.026 A 
ATOM      9  C   UNL     1       0.093  -1.774  -7.492  0.00  0.00    +0.047 A 
ATOM     10  N   UNL     1       0.724  -1.134  -6.463  0.00  0.00    -0.356 N 
ATOM     11  H   UNL     1       0.388  -0.346  -6.006  0.00  0.00    +0.166 HD
ATOM     12  C   UNL     1       3.259  -3.746  -6.949  0.00  0.00    +0.053 C 
ATOM     13  C   UNL     1       4.356  -3.050  -6.133  0.00  0.00    +0.090 C 
ATOM     14  N   UNL     1       3.790  -2.547  -4.872  0.00  0.00    -0.284 NA
ENDROOT
BRANCH   1  18
ATOM     15  C   UNL     1       0.848  -0.411  -1.489  0.00  0.00    +0.008 A 
ATOM     16  C   UNL     1       1.315   0.599  -2.322  0.00  0.00    +0.015 A 
ATOM     17  C   UNL     1       1.978   0.276  -3.490  0.00  0.00    +0.006 A 
ATOM     18  C   UNL     1       2.178  -1.049  -3.830  0.00  0.00    -0.024 A 
ATOM     19  C   UNL     1       1.714  -2.056  -3.004  0.00  0.00    +0.006 A 
ATOM     20  C   UNL     1       1.056  -1.742  -1.831  0.00  0.00    +0.015 A 
BRANCH  15  22
ATOM     21  C   UNL     1      -0.022   1.810   0.012  0.00  0.00    +0.090 C 
ATOM     22  S   UNL     1       0.002  -0.004   0.002  0.00  0.00    -0.129 S 
ENDBRANCH  15  22
ENDBRANCH   1  18
BRANCH  14  23
ATOM     23  C   UNL     1       4.850  -2.207  -3.913  0.00  0.00    +0.140 C 
BRANCH  23  24
ATOM     24  C   UNL     1       5.585  -3.459  -3.512  0.00  0.00    +0.050 A 
ATOM     25  C   UNL     1       6.729  -3.925  -4.066  0.00  0.00    +0.045 A 
ATOM     26  C   UNL     1       7.076  -5.108  -3.405  0.00  0.00    +0.134 A 
ATOM     27  N   UNL     1       6.174  -5.344  -2.488  0.00  0.00    -0.182 NA
ATOM     28  H   UNL     1       4.445  -4.233  -1.962  0.00  0.00    +0.189 HD
ATOM     29  N   UNL     1       5.224  -4.315  -2.533  0.00  0.00    -0.280 N 
ENDBRANCH  23  24
ENDBRANCH  14  23
TORSDOF 4
