REMARK  Name = ZINC42893686
REMARK  8 active torsions:
REMARK  status: ('A' for Active; 'I' for Inactive)
REMARK    1  A    between atoms: C_3  and  N_26
REMARK    2  A    between atoms: C_6  and  C_7
REMARK    3  A    between atoms: C_7  and  C_9
REMARK    4  A    between atoms: C_7  and  O_25
REMARK    5  A    between atoms: C_9  and  C_11
REMARK    6  A    between atoms: C_9  and  N_13
REMARK    7  A    between atoms: C_11  and  O_12
REMARK    8  A    between atoms: N_16  and  C_17
REMARK                            x       y       z     vdW  Elec       q    Type
REMARK                         _______ _______ _______ _____ _____    ______ ____
ROOT
ATOM      1  C   UNK A   1      -1.650  -1.136   1.454  0.00  0.00    +0.133 C 
ENDROOT
BRANCH   1   2
ATOM      2  N   UNK A   1      -2.991  -1.720   1.373  0.00  0.00    -0.292 N 
ATOM      3  C   UNK A   0      -3.787  -1.736   2.460  0.00  0.00    +0.300 C 
ATOM      4  O   UNK A   0      -3.392  -1.265   3.510  0.00  0.00    -0.253 OA
ATOM      5  N   UNK A   0      -5.020  -2.274   2.385  0.00  0.00    -0.297 N 
ATOM      6  H   UNK A   1      -3.307  -2.096   0.536  0.00  0.00    +0.151 HD
ATOM      7  H   UNK A   0      -5.336  -2.649   1.548  0.00  0.00    +0.151 HD
BRANCH   5   8
ATOM      8  C   UNK A   0      -5.885  -2.291   3.568  0.00  0.00    +0.074 C 
ATOM      9  C   UNK A   0      -5.561  -3.520   4.419  0.00  0.00    +0.022 C 
ATOM     10  C   UNK A   0      -6.155  -3.343   5.817  0.00  0.00    +0.002 C 
ATOM     11  C   UNK A   0      -5.880  -1.922   6.313  0.00  0.00    +0.000 C 
ATOM     12  C   UNK A   0      -7.199  -1.155   6.421  0.00  0.00    +0.000 C 
ATOM     13  C   UNK A   0      -7.668  -0.749   5.022  0.00  0.00    +0.000 C 
ATOM     14  C   UNK A   0      -8.250  -1.969   4.306  0.00  0.00    +0.002 C 
ATOM     15  C   UNK A   0      -7.350  -2.347   3.128  0.00  0.00    +0.022 C 
ENDBRANCH   5   8
ENDBRANCH   1   2
BRANCH   1  16
ATOM     16  C   UNK A   1      -1.210  -0.673   0.064  0.00  0.00    +0.167 C 
BRANCH  16  22
ATOM     17  C   UNK A   1      -3.219   0.040  -1.249  0.00  0.00    +0.008 A 
ATOM     18  C   UNK A   1      -4.088   1.013  -1.707  0.00  0.00    +0.033 A 
ATOM     19  C   UNK A   1      -3.894   2.334  -1.350  0.00  0.00    +0.126 A 
ATOM     20  C   UNK A   1      -2.833   2.683  -0.536  0.00  0.00    +0.033 A 
ATOM     21  C   UNK A   1      -1.965   1.710  -0.078  0.00  0.00    +0.008 A 
ATOM     22  C   UNK A   1      -2.157   0.388  -0.435  0.00  0.00    -0.017 A 
BRANCH  19  23
ATOM     23  N   UNK A   1      -4.824   3.377  -1.841  0.00  0.00    +0.056 N 
ATOM     24  O   UNK A   1      -5.752   3.072  -2.554  0.00  0.00    -0.126 OA
ATOM     25  O   UNK A   1      -4.655   4.533  -1.530  0.00  0.00    -0.126 OA
ENDBRANCH  19  23
ENDBRANCH  16  22
BRANCH  16  26
ATOM     26  O   UNK A   1       0.112  -0.135   0.137  0.00  0.00    -0.385 OA
ATOM     27  H   UNK A   1       0.213   0.571   0.790  0.00  0.00    +0.210 HD
ENDBRANCH  16  26
ENDBRANCH   1  16
BRANCH   1  28
ATOM     28  C   UNK A   1      -0.667  -2.186   1.977  0.00  0.00    +0.181 C 
BRANCH  28  29
ATOM     29  O   UNK A   1      -0.570  -3.257   1.036  0.00  0.00    -0.393 OA
ATOM     30  H   UNK A   1       0.037  -3.961   1.303  0.00  0.00    +0.209 HD
ENDBRANCH  28  29
ENDBRANCH   1  28
TORSDOF 8
