REMARK  Name = ZINC45118011
REMARK  5 active torsions:
REMARK  status: ('A' for Active; 'I' for Inactive)
REMARK    1  A    between atoms: C_1  and  C_2
REMARK    2  A    between atoms: C_2  and  C_19
REMARK    3  A    between atoms: C_4  and  N_6
REMARK    4  A    between atoms: N_6  and  C_7
REMARK    5  A    between atoms: C_12  and  N_13
REMARK                            x       y       z     vdW  Elec       q    Type
REMARK                         _______ _______ _______ _____ _____    ______ ____
ROOT
ATOM      1  C   UNL     1       2.473  -2.365   1.699  0.00  0.00    +0.050 A 
ATOM      2  C   UNL     1       2.839  -1.597   2.794  0.00  0.00    +0.051 A 
ATOM      3  C   UNL     1       3.884  -2.007   3.606  0.00  0.00    +0.078 A 
ATOM      4  C   UNL     1       4.566  -3.189   3.325  0.00  0.00    +0.144 A 
ATOM      5  C   UNL     1       4.202  -3.957   2.232  0.00  0.00    +0.072 A 
ATOM      6  C   UNL     1       3.151  -3.550   1.421  0.00  0.00    +0.049 A 
ATOM      7  O   UNL     1       5.592  -3.577   4.131  0.00  0.00    -0.481 OA
ATOM      8  C   UNL     1       6.375  -2.536   4.722  0.00  0.00    +0.325 C 
ATOM      9  C   UNL     1       5.463  -1.483   5.299  0.00  0.00    +0.255 C 
ATOM     10  O   UNL     1       5.803  -0.855   6.280  0.00  0.00    -0.272 OA
ATOM     11  N   UNL     1       4.267  -1.242   4.720  0.00  0.00    -0.280 N 
ATOM     12  H   UNL     1       3.682  -0.550   5.067  0.00  0.00    +0.155 HD
ENDROOT
BRANCH   6  13
ATOM     13  N   UNL     1       2.777  -4.330   0.318  0.00  0.00    -0.356 N 
ATOM     14  H   UNL     1       2.046  -4.045  -0.252  0.00  0.00    +0.142 HD
ATOM     15  H   UNL     1       3.249  -5.155   0.124  0.00  0.00    +0.142 HD
ENDBRANCH   6  13
BRANCH   1  16
ATOM     16  N   UNL     1       1.415  -1.953   0.875  0.00  0.00    -0.339 N 
ATOM     17  H   UNL     1       1.156  -2.493   0.112  0.00  0.00    +0.146 HD
BRANCH  16  21
ATOM     18  C   UNL     1      -0.019   1.526   0.010  0.00  0.00    +0.013 C 
ATOM     19  C   UNL     1       0.002  -0.004   0.002  0.00  0.00    -0.015 C 
ATOM     20  C   UNL     1      -0.825  -0.728   1.066  0.00  0.00    +0.031 C 
ATOM     21  C   UNL     1       0.701  -0.708   1.167  0.00  0.00    +0.077 C 
ATOM     22  C   UNL     1       0.102  -0.655  -1.379  0.00  0.00    +0.013 C 
ENDBRANCH  16  21
ENDBRANCH   1  16
TORSDOF 3
