REMARK  Name = ZINC43741176
REMARK  9 active torsions:
REMARK  status: ('A' for Active; 'I' for Inactive)
REMARK    1  A    between atoms: C_1  and  C_2
REMARK    2  A    between atoms: C_19  and  C_21
REMARK    3  A    between atoms: C_21  and  N_22
REMARK    4  A    between atoms: N_22  and  C_23
REMARK    5  A    between atoms: C_23  and  C_25
REMARK    6  A    between atoms: C_23  and  C_32
REMARK    7  A    between atoms: C_25  and  C_26
REMARK    8  A    between atoms: C_37  and  C_39
REMARK    9  A    between atoms: C_37  and  C_40
REMARK                            x       y       z     vdW  Elec       q    Type
REMARK                         _______ _______ _______ _____ _____    ______ ____
ROOT
ATOM      1  N   UNL     1      -1.334  -6.380   0.988  0.00  0.00    +0.382 N 
ATOM      2  H   UNL     1      -1.418  -6.456  -0.014  0.00  0.00    -0.085 HD
ATOM      3  H   UNL     1      -0.411  -6.672   1.272  0.00  0.00    -0.085 HD
ENDROOT
BRANCH   1   4
ATOM      4  C   UNL     1      -1.552  -4.984   1.392  0.00  0.00    -0.067 C 
BRANCH   4  20
ATOM      5  C   UNL     1      -0.019   1.526   0.010  0.00  0.00    +0.012 C 
ATOM      6  C   UNL     1       0.002  -0.004   0.002  0.00  0.00    -0.022 C 
ATOM      7  C   UNL     1       0.725  -0.492  -1.251  0.00  0.00    +0.007 C 
ATOM      8  C   UNL     1       2.117   0.141  -1.318  0.00  0.00    +0.005 C 
ATOM      9  C   UNL     1       2.947  -0.312  -0.113  0.00  0.00    +0.030 C 
ATOM     10  C   UNL     1       2.176  -0.011   1.153  0.00  0.00    -0.073 C 
ATOM     11  C   UNL     1       2.726   0.656   2.138  0.00  0.00    +0.008 C 
ATOM     12  C   UNL     1       0.745  -0.508   1.246  0.00  0.00    +0.021 C 
ATOM     13  C   UNL     1       0.779  -2.035   1.208  0.00  0.00    +0.016 C 
ATOM     14  C   UNL     1      -0.632  -2.622   1.232  0.00  0.00    +0.042 C 
ATOM     15  C   UNL     1      -1.491  -2.015   0.104  0.00  0.00    +0.181 C 
ATOM     16  C   UNL     1      -1.428  -0.527   0.023  0.00  0.00    +0.052 C 
ATOM     17  O   UNL     1      -0.990  -2.646  -1.080  0.00  0.00    -0.461 OA
ATOM     18  C   UNL     1      -0.785  -3.950  -0.786  0.00  0.00    +0.309 C 
ATOM     19  O   UNL     1      -0.817  -4.861  -1.578  0.00  0.00    -0.251 OA
ATOM     20  C   UNL     1      -0.505  -4.090   0.723  0.00  0.00    +0.087 C 
ENDBRANCH   4  20
ENDBRANCH   1   4
BRANCH   1  21
ATOM     21  C   UNL     1      -2.339  -7.237   1.631  0.00  0.00    -0.064 C 
BRANCH  21  22
ATOM     22  C   UNL     1      -2.132  -7.218   3.146  0.00  0.00    -0.020 C 
ATOM     23  C   UNL     1      -0.732  -7.742   3.479  0.00  0.00    +0.030 C 
ATOM     24  C   UNL     1      -0.563  -7.793   5.000  0.00  0.00    +0.161 C 
ATOM     25  O   UNL     1      -1.582  -8.621   5.564  0.00  0.00    -0.374 OA
ATOM     26  C   UNL     1      -2.911  -8.154   5.325  0.00  0.00    +0.064 C 
ATOM     27  C   UNL     1      -3.176  -8.116   3.817  0.00  0.00    +0.036 C 
ATOM     28  C   UNL     1      -3.070  -6.747   5.905  0.00  0.00    +0.041 C 
ATOM     29  C   UNL     1      -3.912  -9.098   5.995  0.00  0.00    +0.041 C 
ENDBRANCH  21  22
BRANCH  21  30
ATOM     30  C   UNL     1      -2.192  -8.670   1.114  0.00  0.00    +0.019 C 
BRANCH  30  31
ATOM     31  C   UNL     1      -2.516  -8.709  -0.357  0.00  0.00    -0.049 A 
ATOM     32  C   UNL     1      -3.815  -8.933  -0.773  0.00  0.00    +0.003 A 
ATOM     33  C   UNL     1      -4.112  -8.969  -2.123  0.00  0.00    +0.000 A 
ATOM     34  C   UNL     1      -3.110  -8.781  -3.056  0.00  0.00    +0.000 A 
ATOM     35  C   UNL     1      -1.811  -8.556  -2.640  0.00  0.00    +0.000 A 
ATOM     36  C   UNL     1      -1.515  -8.516  -1.291  0.00  0.00    +0.003 A 
ENDBRANCH  30  31
ENDBRANCH  21  30
ENDBRANCH   1  21
TORSDOF 6
