REMARK  Name = ZINC09882070
REMARK  6 active torsions:
REMARK  status: ('A' for Active; 'I' for Inactive)
REMARK    1  A    between atoms: C_1  and  C_2
REMARK    2  A    between atoms: N_10  and  C_11
REMARK    3  A    between atoms: C_11  and  C_12
REMARK    4  A    between atoms: C_12  and  C_13
REMARK    5  A    between atoms: N_26  and  C_27
REMARK    6  A    between atoms: C_27  and  C_28
REMARK                            x       y       z     vdW  Elec       q    Type
REMARK                         _______ _______ _______ _____ _____    ______ ____
ROOT
ATOM      1  C   UNL     1      -3.288   2.931   0.050  0.00  0.00    +0.154 A 
ATOM      2  N   UNL     1      -2.547   1.827   0.037  0.00  0.00    -0.211 NA
ATOM      3  C   UNL     1      -1.271   2.150   0.032  0.00  0.00    +0.169 A 
ATOM      4  C   UNL     1      -0.017   1.389   0.010  0.00  0.00    +0.045 A 
ATOM      5  C   UNL     1       0.002  -0.004   0.002  0.00  0.00    +0.014 A 
ATOM      6  C   UNL     1       1.209  -0.668  -0.013  0.00  0.00    +0.001 A 
ATOM      7  C   UNL     1       2.404   0.039  -0.021  0.00  0.00    +0.002 A 
ATOM      8  C   UNL     1       2.408   1.415  -0.013  0.00  0.00    +0.028 A 
ATOM      9  C   UNL     1       1.197   2.113   0.002  0.00  0.00    +0.078 A 
ATOM     10  N   UNL     1       1.162   3.467   0.010  0.00  0.00    -0.214 NA
ATOM     11  C   UNL     1       0.035   4.131   0.025  0.00  0.00    +0.219 A 
ATOM     12  N   UNL     1      -1.186   3.516   0.033  0.00  0.00    -0.181 N 
ATOM     13  N   UNL     1      -2.507   3.983   0.049  0.00  0.00    -0.147 NA
ATOM     14  N   UNL     1       0.081   5.505   0.032  0.00  0.00    -0.311 N 
ATOM     15  H   UNL     1      -0.743   6.017   0.043  0.00  0.00    +0.149 HD
ENDROOT
BRANCH   1  16
ATOM     16  C   UNL     1      -4.794   2.967   0.066  0.00  0.00    +0.099 C 
BRANCH  16  17
ATOM     17  C   UNL     1      -5.319   2.987  -1.371  0.00  0.00    +0.131 C 
BRANCH  17  27
ATOM     18  C   UNL     1      -7.047   5.552  -1.339  0.00  0.00    +0.086 C 
ATOM     19  C   UNL     1      -7.564   4.136  -1.342  0.00  0.00    +0.108 A 
ATOM     20  N   UNL     1      -8.821   3.801  -1.331  0.00  0.00    -0.233 NA
ATOM     21  C   UNL     1      -8.933   2.448  -1.337  0.00  0.00    +0.089 A 
ATOM     22  C   UNL     1     -10.022   1.572  -1.331  0.00  0.00    +0.030 A 
ATOM     23  C   UNL     1      -9.809   0.222  -1.341  0.00  0.00    +0.002 A 
ATOM     24  C   UNL     1      -8.519  -0.291  -1.357  0.00  0.00    +0.002 A 
ATOM     25  C   UNL     1      -7.431   0.555  -1.363  0.00  0.00    +0.028 A 
ATOM     26  C   UNL     1      -7.628   1.929  -1.359  0.00  0.00    +0.069 A 
ATOM     27  N   UNL     1      -6.784   3.022  -1.356  0.00  0.00    -0.327 N 
ENDBRANCH  17  27
ENDBRANCH  16  17
ENDBRANCH   1  16
BRANCH  14  28
ATOM     28  C   UNL     1       1.373   6.195   0.023  0.00  0.00    +0.136 C 
BRANCH  28  29
ATOM     29  C   UNL     1       1.143   7.708   0.033  0.00  0.00    +0.135 C 
ATOM     30  C   UNL     1       2.488   8.457  -0.102  0.00  0.00    +0.035 C 
ATOM     31  C   UNL     1       2.324   9.690   0.814  0.00  0.00    +0.031 C 
ATOM     32  C   UNL     1       0.901   9.540   1.395  0.00  0.00    +0.160 C 
ATOM     33  O   UNL     1       0.614   8.127   1.310  0.00  0.00    -0.375 OA
ENDBRANCH  28  29
ENDBRANCH  14  28
TORSDOF 5
