REMARK  Name = ZINC24090571
REMARK  7 active torsions:
REMARK  status: ('A' for Active; 'I' for Inactive)
REMARK    1  A    between atoms: C_1  and  C_2
REMARK    2  A    between atoms: C_2  and  N_3
REMARK    3  A    between atoms: C_13  and  S_16
REMARK    4  A    between atoms: S_16  and  C_17
REMARK    5  A    between atoms: C_17  and  C_19
REMARK    6  A    between atoms: C_17  and  C_20
REMARK    7  A    between atoms: N_25  and  C_26
REMARK                            x       y       z     vdW  Elec       q    Type
REMARK                         _______ _______ _______ _____ _____    ______ ____
ROOT
ATOM      1  C   UNL     1       1.232   7.154   3.544  0.00  0.00    +0.137 C 
ATOM      2  C   UNL     1       1.573   6.458   4.863  0.00  0.00    +0.029 C 
ENDROOT
BRANCH   1   3
ATOM      3  C   UNL     1       2.033   8.425   3.425  0.00  0.00    +0.234 C 
ATOM      4  O   UNL     1       3.035   8.448   2.744  0.00  0.00    -0.274 OA
ATOM      5  N   UNL     1       1.634   9.536   4.076  0.00  0.00    -0.239 N 
ATOM      6  C   UNL     1       2.350  10.673   3.969  0.00  0.00    +0.306 C 
ATOM      7  O   UNL     1       3.355  10.696   3.287  0.00  0.00    -0.252 OA
ATOM      8  N   UNL     1       1.951  11.784   4.620  0.00  0.00    -0.294 N 
ATOM      9  H   UNL     1       0.724   9.515   4.694  0.00  0.00    +0.159 HD
ATOM     10  H   UNL     1       1.042  11.762   5.238  0.00  0.00    +0.151 HD
BRANCH   8  11
ATOM     11  C   UNL     1       2.730  13.019   4.505  0.00  0.00    +0.037 C 
ATOM     12  C   UNL     1       4.150  12.778   5.021  0.00  0.00    +0.029 C 
ATOM     13  C   UNL     1       4.963  14.069   4.900  0.00  0.00    -0.008 C 
ATOM     14  C   UNL     1       4.298  15.169   5.730  0.00  0.00    +0.007 C 
ATOM     15  C   UNL     1       2.878  15.411   5.214  0.00  0.00    -0.008 C 
ATOM     16  C   UNL     1       2.066  14.120   5.334  0.00  0.00    +0.029 C 
ATOM     17  C   UNL     1       2.936  15.842   3.747  0.00  0.00    +0.007 C 
ATOM     18  C   UNL     1       3.600  14.741   2.917  0.00  0.00    -0.008 C 
ATOM     19  C   UNL     1       5.020  14.500   3.434  0.00  0.00    +0.007 C 
ATOM     20  C   UNL     1       2.787  13.451   3.038  0.00  0.00    +0.029 C 
ENDBRANCH   8  11
ENDBRANCH   1   3
BRANCH   1  21
ATOM     21  S   UNL     1       1.633   6.057   2.161  0.00  0.00    -0.072 S 
BRANCH  21  32
ATOM     22  N   UNL     1      -0.698   1.558   1.213  0.00  0.00    -0.324 N 
ATOM     23  C   UNL     1      -1.713   0.875   1.865  0.00  0.00    +0.053 A 
ATOM     24  C   UNL     1      -2.335  -0.343   1.611  0.00  0.00    +0.026 A 
ATOM     25  C   UNL     1      -3.338  -0.792   2.442  0.00  0.00    +0.002 A 
ATOM     26  C   UNL     1      -3.739  -0.040   3.535  0.00  0.00    +0.001 A 
ATOM     27  C   UNL     1      -3.135   1.170   3.804  0.00  0.00    +0.012 A 
ATOM     28  C   UNL     1      -2.119   1.636   2.972  0.00  0.00    +0.029 A 
ATOM     29  C   UNL     1      -1.285   2.850   2.971  0.00  0.00    +0.138 A 
ATOM     30  C   UNL     1      -0.423   2.737   1.860  0.00  0.00    +0.165 A 
ATOM     31  N   UNL     1       0.448   3.717   1.635  0.00  0.00    -0.201 NA
ATOM     32  C   UNL     1       0.480   4.758   2.457  0.00  0.00    +0.212 A 
ATOM     33  N   UNL     1      -0.340   4.839   3.500  0.00  0.00    -0.122 NA
ATOM     34  N   UNL     1      -1.206   3.917   3.751  0.00  0.00    -0.143 NA
BRANCH  22  36
ATOM     35  C   UNL     1      -0.753   1.593  -1.232  0.00  0.00    +0.027 C 
ATOM     36  C   UNL     1      -0.013   1.086   0.008  0.00  0.00    +0.120 C 
ENDBRANCH  22  36
ENDBRANCH  21  32
ENDBRANCH   1  21
TORSDOF 5
