REMARK  Name = ZINC14541831
REMARK  12 active torsions:
REMARK  status: ('A' for Active; 'I' for Inactive)
REMARK    1  A    between atoms: C_1  and  C_2
REMARK    2  A    between atoms: C_2  and  N_3
REMARK    3  A    between atoms: N_3  and  C_4
REMARK    4  A    between atoms: C_4  and  C_5
REMARK    5  A    between atoms: C_6  and  C_8
REMARK    6  A    between atoms: C_8  and  O_9
REMARK    7  A    between atoms: O_9  and  C_10
REMARK    8  A    between atoms: N_17  and  C_19
REMARK    9  A    between atoms: C_19  and  C_20
REMARK   10  A    between atoms: C_20  and  C_21
REMARK   11  A    between atoms: C_27  and  C_29
REMARK   12  A    between atoms: C_30  and  C_35
REMARK                            x       y       z     vdW  Elec       q    Type
REMARK                         _______ _______ _______ _____ _____    ______ ____
ROOT
ATOM      1  C   UNL     1       0.548   3.907  -1.331  0.00  0.00    +0.153 C 
ATOM      2  C   UNL     1      -0.963   3.991  -1.515  0.00  0.00    +0.141 C 
ATOM      3  N   UNL     1      -1.606   2.703  -1.267  0.00  0.00    -0.284 N 
ATOM      4  C   UNL     1      -1.536   2.083   0.055  0.00  0.00    +0.204 C 
ATOM      5  C   UNL     1      -0.212   1.365   0.192  0.00  0.00    +0.233 C 
ATOM      6  O   UNL     1      -0.174   0.153   0.247  0.00  0.00    -0.274 OA
ATOM      7  N   UNL     1       0.922   2.081   0.246  0.00  0.00    -0.297 N 
ATOM      8  C   UNL     1       0.883   3.542   0.117  0.00  0.00    +0.141 C 
ATOM      9  C   UNL     1      -2.267   2.081  -2.263  0.00  0.00    +0.285 C 
ATOM     10  O   UNL     1      -2.405   2.633  -3.339  0.00  0.00    -0.267 OA
ENDROOT
BRANCH   9  11
ATOM     11  C   UNL     1      -2.820   0.742  -2.050  0.00  0.00    +0.220 C 
ATOM     12  C   UNL     1      -4.061   0.617  -1.563  0.00  0.00    +0.141 C 
ATOM     13  O   UNL     1      -4.619  -0.593  -1.345  0.00  0.00    -0.489 OA
ATOM     14  C   UNL     1      -3.998  -1.715  -1.984  0.00  0.00    +0.269 C 
ATOM     15  C   UNL     1      -2.480  -1.596  -1.788  0.00  0.00    +0.270 C 
ATOM     16  O   UNL     1      -2.057  -0.347  -2.347  0.00  0.00    -0.481 OA
ATOM     17  C   UNL     1      -4.858   1.858  -1.254  0.00  0.00    +0.089 C 
ENDBRANCH   9  11
BRANCH   1  18
ATOM     18  O   UNL     1       1.132   5.171  -1.649  0.00  0.00    -0.364 OA
BRANCH  18  19
ATOM     19  C   UNL     1       1.487   5.319  -3.025  0.00  0.00    +0.256 C 
BRANCH  19  21
ATOM     20  N   UNL     1       2.503   7.045  -4.476  0.00  0.00    -0.300 N 
ATOM     21  C   UNL     1       2.091   6.682  -3.245  0.00  0.00    +0.241 C 
ATOM     22  O   UNL     1       2.206   7.451  -2.315  0.00  0.00    -0.273 OA
BRANCH  20  24
ATOM     23  C   UNL     1       1.006   6.327  -6.271  0.00  0.00    +0.024 C 
ATOM     24  C   UNL     1       2.364   6.116  -5.599  0.00  0.00    +0.104 C 
ENDBRANCH  20  24
BRANCH  20  25
ATOM     25  C   UNL     1       3.090   8.370  -4.690  0.00  0.00    +0.104 C 
ATOM     26  C   UNL     1       4.604   8.297  -4.483  0.00  0.00    +0.024 C 
ENDBRANCH  20  25
ENDBRANCH  19  21
ENDBRANCH  18  19
ENDBRANCH   1  18
BRANCH   7  27
ATOM     27  C   UNL     1       2.206   1.401   0.436  0.00  0.00    +0.112 C 
BRANCH  27  28
ATOM     28  C   UNL     1       2.799   1.041  -0.928  0.00  0.00    +0.054 C 
BRANCH  28  29
ATOM     29  C   UNL     1       4.119   0.341  -0.733  0.00  0.00    -0.046 A 
ATOM     30  C   UNL     1       5.289   1.075  -0.682  0.00  0.00    +0.004 A 
ATOM     31  C   UNL     1       6.500   0.433  -0.499  0.00  0.00    +0.000 A 
ATOM     32  C   UNL     1       6.541  -0.943  -0.376  0.00  0.00    +0.000 A 
ATOM     33  C   UNL     1       5.371  -1.677  -0.432  0.00  0.00    +0.000 A 
ATOM     34  C   UNL     1       4.160  -1.035  -0.611  0.00  0.00    +0.004 A 
ENDBRANCH  28  29
ENDBRANCH  27  28
ENDBRANCH   7  27
TORSDOF 9
