REMARK  Name = ZINC40633822
REMARK  6 active torsions:
REMARK  status: ('A' for Active; 'I' for Inactive)
REMARK    1  A    between atoms: C_1  and  O_2
REMARK    2  A    between atoms: O_2  and  C_3
REMARK    3  A    between atoms: C_6  and  C_10
REMARK    4  A    between atoms: N_12  and  C_13
REMARK    5  A    between atoms: C_13  and  C_14
REMARK    6  A    between atoms: N_18  and  C_20
REMARK                            x       y       z     vdW  Elec       q    Type
REMARK                         _______ _______ _______ _____ _____    ______ ____
ROOT
ATOM      1  C   UNL     1       1.238  -4.145  -2.033  0.00  0.00    +0.199 C 
ATOM      2  O   UNL     1       0.198  -4.753  -2.171  0.00  0.00    -0.278 OA
ATOM      3  N   UNL     1       2.374  -4.810  -1.743  0.00  0.00    -0.316 N 
ATOM      4  H   UNL     1       3.206  -4.324  -1.633  0.00  0.00    +0.149 HD
ENDROOT
BRANCH   1   7
ATOM      5  C   UNL     1       0.652  -0.570  -1.138  0.00  0.00    +0.100 C 
ATOM      6  C   UNL     1       1.245  -1.962  -0.796  0.00  0.00    +0.023 C 
ATOM      7  C   UNL     1       1.260  -2.646  -2.186  0.00  0.00    +0.018 C 
ATOM      8  N   UNL     1       0.027  -2.175  -2.852  0.00  0.00    +0.388 N 
ATOM      9  C   UNL     1      -0.372  -0.887  -2.248  0.00  0.00    -0.050 C 
ATOM     10  H   UNL     1       0.201  -2.046  -3.837  0.00  0.00    -0.085 HD
ATOM     11  H   UNL     1      -0.708  -2.855  -2.724  0.00  0.00    -0.085 HD
BRANCH   5  13
ATOM     12  C   UNL     1      -0.017   1.425   0.010  0.00  0.00    +0.194 C 
ATOM     13  O   UNL     1       0.002  -0.004   0.002  0.00  0.00    -0.382 OA
ENDBRANCH   5  13
ENDBRANCH   1   7
BRANCH   3  14
ATOM     14  C   UNL     1       2.352  -6.268  -1.595  0.00  0.00    +0.105 C 
BRANCH  14  15
ATOM     15  C   UNL     1       3.760  -6.768  -1.270  0.00  0.00    -0.012 C 
ATOM     16  C   UNL     1       4.696  -6.566  -2.484  0.00  0.00    -0.015 C 
ATOM     17  C   UNL     1       5.560  -7.852  -2.473  0.00  0.00    -0.078 C 
ATOM     18  N   UNL     1       4.597  -8.905  -2.062  0.00  0.00    +0.382 N 
ATOM     19  C   UNL     1       3.743  -8.288  -1.021  0.00  0.00    -0.074 C 
ATOM     20  H   UNL     1       4.035  -9.190  -2.850  0.00  0.00    -0.081 HD
BRANCH  18  21
ATOM     21  C   UNL     1       5.316 -10.060  -1.506  0.00  0.00    -0.069 C 
ATOM     22  C   UNL     1       5.271 -11.368  -2.298  0.00  0.00    -0.017 C 
ATOM     23  C   UNL     1       4.479 -11.235  -0.996  0.00  0.00    -0.017 C 
ENDBRANCH  18  21
ENDBRANCH  14  15
ENDBRANCH   3  14
TORSDOF 5
