REMARK  Name = ZINC32984918
REMARK  6 active torsions:
REMARK  status: ('A' for Active; 'I' for Inactive)
REMARK    1  A    between atoms: C_1  and  C_2
REMARK    2  A    between atoms: C_2  and  C_26
REMARK    3  A    between atoms: N_17  and  C_18
REMARK    4  A    between atoms: C_18  and  C_19
REMARK    5  A    between atoms: C_19  and  C_20
REMARK    6  A    between atoms: N_28  and  C_29
REMARK                            x       y       z     vdW  Elec       q    Type
REMARK                         _______ _______ _______ _____ _____    ______ ____
ROOT
ATOM      1  C   UNL     1       0.609   1.800   5.878  0.00  0.00    +0.040 C 
ATOM      2  C   UNL     1       1.158   3.018   5.131  0.00  0.00    +0.096 C 
ATOM      3  C   UNL     1       2.654   3.157   5.415  0.00  0.00    -0.042 C 
ATOM      4  N   UNL     1       2.845   3.521   6.827  0.00  0.00    +0.392 N 
ATOM      5  C   UNL     1       4.265   3.433   7.193  0.00  0.00    -0.042 C 
ATOM      6  C   UNL     1       4.476   3.910   8.605  0.00  0.00    -0.061 A 
ATOM      7  C   UNL     1       5.654   3.564   9.250  0.00  0.00    +0.002 A 
ATOM      8  C   UNL     1       5.891   3.984  10.543  0.00  0.00    +0.000 A 
ATOM      9  C   UNL     1       4.950   4.756  11.200  0.00  0.00    +0.000 A 
ATOM     10  C   UNL     1       3.777   5.100  10.560  0.00  0.00    +0.004 A 
ATOM     11  C   UNL     1       3.537   4.676   9.261  0.00  0.00    -0.047 A 
ATOM     12  C   UNL     1       2.240   5.071   8.604  0.00  0.00    +0.029 C 
ATOM     13  C   UNL     1       2.339   4.877   7.088  0.00  0.00    +0.024 C 
ATOM     14  C   UNL     1       0.984   5.064   6.473  0.00  0.00    +0.203 C 
ATOM     15  O   UNL     1       0.331   6.032   6.801  0.00  0.00    -0.277 OA
ATOM     16  N   UNL     1       0.459   4.219   5.580  0.00  0.00    -0.290 N 
ATOM     17  H   UNL     1       2.275   2.810   7.444  0.00  0.00    -0.080 HD
ENDROOT
BRANCH   2  18
ATOM     18  C   UNL     1       0.943   2.837   3.650  0.00  0.00    +0.235 C 
ATOM     19  O   UNL     1       0.792   1.724   3.191  0.00  0.00    -0.274 OA
ATOM     20  N   UNL     1       0.920   3.911   2.837  0.00  0.00    -0.311 N 
ATOM     21  H   UNL     1       0.975   4.924   3.261  0.00  0.00    +0.149 HD
BRANCH  20  22
ATOM     22  C   UNL     1       0.821   3.729   1.386  0.00  0.00    +0.073 C 
ATOM     23  C   UNL     1      -0.624   3.514   1.021  0.00  0.00    +0.022 C 
ATOM     24  C   UNL     1      -0.688   2.519  -0.156  0.00  0.00    +0.002 C 
ATOM     25  C   UNL     1      -0.413   3.156  -1.435  0.00  0.00    +0.000 C 
ATOM     26  C   UNL     1       1.006   3.756  -1.500  0.00  0.00    +0.000 C 
ATOM     27  C   UNL     1       0.998   5.082  -0.788  0.00  0.00    +0.002 C 
ATOM     28  C   UNL     1       1.426   4.961   0.687  0.00  0.00    +0.022 C 
ENDBRANCH  20  22
ENDBRANCH   2  18
BRANCH  16  29
ATOM     29  C   UNL     1      -0.869   4.508   5.033  0.00  0.00    +0.113 C 
BRANCH  29  30
ATOM     30  C   UNL     1      -1.941   3.978   5.987  0.00  0.00    +0.054 C 
BRANCH  30  31
ATOM     31  C   UNL     1      -3.307   4.275   5.423  0.00  0.00    -0.046 A 
ATOM     32  C   UNL     1      -3.944   5.459   5.743  0.00  0.00    +0.004 A 
ATOM     33  C   UNL     1      -5.195   5.734   5.223  0.00  0.00    +0.000 A 
ATOM     34  C   UNL     1      -5.812   4.820   4.390  0.00  0.00    +0.000 A 
ATOM     35  C   UNL     1      -5.178   3.633   4.074  0.00  0.00    +0.000 A 
ATOM     36  C   UNL     1      -3.925   3.361   4.591  0.00  0.00    +0.004 A 
ENDBRANCH  30  31
ENDBRANCH  29  30
ENDBRANCH  16  29
TORSDOF 5
