REMARK  Name = ZINC52909816
REMARK  13 active torsions:
REMARK  status: ('A' for Active; 'I' for Inactive)
REMARK    1  A    between atoms: C_1  and  C_2
REMARK    2  A    between atoms: C_2  and  C_3
REMARK    3  A    between atoms: C_7  and  C_29
REMARK    4  A    between atoms: C_8  and  N_9
REMARK    5  A    between atoms: C_10  and  C_12
REMARK    6  A    between atoms: C_12  and  C_14
REMARK    7  A    between atoms: C_12  and  N_15
REMARK    8  A    between atoms: C_18  and  N_21
REMARK    9  A    between atoms: C_22  and  O_24
REMARK   10  A    between atoms: O_24  and  C_25
REMARK   11  A    between atoms: C_25  and  C_26
REMARK   12  A    between atoms: C_25  and  C_27
REMARK   13  A    between atoms: C_25  and  C_28
REMARK                            x       y       z     vdW  Elec       q    Type
REMARK                         _______ _______ _______ _____ _____    ______ ____
ROOT
ATOM      1  N   UNL     1      -4.099  -1.362   4.774  0.00  0.00    +0.387 N 
ATOM      2  C   UNL     1      -3.637  -0.524   5.887  0.00  0.00    -0.076 C 
ATOM      3  C   UNL     1      -4.100  -1.131   7.214  0.00  0.00    +0.004 C 
ATOM      4  C   UNL     1      -5.630  -1.205   7.229  0.00  0.00    +0.073 C 
ATOM      5  C   UNL     1      -6.103  -2.019   6.021  0.00  0.00    +0.004 C 
ATOM      6  C   UNL     1      -5.566  -1.380   4.739  0.00  0.00    -0.076 C 
ATOM      7  H   UNL     1      -3.755  -2.303   4.899  0.00  0.00    -0.081 HD
ENDROOT
BRANCH   4   8
ATOM      8  N   UNL     1      -6.077  -1.854   8.463  0.00  0.00    -0.278 N 
ATOM      9  C   UNL     1      -7.308  -1.602   8.950  0.00  0.00    +0.401 C 
ATOM     10  O   UNL     1      -8.047  -0.836   8.364  0.00  0.00    -0.226 OA
ATOM     11  H   UNL     1      -5.487  -2.466   8.931  0.00  0.00    +0.152 HD
BRANCH   9  12
ATOM     12  O   UNL     1      -7.719  -2.199  10.085  0.00  0.00    -0.445 OA
BRANCH  12  13
ATOM     13  C   UNL     1      -9.036  -1.885  10.543  0.00  0.00    +0.107 C 
ATOM     14  C   UNL     1     -10.056  -2.286   9.475  0.00  0.00    +0.055 C 
ATOM     15  C   UNL     1      -9.322  -2.652  11.835  0.00  0.00    +0.055 C 
ATOM     16  C   UNL     1      -9.139  -0.382  10.808  0.00  0.00    +0.055 C 
ENDBRANCH  12  13
ENDBRANCH   9  12
ENDBRANCH   4   8
BRANCH   1  17
ATOM     17  C   UNL     1      -3.587  -0.819   3.509  0.00  0.00    +0.016 C 
ATOM     18  C   UNL     1      -4.078  -1.685   2.347  0.00  0.00    -0.004 C 
BRANCH  17  20
ATOM     19  N   UNL     1      -1.392   0.085   2.812  0.00  0.00    -0.286 N 
ATOM     20  C   UNL     1      -2.080  -0.821   3.535  0.00  0.00    +0.203 C 
ATOM     21  O   UNL     1      -1.486  -1.638   4.207  0.00  0.00    -0.277 OA
ATOM     22  H   UNL     1      -1.867   0.768   2.313  0.00  0.00    +0.155 HD
BRANCH  19  28
ATOM     23  C   UNL     1       0.742   1.207   2.945  0.00  0.00    -0.026 A 
ATOM     24  C   UNL     1       2.123   1.159   2.920  0.00  0.00    +0.005 A 
ATOM     25  C   UNL     1       2.771  -0.047   2.729  0.00  0.00    +0.001 A 
ATOM     26  C   UNL     1       2.040  -1.210   2.562  0.00  0.00    +0.005 A 
ATOM     27  C   UNL     1       0.660  -1.169   2.586  0.00  0.00    -0.029 A 
ATOM     28  C   UNL     1       0.006   0.041   2.783  0.00  0.00    +0.039 A 
ATOM     29  C   UNL     1      -0.136  -2.435   2.403  0.00  0.00    +0.045 C 
BRANCH  23  31
ATOM     30  C   UNL     1      -0.289   2.696   4.638  0.00  0.00    +0.009 C 
ATOM     31  C   UNL     1       0.037   2.522   3.153  0.00  0.00    +0.033 C 
ENDBRANCH  23  31
ENDBRANCH  19  28
ENDBRANCH  17  20
ENDBRANCH   1  17
TORSDOF 7
