REMARK  Name = ZINC41856589
REMARK  11 active torsions:
REMARK  status: ('A' for Active; 'I' for Inactive)
REMARK    1  A    between atoms: C_1  and  C_2
REMARK    2  A    between atoms: C_2  and  C_29
REMARK    3  A    between atoms: C_6  and  C_28
REMARK    4  A    between atoms: C_7  and  N_9
REMARK    5  A    between atoms: C_10  and  C_12
REMARK    6  A    between atoms: N_14  and  C_15
REMARK    7  A    between atoms: C_18  and  C_21
REMARK    8  A    between atoms: N_23  and  C_24
REMARK    9  A    between atoms: C_24  and  C_25
REMARK   10  A    between atoms: C_24  and  C_26
REMARK   11  A    between atoms: C_24  and  C_27
REMARK                            x       y       z     vdW  Elec       q    Type
REMARK                         _______ _______ _______ _____ _____    ______ ____
ROOT
ATOM      1  C   UNL     1       3.015  -5.073   0.585  0.00  0.00    +0.303 C 
ATOM      2  O   UNL     1       3.453  -4.598  -0.442  0.00  0.00    -0.265 OA
ATOM      3  N   UNL     1       3.468  -6.265   1.023  0.00  0.00    -0.278 N 
ATOM      4  H   UNL     1       3.069  -6.678   1.804  0.00  0.00    +0.155 HD
ENDROOT
BRANCH   3   5
ATOM      5  C   UNL     1       4.508  -6.904   0.352  0.00  0.00    +0.034 A 
ATOM      6  C   UNL     1       5.519  -6.151  -0.238  0.00  0.00    +0.024 A 
ATOM      7  C   UNL     1       6.549  -6.779  -0.902  0.00  0.00    +0.015 A 
ATOM      8  C   UNL     1       6.578  -8.174  -0.982  0.00  0.00    +0.037 A 
ATOM      9  C   UNL     1       5.562  -8.927  -0.388  0.00  0.00    +0.015 A 
ATOM     10  C   UNL     1       4.538  -8.293   0.278  0.00  0.00    +0.024 A 
BRANCH   8  11
ATOM     11  C   UNL     1       7.681  -8.851  -1.694  0.00  0.00    +0.244 C 
ATOM     12  O   UNL     1       8.564  -8.194  -2.211  0.00  0.00    -0.270 OA
ATOM     13  N   UNL     1       7.708 -10.196  -1.770  0.00  0.00    -0.307 N 
ATOM     14  H   UNL     1       7.003 -10.720  -1.358  0.00  0.00    +0.150 HD
BRANCH  13  15
ATOM     15  C   UNL     1       8.802 -10.868  -2.476  0.00  0.00    +0.026 C 
ATOM     16  C   UNL     1      10.133 -10.508  -1.813  0.00  0.00    +0.031 C 
ATOM     17  C   UNL     1       8.595 -12.382  -2.415  0.00  0.00    +0.031 C 
ATOM     18  C   UNL     1       8.821 -10.414  -3.937  0.00  0.00    +0.031 C 
ENDBRANCH  13  15
ENDBRANCH   8  11
ENDBRANCH   3   5
BRANCH   1  20
ATOM     19  N   UNL     1       1.523  -3.146   0.928  0.00  0.00    -0.304 N 
ATOM     20  C   UNL     1       1.976  -4.338   1.365  0.00  0.00    +0.300 C 
ATOM     21  O   UNL     1       1.538  -4.813   2.393  0.00  0.00    -0.265 OA
ATOM     22  H   UNL     1       1.873  -2.766   0.107  0.00  0.00    +0.149 HD
BRANCH  19  29
ATOM     23  C   UNL     1      -0.936   0.357  -0.487  0.00  0.00    +0.012 C 
ATOM     24  C   UNL     1      -0.510  -1.024   0.016  0.00  0.00    -0.025 C 
ATOM     25  C   UNL     1      -1.674  -1.762   0.766  0.00  0.00    -0.003 C 
ATOM     26  C   UNL     1      -1.896  -0.800   1.973  0.00  0.00    +0.005 C 
ATOM     27  C   UNL     1      -0.488  -0.248   2.296  0.00  0.00    +0.009 C 
ATOM     28  C   UNL     1       0.451  -0.929   1.254  0.00  0.00    -0.008 C 
ATOM     29  C   UNL     1       0.503  -2.424   1.693  0.00  0.00    +0.080 C 
ATOM     30  C   UNL     1      -0.904  -2.976   1.370  0.00  0.00    +0.027 C 
ATOM     31  C   UNL     1       1.795  -0.239   1.015  0.00  0.00    +0.013 C 
ATOM     32  C   UNL     1       0.084  -1.877  -1.107  0.00  0.00    +0.012 C 
ENDBRANCH  19  29
ENDBRANCH   1  20
TORSDOF 5
