REMARK  Name = ZINC35747048
REMARK  18 active torsions:
REMARK  status: ('A' for Active; 'I' for Inactive)
REMARK    1  A    between atoms: C_1  and  C_2
REMARK    2  A    between atoms: C_2  and  O_3
REMARK    3  A    between atoms: O_3  and  C_4
REMARK    4  A    between atoms: C_4  and  C_6
REMARK    5  A    between atoms: C_7  and  C_37
REMARK    6  A    between atoms: C_13  and  C_17
REMARK    7  A    between atoms: C_17  and  N_18
REMARK    8  A    between atoms: N_18  and  C_19
REMARK    9  A    between atoms: N_18  and  C_24
REMARK   10  A    between atoms: C_19  and  C_20
REMARK   11  A    between atoms: C_20  and  C_21
REMARK   12  A    between atoms: C_21  and  O_22
REMARK   13  A    between atoms: O_22  and  C_23
REMARK   14  A    between atoms: C_24  and  C_25
REMARK   15  A    between atoms: C_25  and  C_27
REMARK   16  A    between atoms: C_25  and  O_36
REMARK   17  A    between atoms: C_27  and  O_28
REMARK   18  A    between atoms: O_28  and  C_29
REMARK                            x       y       z     vdW  Elec       q    Type
REMARK                         _______ _______ _______ _____ _____    ______ ____
ROOT
ATOM      1  N   UNL     1      -9.230  -3.130   0.153  0.00  0.00    +0.386 N 
ATOM      2  H   UNL     1      -8.862  -2.438   0.789  0.00  0.00    -0.081 HD
ENDROOT
BRANCH   1   3
ATOM      3  C   UNL     1      -8.436  -4.361   0.257  0.00  0.00    -0.003 C 
BRANCH   3  11
ATOM      4  C   UNL     1      -2.862  -1.606  -0.896  0.00  0.00    +0.102 A 
ATOM      5  C   UNL     1      -3.044  -2.937  -0.653  0.00  0.00    -0.015 A 
ATOM      6  C   UNL     1      -4.328  -3.429  -0.411  0.00  0.00    +0.076 A 
ATOM      7  C   UNL     1      -4.761  -4.816  -0.127  0.00  0.00    +0.260 A 
ATOM      8  O   UNL     1      -3.951  -5.725  -0.077  0.00  0.00    -0.267 OA
ATOM      9  N   UNL     1      -6.072  -5.048   0.075  0.00  0.00    -0.312 N 
ATOM     10  H   UNL     1      -6.372  -5.951   0.262  0.00  0.00    +0.170 HD
ATOM     11  C   UNL     1      -6.982  -4.044   0.023  0.00  0.00    +0.094 A 
ATOM     12  N   UNL     1      -6.635  -2.810  -0.225  0.00  0.00    -0.229 NA
ATOM     13  C   UNL     1      -5.370  -2.473  -0.439  0.00  0.00    +0.116 A 
ATOM     14  S   UNL     1      -4.520  -0.954  -0.789  0.00  0.00    -0.062 S 
ATOM     15  C   UNL     1      -1.863  -3.872  -0.646  0.00  0.00    +0.046 C 
BRANCH   4  16
ATOM     16  C   UNL     1      -1.614  -0.890  -1.171  0.00  0.00    +0.346 C 
ATOM     17  O   UNL     1      -0.560  -1.496  -1.208  0.00  0.00    -0.244 OA
BRANCH  16  18
ATOM     18  O   UNL     1      -1.634   0.442  -1.383  0.00  0.00    -0.461 OA
BRANCH  18  20
ATOM     19  C   UNL     1      -0.601   2.575  -1.859  0.00  0.00    +0.048 C 
ATOM     20  C   UNL     1      -0.380   1.076  -1.646  0.00  0.00    +0.229 C 
ENDBRANCH  18  20
ENDBRANCH  16  18
ENDBRANCH   4  16
ENDBRANCH   3  11
ENDBRANCH   1   3
BRANCH   1  21
ATOM     21  C   UNL     1      -9.161  -2.617  -1.222  0.00  0.00    -0.076 C 
BRANCH  21  22
ATOM     22  C   UNL     1      -9.862  -1.259  -1.296  0.00  0.00    +0.009 C 
BRANCH  22  23
ATOM     23  C   UNL     1      -9.672  -0.663  -2.693  0.00  0.00    +0.157 C 
BRANCH  23  24
ATOM     24  O   UNL     1     -10.327   0.605  -2.762  0.00  0.00    -0.383 OA
ATOM     25  C   UNL     1     -10.211   1.250  -4.032  0.00  0.00    +0.193 C 
ENDBRANCH  23  24
ENDBRANCH  22  23
ENDBRANCH  21  22
ENDBRANCH   1  21
BRANCH   1  26
ATOM     26  C   UNL     1     -10.628  -3.417   0.499  0.00  0.00    -0.043 C 
BRANCH  26  27
ATOM     27  C   UNL     1     -10.717  -3.822   1.971  0.00  0.00    +0.135 C 
BRANCH  27  28
ATOM     28  O   UNL     1     -10.249  -2.747   2.789  0.00  0.00    -0.390 OA
ATOM     29  H   UNL     1     -10.794  -1.950   2.741  0.00  0.00    +0.210 HD
ENDBRANCH  27  28
BRANCH  27  30
ATOM     30  C   UNL     1     -12.171  -4.137   2.327  0.00  0.00    +0.258 C 
BRANCH  30  31
ATOM     31  O   UNL     1     -12.238  -4.626   3.668  0.00  0.00    -0.489 OA
BRANCH  31  32
ATOM     32  C   UNL     1     -13.468  -4.956   4.144  0.00  0.00    +0.121 A 
ATOM     33  C   UNL     1     -14.586  -4.817   3.334  0.00  0.00    +0.047 A 
ATOM     34  C   UNL     1     -15.835  -5.152   3.820  0.00  0.00    +0.023 A 
ATOM     35  C   UNL     1     -15.972  -5.626   5.113  0.00  0.00    +0.041 A 
ATOM     36  C   UNL     1     -14.858  -5.765   5.922  0.00  0.00    +0.023 A 
ATOM     37  C   UNL     1     -13.606  -5.437   5.438  0.00  0.00    +0.047 A 
ATOM     38 CL   UNL     1     -17.542  -6.047   5.721  0.00  0.00    -0.084 Cl
ENDBRANCH  31  32
ENDBRANCH  30  31
ENDBRANCH  27  30
ENDBRANCH  26  27
ENDBRANCH   1  26
TORSDOF 15
