REMARK  Name = ZINC08762025
REMARK  11 active torsions:
REMARK  status: ('A' for Active; 'I' for Inactive)
REMARK    1  A    between atoms: C_1  and  C_2
REMARK    2  A    between atoms: C_2  and  O_3
REMARK    3  A    between atoms: O_3  and  C_4
REMARK    4  A    between atoms: C_4  and  C_6
REMARK    5  A    between atoms: C_7  and  N_18
REMARK    6  A    between atoms: C_9  and  N_15
REMARK    7  A    between atoms: N_15  and  C_16
REMARK    8  A    between atoms: N_15  and  C_17
REMARK    9  A    between atoms: N_20  and  O_21
REMARK   10  A    between atoms: O_21  and  C_22
REMARK   11  A    between atoms: C_22  and  C_23
REMARK                            x       y       z     vdW  Elec       q    Type
REMARK                         _______ _______ _______ _____ _____    ______ ____
ROOT
ATOM      1  C   UNL     1       1.148  -2.483  -2.952  0.00  0.00    +0.120 A 
ATOM      2  C   UNL     1       1.861  -3.636  -2.695  0.00  0.00    +0.064 A 
ATOM      3  C   UNL     1       3.204  -3.750  -3.237  0.00  0.00    +0.049 A 
ATOM      4  C   UNL     1       4.125  -4.830  -3.110  0.00  0.00    +0.042 A 
ATOM      5  C   UNL     1       5.367  -4.723  -3.716  0.00  0.00    +0.041 A 
ATOM      6  C   UNL     1       5.699  -3.586  -4.429  0.00  0.00    +0.085 A 
ATOM      7  N   UNL     1       4.839  -2.590  -4.543  0.00  0.00    -0.355 N 
ATOM      8  C   UNL     1       3.646  -2.639  -3.987  0.00  0.00    +0.089 A 
ATOM      9  S   UNL     1       2.271  -1.517  -3.942  0.00  0.00    -0.062 S 
ATOM     10  H   UNL     1       5.093  -1.802  -5.048  0.00  0.00    +0.166 HD
ENDROOT
BRANCH   2  11
ATOM     11  N   UNL     1       1.310  -4.661  -1.938  0.00  0.00    -0.301 N 
ATOM     12  C   UNL     1       0.904  -4.420  -0.643  0.00  0.00    +0.228 C 
ATOM     13  N   UNL     1       0.935  -3.219  -0.170  0.00  0.00    -0.077 NA
ATOM     14  H   UNL     1       1.209  -5.547  -2.321  0.00  0.00    +0.153 HD
BRANCH  13  15
ATOM     15  O   UNL     1       0.626  -2.986   1.193  0.00  0.00    -0.388 OA
BRANCH  15  16
ATOM     16  C   UNL     1       0.594  -1.604   1.554  0.00  0.00    +0.302 C 
BRANCH  16  17
ATOM     17  C   UNL     1       0.379  -1.478   3.040  0.00  0.00    +0.046 A 
ATOM     18  C   UNL     1      -0.906  -1.409   3.551  0.00  0.00    +0.131 A 
ATOM     19  C   UNL     1      -1.101  -1.293   4.917  0.00  0.00    +0.039 A 
ATOM     20  C   UNL     1      -0.014  -1.246   5.769  0.00  0.00    +0.004 A 
ATOM     21  C   UNL     1       1.268  -1.316   5.259  0.00  0.00    +0.020 A 
ATOM     22  C   UNL     1       1.465  -1.437   3.895  0.00  0.00    +0.050 A 
ATOM     23 CL   UNL     1       3.077  -1.532   3.256  0.00  0.00    -0.083 Cl
ATOM     24  F   UNL     1      -1.968  -1.453   2.717  0.00  0.00    -0.205 F 
ENDBRANCH  16  17
ENDBRANCH  15  16
ENDBRANCH  13  15
ENDBRANCH   2  11
BRANCH   4  25
ATOM     25  N   UNL     1       3.786  -5.966  -2.392  0.00  0.00    -0.335 N 
ATOM     26  C   UNL     1       4.077  -6.041  -0.958  0.00  0.00    +0.129 C 
ATOM     27  C   UNL     1       3.137  -7.093  -3.067  0.00  0.00    +0.129 C 
ENDBRANCH   4  25
BRANCH   1  28
ATOM     28  C   UNL     1      -0.162  -2.151  -2.534  0.00  0.00    +0.348 C 
ATOM     29  O   UNL     1      -0.760  -2.882  -1.767  0.00  0.00    -0.244 OA
BRANCH  28  30
ATOM     30  O   UNL     1      -0.749  -1.022  -2.987  0.00  0.00    -0.461 OA
BRANCH  30  32
ATOM     31  C   UNL     1      -2.474   0.670  -2.977  0.00  0.00    +0.048 C 
ATOM     32  C   UNL     1      -2.026  -0.691  -2.439  0.00  0.00    +0.229 C 
ENDBRANCH  30  32
ENDBRANCH  28  30
ENDBRANCH   1  28
TORSDOF 8
