REMARK  Name = ZINC39594189
REMARK  10 active torsions:
REMARK  status: ('A' for Active; 'I' for Inactive)
REMARK    1  A    between atoms: C_1  and  C_2
REMARK    2  A    between atoms: C_2  and  C_3
REMARK    3  A    between atoms: C_3  and  C_4
REMARK    4  A    between atoms: C_4  and  C_6
REMARK    5  A    between atoms: C_4  and  C_7
REMARK    6  A    between atoms: C_11  and  C_20
REMARK    7  A    between atoms: N_22  and  C_23
REMARK    8  A    between atoms: C_23  and  C_24
REMARK    9  A    between atoms: C_24  and  C_26
REMARK   10  A    between atoms: C_24  and  N_32
REMARK                            x       y       z     vdW  Elec       q    Type
REMARK                         _______ _______ _______ _____ _____    ______ ____
ROOT
ATOM      1  C   UNL     1      -3.749  -2.794   0.069  0.00  0.00    +0.218 C 
ATOM      2  O   UNL     1      -4.751  -2.130   0.231  0.00  0.00    -0.275 OA
ATOM      3  N   UNL     1      -3.814  -4.139   0.134  0.00  0.00    -0.300 N 
ATOM      4  C   UNL     1      -2.707  -5.110  -0.029  0.00  0.00    +0.121 C 
ATOM      5  C   UNL     1      -2.986  -6.201   1.029  0.00  0.00    +0.100 C 
ATOM      6  C   UNL     1      -4.498  -6.112   1.295  0.00  0.00    -0.004 C 
ATOM      7  C   UNL     1      -5.007  -4.979   0.392  0.00  0.00    +0.115 C 
ATOM      8  C   UNL     1      -4.757  -5.768   2.759  0.00  0.00    -0.010 C 
ATOM      9  C   UNL     1      -6.267  -5.741   3.012  0.00  0.00    -0.082 C 
ATOM     10  N   UNL     1      -6.843  -7.051   2.687  0.00  0.00    +0.379 N 
ATOM     11  C   UNL     1      -6.671  -7.333   1.257  0.00  0.00    -0.082 C 
ATOM     12  C   UNL     1      -5.178  -7.427   0.929  0.00  0.00    -0.010 C 
ATOM     13  H   UNL     1      -6.378  -7.765   3.228  0.00  0.00    -0.086 HD
ATOM     14  H   UNL     1      -7.827  -7.050   2.912  0.00  0.00    -0.086 HD
ENDROOT
BRANCH   5  15
ATOM     15  C   UNL     1      -2.626  -7.561   0.488  0.00  0.00    +0.218 C 
ATOM     16  O   UNL     1      -2.724  -7.787  -0.700  0.00  0.00    -0.275 OA
ATOM     17  N   UNL     1      -2.194  -8.526   1.324  0.00  0.00    -0.316 N 
ATOM     18  H   UNL     1      -2.115  -8.345   2.274  0.00  0.00    +0.149 HD
BRANCH  17  19
ATOM     19  C   UNL     1      -1.843  -9.848   0.798  0.00  0.00    +0.093 C 
BRANCH  19  20
ATOM     20  C   UNL     1      -1.518 -10.789   1.960  0.00  0.00    -0.019 C 
BRANCH  20  21
ATOM     21  C   UNL     1      -2.757 -11.013   2.787  0.00  0.00    -0.041 A 
ATOM     22  C   UNL     1      -2.949 -10.312   3.968  0.00  0.00    +0.005 A 
ATOM     23  C   UNL     1      -4.104 -10.551   4.697  0.00  0.00    +0.020 A 
ATOM     24  C   UNL     1      -5.019 -11.473   4.226  0.00  0.00    +0.111 A 
ATOM     25  N   UNL     1      -4.803 -12.122   3.098  0.00  0.00    -0.263 NA
ATOM     26  C   UNL     1      -3.719 -11.916   2.376  0.00  0.00    +0.112 A 
ENDBRANCH  20  21
BRANCH  20  27
ATOM     27  N   UNL     1      -1.043 -12.074   1.430  0.00  0.00    +0.385 N 
ATOM     28  C   UNL     1       0.218 -11.881   0.670  0.00  0.00    -0.078 C 
ATOM     29  C   UNL     1       0.859 -13.291   0.681  0.00  0.00    -0.020 C 
ATOM     30  C   UNL     1       0.511 -13.818   2.092  0.00  0.00    -0.020 C 
ATOM     31  C   UNL     1      -0.708 -12.991   2.541  0.00  0.00    -0.078 C 
ATOM     32  H   UNL     1      -1.747 -12.488   0.838  0.00  0.00    -0.081 HD
ENDBRANCH  20  27
ENDBRANCH  19  20
ENDBRANCH  17  19
ENDBRANCH   5  15
BRANCH   1  33
ATOM     33  C   UNL     1      -2.432  -2.115  -0.206  0.00  0.00    +0.072 C 
ATOM     34  C   UNL     1      -1.893  -2.578  -1.561  0.00  0.00    +0.017 C 
BRANCH  33  35
ATOM     35  C   UNL     1      -2.634  -0.599  -0.228  0.00  0.00    +0.012 C 
BRANCH  35  37
ATOM     36  C   UNL     1      -1.481   1.610  -0.405  0.00  0.00    +0.004 C 
ATOM     37  C   UNL     1      -1.278   0.094  -0.383  0.00  0.00    -0.003 C 
ENDBRANCH  35  37
ENDBRANCH  33  35
ENDBRANCH   1  33
TORSDOF 8
