REMARK  Name = ZINC39676433
REMARK  9 active torsions:
REMARK  status: ('A' for Active; 'I' for Inactive)
REMARK    1  A    between atoms: C_1  and  C_2
REMARK    2  A    between atoms: C_2  and  C_3
REMARK    3  A    between atoms: C_3  and  C_4
REMARK    4  A    between atoms: C_3  and  C_6
REMARK    5  A    between atoms: C_4  and  C_5
REMARK    6  A    between atoms: C_10  and  C_19
REMARK    7  A    between atoms: N_21  and  C_22
REMARK    8  A    between atoms: C_22  and  C_23
REMARK    9  A    between atoms: C_23  and  C_24
REMARK                            x       y       z     vdW  Elec       q    Type
REMARK                         _______ _______ _______ _____ _____    ______ ____
ROOT
ATOM      1  C   UNL     1      -1.372  -2.185   0.238  0.00  0.00    +0.219 C 
ATOM      2  O   UNL     1      -0.317  -2.735   0.471  0.00  0.00    -0.275 OA
ATOM      3  N   UNL     1      -2.502  -2.911   0.135  0.00  0.00    -0.300 N 
ATOM      4  C   UNL     1      -3.886  -2.416  -0.053  0.00  0.00    +0.121 C 
ATOM      5  C   UNL     1      -4.528  -3.416  -1.041  0.00  0.00    +0.100 C 
ATOM      6  C   UNL     1      -3.708  -4.707  -0.881  0.00  0.00    -0.004 C 
ATOM      7  C   UNL     1      -2.641  -4.387   0.175  0.00  0.00    +0.115 C 
ATOM      8  C   UNL     1      -3.040  -5.075  -2.203  0.00  0.00    -0.010 C 
ATOM      9  C   UNL     1      -2.278  -6.393  -2.034  0.00  0.00    -0.082 C 
ATOM     10  N   UNL     1      -3.209  -7.450  -1.621  0.00  0.00    +0.379 N 
ATOM     11  C   UNL     1      -3.778  -7.131  -0.306  0.00  0.00    -0.082 C 
ATOM     12  C   UNL     1      -4.603  -5.845  -0.402  0.00  0.00    -0.010 C 
ATOM     13  H   UNL     1      -3.953  -7.523  -2.299  0.00  0.00    -0.086 HD
ATOM     14  H   UNL     1      -2.717  -8.329  -1.570  0.00  0.00    -0.086 HD
ENDROOT
BRANCH   5  15
ATOM     15  C   UNL     1      -4.425  -2.897  -2.452  0.00  0.00    +0.218 C 
ATOM     16  O   UNL     1      -3.460  -2.244  -2.790  0.00  0.00    -0.275 OA
ATOM     17  N   UNL     1      -5.406  -3.159  -3.340  0.00  0.00    -0.315 N 
ATOM     18  H   UNL     1      -6.178  -3.680  -3.070  0.00  0.00    +0.149 HD
BRANCH  17  19
ATOM     19  C   UNL     1      -5.306  -2.655  -4.711  0.00  0.00    +0.109 C 
BRANCH  19  20
ATOM     20  C   UNL     1      -6.539  -3.089  -5.505  0.00  0.00    +0.056 C 
BRANCH  20  21
ATOM     21  C   UNL     1      -6.436  -2.570  -6.917  0.00  0.00    -0.021 A 
ATOM     22  C   UNL     1      -5.734  -3.211  -8.031  0.00  0.00    +0.004 A 
ATOM     23  C   UNL     1      -4.998  -4.390  -8.164  0.00  0.00    +0.030 A 
ATOM     24  C   UNL     1      -4.450  -4.717  -9.385  0.00  0.00    +0.042 A 
ATOM     25  C   UNL     1      -4.627  -3.881 -10.480  0.00  0.00    +0.022 A 
ATOM     26  C   UNL     1      -5.350  -2.714 -10.364  0.00  0.00    +0.027 A 
ATOM     27  C   UNL     1      -5.912  -2.365  -9.141  0.00  0.00    +0.047 A 
ATOM     28  N   UNL     1      -6.669  -1.294  -8.718  0.00  0.00    -0.360 N 
ATOM     29  C   UNL     1      -6.976  -1.437  -7.392  0.00  0.00    +0.087 A 
ATOM     30 CL   UNL     1      -3.534  -6.181  -9.556  0.00  0.00    -0.084 Cl
ATOM     31  H   UNL     1      -6.945  -0.551  -9.277  0.00  0.00    +0.165 HD
ENDBRANCH  20  21
ENDBRANCH  19  20
ENDBRANCH  17  19
ENDBRANCH   5  15
BRANCH   1  32
ATOM     32  C   UNL     1      -1.420  -0.688   0.066  0.00  0.00    +0.075 C 
BRANCH  32  34
ATOM     33  C   UNL     1      -1.722   1.488   1.255  0.00  0.00    +0.004 C 
ATOM     34  C   UNL     1      -1.548  -0.021   1.437  0.00  0.00    +0.009 C 
ENDBRANCH  32  34
BRANCH  32  35
ATOM     35  C   UNL     1      -0.135  -0.212  -0.615  0.00  0.00    +0.009 C 
ATOM     36  C   UNL     1      -0.075  -0.769  -2.038  0.00  0.00    +0.004 C 
ENDBRANCH  32  35
ENDBRANCH   1  32
TORSDOF 7
