REMARK  Name = ZINC34830361
REMARK  11 active torsions:
REMARK  status: ('A' for Active; 'I' for Inactive)
REMARK    1  A    between atoms: C_1  and  C_2
REMARK    2  A    between atoms: C_2  and  O_3
REMARK    3  A    between atoms: O_3  and  C_4
REMARK    4  A    between atoms: C_4  and  C_6
REMARK    5  A    between atoms: C_6  and  C_7
REMARK    6  A    between atoms: C_7  and  C_8
REMARK    7  A    between atoms: C_16  and  C_18
REMARK    8  A    between atoms: C_18  and  C_20
REMARK    9  A    between atoms: C_18  and  N_21
REMARK   10  A    between atoms: C_29  and  C_31
REMARK   11  A    between atoms: C_36  and  C_37
REMARK                            x       y       z     vdW  Elec       q    Type
REMARK                         _______ _______ _______ _____ _____    ______ ____
ROOT
ATOM      1  C   UNL     1       2.121 -10.103  -6.135  0.00  0.00    +0.018 C 
ATOM      2  C   UNL     1       1.209  -9.494  -7.202  0.00  0.00    -0.004 C 
ENDROOT
BRANCH   1  11
ATOM      3  C   UNL     1       3.575  -5.060  -2.852  0.00  0.00    +0.216 C 
ATOM      4  O   UNL     1       4.204  -4.326  -3.584  0.00  0.00    -0.276 OA
ATOM      5  N   UNL     1       3.348  -6.339  -3.212  0.00  0.00    -0.298 N 
ATOM      6  C   UNL     1       2.582  -7.238  -2.338  0.00  0.00    +0.126 C 
ATOM      7  C   UNL     1       1.409  -7.818  -3.137  0.00  0.00    +0.126 C 
ATOM      8  N   UNL     1       1.922  -8.338  -4.413  0.00  0.00    -0.300 N 
ATOM      9  C   UNL     1       2.688  -7.439  -5.287  0.00  0.00    +0.126 C 
ATOM     10  C   UNL     1       3.856  -6.857  -4.490  0.00  0.00    +0.126 C 
ATOM     11  C   UNL     1       1.695  -9.617  -4.773  0.00  0.00    +0.202 C 
ATOM     12  O   UNL     1       1.147 -10.376  -4.002  0.00  0.00    -0.277 OA
BRANCH   3  13
ATOM     13  C   UNL     1       3.048  -4.543  -1.538  0.00  0.00    +0.107 C 
BRANCH  13  14
ATOM     14  C   UNL     1       3.442  -3.074  -1.374  0.00  0.00    +0.130 C 
BRANCH  14  15
ATOM     15  C   UNL     1       2.915  -2.556  -0.060  0.00  0.00    +0.308 C 
ATOM     16  O   UNL     1       2.289  -3.287   0.670  0.00  0.00    -0.251 OA
BRANCH  15  17
ATOM     17  O   UNL     1       3.142  -1.283   0.299  0.00  0.00    -0.465 OA
BRANCH  17  19
ATOM     18  C   UNL     1       2.970   0.609   1.793  0.00  0.00    +0.048 C 
ATOM     19  C   UNL     1       2.613  -0.860   1.558  0.00  0.00    +0.229 C 
ENDBRANCH  17  19
ENDBRANCH  15  17
ENDBRANCH  14  15
ENDBRANCH  13  14
ENDBRANCH   3  13
ENDBRANCH   1  11
BRANCH   1  20
ATOM     20  N   UNL     1       2.023 -11.568  -6.184  0.00  0.00    +0.395 N 
ATOM     21  C   UNL     1       0.611 -11.961  -6.084  0.00  0.00    -0.071 C 
ATOM     22  C   UNL     1       0.535 -13.472  -5.803  0.00  0.00    +0.024 C 
ATOM     23  C   UNL     1       1.457 -14.155  -6.759  0.00  0.00    -0.010 A 
ATOM     24  C   UNL     1       2.412 -13.558  -7.528  0.00  0.00    -0.047 A 
ATOM     25  C   UNL     1       3.156 -14.396  -8.356  0.00  0.00    +0.010 A 
ATOM     26  C   UNL     1       2.914 -15.728  -8.364  0.00  0.00    +0.045 A 
ATOM     27  S   UNL     1       1.590 -15.870  -7.173  0.00  0.00    -0.101 S 
ATOM     28  C   UNL     1       2.610 -12.048  -7.441  0.00  0.00    -0.005 C 
ATOM     29  H   UNL     1       2.533 -11.961  -5.407  0.00  0.00    -0.079 HD
BRANCH  28  30
ATOM     30  C   UNL     1       4.083 -11.730  -7.464  0.00  0.00    -0.054 A 
ATOM     31  C   UNL     1       4.792 -11.650  -6.280  0.00  0.00    +0.002 A 
ATOM     32  C   UNL     1       6.143 -11.358  -6.301  0.00  0.00    +0.000 A 
ATOM     33  C   UNL     1       6.785 -11.147  -7.507  0.00  0.00    +0.000 A 
ATOM     34  C   UNL     1       6.077 -11.227  -8.691  0.00  0.00    +0.003 A 
ATOM     35  C   UNL     1       4.727 -11.523  -8.670  0.00  0.00    -0.049 A 
ATOM     36  C   UNL     1       3.955 -11.617  -9.961  0.00  0.00    +0.044 C 
ENDBRANCH  28  30
ENDBRANCH   1  20
TORSDOF 8
