REMARK  Name = ZINC16156620
REMARK  7 active torsions:
REMARK  status: ('A' for Active; 'I' for Inactive)
REMARK    1  A    between atoms: C_4  and  C_7
REMARK    2  A    between atoms: C_7  and  C_16
REMARK    3  A    between atoms: C_8  and  C_9
REMARK    4  A    between atoms: N_18  and  C_19
REMARK    5  A    between atoms: C_22  and  S_25
REMARK    6  A    between atoms: S_25  and  N_28
REMARK    7  A    between atoms: N_28  and  C_29
REMARK                            x       y       z     vdW  Elec       q    Type
REMARK                         _______ _______ _______ _____ _____    ______ ____
ROOT
ATOM      1  C   UNL     1      -5.717   2.069  -0.547  0.00  0.00    +0.249 C 
ATOM      2  O   UNL     1      -5.525   0.868  -0.548  0.00  0.00    -0.270 OA
ATOM      3  N   UNL     1      -6.899   2.562  -0.128  0.00  0.00    -0.281 N 
ATOM      4  H   UNL     1      -7.029   3.521  -0.063  0.00  0.00    +0.155 HD
ENDROOT
BRANCH   3   5
ATOM      5  C   UNL     1      -7.938   1.691   0.215  0.00  0.00    +0.034 A 
ATOM      6  C   UNL     1      -9.255   2.039  -0.057  0.00  0.00    +0.025 A 
ATOM      7  C   UNL     1     -10.279   1.173   0.277  0.00  0.00    +0.030 A 
ATOM      8  C   UNL     1      -9.994  -0.033   0.891  0.00  0.00    +0.109 A 
ATOM      9  C   UNL     1      -8.684  -0.379   1.168  0.00  0.00    +0.030 A 
ATOM     10  C   UNL     1      -7.656   0.479   0.831  0.00  0.00    +0.025 A 
BRANCH   8  11
ATOM     11  S   UNL     1     -11.303  -1.130   1.322  0.00  0.00    +0.072 S 
ATOM     12  O   UNL     1     -12.353  -0.894   0.394  0.00  0.00    -0.150 OA
ATOM     13  O   UNL     1     -10.716  -2.412   1.499  0.00  0.00    -0.150 OA
BRANCH  11  14
ATOM     14  N   UNL     1     -11.868  -0.660   2.806  0.00  0.00    -0.216 N 
ATOM     15  H   UNL     1     -11.811  -1.266   3.561  0.00  0.00    +0.174 HD
BRANCH  14  16
ATOM     16  C   UNL     1     -12.426   0.610   2.970  0.00  0.00    +0.048 A 
ATOM     17  C   UNL     1     -11.717   1.602   3.636  0.00  0.00    +0.024 A 
ATOM     18  C   UNL     1     -12.270   2.857   3.793  0.00  0.00    +0.002 A 
ATOM     19  C   UNL     1     -13.533   3.125   3.296  0.00  0.00    +0.000 A 
ATOM     20  C   UNL     1     -14.244   2.139   2.637  0.00  0.00    +0.002 A 
ATOM     21  C   UNL     1     -13.694   0.882   2.473  0.00  0.00    +0.024 A 
ENDBRANCH  14  16
ENDBRANCH  11  14
ENDBRANCH   8  11
ENDBRANCH   3   5
BRANCH   1  22
ATOM     22  C   UNL     1      -4.659   2.984  -1.004  0.00  0.00    +0.045 C 
ATOM     23  C   UNL     1      -3.466   2.486  -1.427  0.00  0.00    +0.023 C 
BRANCH  23  24
ATOM     24  C   UNL     1      -2.468   3.382  -2.026  0.00  0.00    -0.006 A 
ATOM     25  C   UNL     1      -2.869   4.402  -2.896  0.00  0.00    +0.009 A 
ATOM     26  C   UNL     1      -1.925   5.235  -3.458  0.00  0.00    +0.001 A 
ATOM     27  C   UNL     1      -0.583   5.068  -3.160  0.00  0.00    +0.001 A 
ATOM     28  C   UNL     1      -0.177   4.066  -2.297  0.00  0.00    +0.020 A 
ATOM     29  C   UNL     1      -1.109   3.223  -1.725  0.00  0.00    +0.048 A 
ATOM     30 CL   UNL     1      -0.598   1.966  -0.642  0.00  0.00    -0.083 Cl
ENDBRANCH  23  24
BRANCH  22  34
ATOM     31  C   UNL     1      -5.331   7.180  -1.002  0.00  0.00    +0.000 A 
ATOM     32  C   UNL     1      -6.046   6.369  -1.865  0.00  0.00    +0.001 A 
ATOM     33  C   UNL     1      -5.832   5.006  -1.870  0.00  0.00    +0.008 A 
ATOM     34  C   UNL     1      -4.893   4.446  -1.003  0.00  0.00    -0.013 A 
ATOM     35  C   UNL     1      -4.180   5.269  -0.131  0.00  0.00    +0.008 A 
ATOM     36  C   UNL     1      -4.399   6.631  -0.139  0.00  0.00    +0.001 A 
ENDBRANCH  22  34
ENDBRANCH   1  22
TORSDOF 7
