REMARK  Name = ZINC04950587
REMARK  7 active torsions:
REMARK  status: ('A' for Active; 'I' for Inactive)
REMARK    1  A    between atoms: C_4  and  O_23
REMARK    2  A    between atoms: C_5  and  C_7
REMARK    3  A    between atoms: N_9  and  N_10
REMARK    4  A    between atoms: N_10  and  C_11
REMARK    5  A    between atoms: C_11  and  N_13
REMARK    6  A    between atoms: C_14  and  C_16
REMARK    7  A    between atoms: C_17  and  C_18
REMARK                            x       y       z     vdW  Elec       q    Type
REMARK                         _______ _______ _______ _____ _____    ______ ____
ROOT
ATOM      1  N   UNL     1       0.047   0.008   4.876  0.00  0.00    -0.245 N 
ATOM      2  H   UNL     1       0.034   0.978   4.888  0.00  0.00    +0.172 HD
ENDROOT
BRANCH   1   5
ATOM      3  C   UNL     1       0.025   0.009   2.496  0.00  0.00    +0.264 C 
ATOM      4  O   UNL     1       0.008   1.224   2.510  0.00  0.00    -0.269 OA
ATOM      5  N   UNL     1       0.045  -0.678   3.655  0.00  0.00    -0.231 N 
ATOM      6  H   UNL     1       0.059  -1.648   3.644  0.00  0.00    +0.173 HD
BRANCH   3  11
ATOM      7  C   UNL     1       0.040  -2.780  -0.015  0.00  0.00    +0.001 A 
ATOM      8  C   UNL     1       0.019  -2.075  -1.207  0.00  0.00    +0.004 A 
ATOM      9  C   UNL     1      -0.006  -0.694  -1.201  0.00  0.00    +0.046 A 
ATOM     10  C   UNL     1       0.002  -0.004   0.002  0.00  0.00    +0.129 A 
ATOM     11  C   UNL     1       0.023  -0.714   1.210  0.00  0.00    +0.079 A 
ATOM     12  C   UNL     1       0.042  -2.111   1.189  0.00  0.00    +0.017 A 
BRANCH  10  13
ATOM     13  O   UNL     1      -0.016   1.352   0.009  0.00  0.00    -0.506 OA
ATOM     14  H   UNL     1       0.862   1.758   0.003  0.00  0.00    +0.292 HD
ENDBRANCH  10  13
ENDBRANCH   3  11
ENDBRANCH   1   5
BRANCH   1  15
ATOM     15  C   UNL     1       0.067  -0.679   6.036  0.00  0.00    +0.153 C 
ATOM     16  S   UNL     1       0.070   0.160   7.528  0.00  0.00    -0.017 S 
BRANCH  15  17
ATOM     17  N   UNL     1       0.086  -2.026   6.020  0.00  0.00    -0.263 N 
ATOM     18  C   UNL     1       0.106  -2.713   7.180  0.00  0.00    +0.242 C 
ATOM     19  O   UNL     1       0.108  -2.116   8.241  0.00  0.00    -0.270 OA
ATOM     20  H   UNL     1       0.085  -2.502   5.175  0.00  0.00    +0.157 HD
BRANCH  18  21
ATOM     21  C   UNL     1       0.126  -4.127   7.163  0.00  0.00    +0.071 C 
ATOM     22  C   UNL     1       0.146  -4.819   8.331  0.00  0.00    +0.051 C 
BRANCH  22  23
ATOM     23  C   UNL     1       0.166  -6.234   8.315  0.00  0.00    +0.128 A 
ATOM     24  C   UNL     1       0.194  -7.059   9.420  0.00  0.00    +0.049 A 
ATOM     25  C   UNL     1       0.202  -8.376   8.935  0.00  0.00    +0.042 A 
ATOM     26  C   UNL     1       0.189  -8.305   7.585  0.00  0.00    +0.195 A 
ATOM     27  O   UNL     1       0.167  -7.017   7.215  0.00  0.00    -0.464 OA
ENDBRANCH  22  23
ENDBRANCH  18  21
ENDBRANCH  15  17
ENDBRANCH   1  15
TORSDOF 7
