REMARK  Name = ZINC08790237
REMARK  8 active torsions:
REMARK  status: ('A' for Active; 'I' for Inactive)
REMARK    1  A    between atoms: C_1  and  C_2
REMARK    2  A    between atoms: C_16  and  C_18
REMARK    3  A    between atoms: C_18  and  C_19
REMARK    4  A    between atoms: C_19  and  S_20
REMARK    5  A    between atoms: S_20  and  C_21
REMARK    6  A    between atoms: N_24  and  C_27
REMARK    7  A    between atoms: C_27  and  C_28
REMARK    8  A    between atoms: C_28  and  C_29
REMARK                            x       y       z     vdW  Elec       q    Type
REMARK                         _______ _______ _______ _____ _____    ______ ____
ROOT
ATOM      1  C   UNL     1       2.402   8.636   2.219  0.00  0.00    +0.047 C 
ATOM      2  C   UNL     1       2.796   7.270   1.719  0.00  0.00    -0.011 A 
ATOM      3  C   UNL     1       4.080   7.049   1.260  0.00  0.00    +0.046 A 
ATOM      4  C   UNL     1       4.450   5.799   0.799  0.00  0.00    +0.020 A 
ATOM      5  C   UNL     1       3.530   4.765   0.796  0.00  0.00    +0.006 A 
ATOM      6  C   UNL     1       2.249   4.982   1.253  0.00  0.00    -0.027 A 
ATOM      7  C   UNL     1       1.865   6.235   1.721  0.00  0.00    +0.040 A 
ATOM      8  N   UNL     1       0.530   6.209   2.129  0.00  0.00    -0.286 N 
ATOM      9  C   UNL     1      -0.028   4.994   1.965  0.00  0.00    +0.211 C 
ATOM     10  O   UNL     1      -1.168   4.679   2.234  0.00  0.00    -0.277 OA
ATOM     11  C   UNL     1       1.036   4.105   1.384  0.00  0.00    +0.050 C 
ATOM     12  C   UNL     1       0.607   3.532   0.027  0.00  0.00    +0.088 C 
ATOM     13  C   UNL     1       1.207   2.098   0.002  0.00  0.00    +0.073 C 
ATOM     14  C   UNL     1       1.951   1.956   1.347  0.00  0.00    -0.057 C 
ATOM     15  C   UNL     1      -0.014   1.208   0.009  0.00  0.00    +0.224 C 
ATOM     16  O   UNL     1       0.002  -0.004   0.002  0.00  0.00    -0.275 OA
ATOM     17  N   UNL     1      -1.117   1.966   0.017  0.00  0.00    -0.241 N 
ATOM     18  C   UNL     1      -0.884   3.284   0.031  0.00  0.00    +0.225 C 
ATOM     19  O   UNL     1      -1.738   4.145   0.040  0.00  0.00    -0.275 OA
ATOM     20 CL   UNL     1       5.233   8.347   1.263  0.00  0.00    -0.083 Cl
ATOM     21  H   UNL     1       0.059   6.977   2.490  0.00  0.00    +0.155 HD
ATOM     22  N   UNL     1       1.308   2.945   2.214  0.00  0.00    +0.394 N 
ATOM     23  H   UNL     1       0.431   2.568   2.594  0.00  0.00    -0.083 HD
ATOM     24  H   UNL     1       1.934   3.200   2.987  0.00  0.00    -0.083 HD
ENDROOT
BRANCH  14  25
ATOM     25  C   UNL     1       1.786   0.538   1.898  0.00  0.00    -0.004 C 
BRANCH  25  26
ATOM     26  C   UNL     1       2.631   0.382   3.164  0.00  0.00    +0.067 C 
BRANCH  26  27
ATOM     27  S   UNL     1       2.435  -1.298   3.818  0.00  0.00    -0.164 S 
ATOM     28  C   UNL     1       3.486  -1.319   5.297  0.00  0.00    +0.084 C 
ENDBRANCH  26  27
ENDBRANCH  25  26
ENDBRANCH  14  25
BRANCH  17  29
ATOM     29  C   UNL     1      -2.468   1.400   0.016  0.00  0.00    +0.121 C 
BRANCH  29  30
ATOM     30  C   UNL     1      -2.935   1.192   1.458  0.00  0.00    +0.054 C 
BRANCH  30  31
ATOM     31  C   UNL     1      -4.325   0.610   1.457  0.00  0.00    -0.046 A 
ATOM     32  C   UNL     1      -5.425   1.446   1.472  0.00  0.00    +0.004 A 
ATOM     33  C   UNL     1      -6.700   0.912   1.466  0.00  0.00    +0.000 A 
ATOM     34  C   UNL     1      -6.874  -0.459   1.456  0.00  0.00    +0.000 A 
ATOM     35  C   UNL     1      -5.774  -1.296   1.447  0.00  0.00    +0.000 A 
ATOM     36  C   UNL     1      -4.499  -0.762   1.447  0.00  0.00    +0.004 A 
ENDBRANCH  30  31
ENDBRANCH  29  30
ENDBRANCH  17  29
TORSDOF 6
