REMARK  Name = ZINC12888755
REMARK  9 active torsions:
REMARK  status: ('A' for Active; 'I' for Inactive)
REMARK    1  A    between atoms: C_1  and  C_2
REMARK    2  A    between atoms: C_2  and  C_4
REMARK    3  A    between atoms: C_2  and  N_12
REMARK    4  A    between atoms: C_4  and  C_5
REMARK    5  A    between atoms: C_5  and  C_6
REMARK    6  A    between atoms: C_15  and  C_22
REMARK    7  A    between atoms: C_16  and  O_21
REMARK    8  A    between atoms: C_28  and  O_34
REMARK    9  A    between atoms: O_34  and  C_35
REMARK                            x       y       z     vdW  Elec       q    Type
REMARK                         _______ _______ _______ _____ _____    ______ ____
ROOT
ATOM      1  N   UNL     1       3.633  -2.004  -3.263  0.00  0.00    -0.258 N 
ATOM      2  C   UNL     1       2.617  -1.829  -2.394  0.00  0.00    +0.262 A 
ATOM      3  O   UNL     1       1.516  -1.495  -2.796  0.00  0.00    -0.267 OA
ATOM      4  C   UNL     1       2.837  -2.033  -1.020  0.00  0.00    +0.068 A 
ATOM      5  C   UNL     1       4.079  -2.401  -0.596  0.00  0.00    +0.201 A 
ATOM      6  N   UNL     1       5.083  -2.573  -1.515  0.00  0.00    -0.278 N 
ATOM      7  H   UNL     1       5.968  -2.837  -1.218  0.00  0.00    +0.173 HD
ATOM      8  C   UNL     1       4.851  -2.372  -2.825  0.00  0.00    +0.332 A 
ATOM      9  O   UNL     1       5.754  -2.525  -3.624  0.00  0.00    -0.246 OA
ENDROOT
BRANCH   4  10
ATOM     10  C   UNL     1       1.717  -1.843  -0.031  0.00  0.00    +0.018 C 
ATOM     11  C   UNL     1       1.294  -0.392  -0.014  0.00  0.00    +0.011 A 
ATOM     12  C   UNL     1       0.002  -0.004   0.002  0.00  0.00    -0.022 A 
ATOM     13  C   UNL     1      -0.018   1.453   0.010  0.00  0.00    +0.006 A 
ATOM     14  C   UNL     1      -1.029   2.417   0.020  0.00  0.00    +0.056 A 
ATOM     15  C   UNL     1      -0.698   3.756   0.028  0.00  0.00    +0.121 A 
ATOM     16  C   UNL     1       0.638   4.149   0.016  0.00  0.00    +0.047 A 
ATOM     17  C   UNL     1       1.645   3.210   0.003  0.00  0.00    +0.030 A 
ATOM     18  C   UNL     1       1.332   1.855  -0.001  0.00  0.00    +0.047 A 
ATOM     19  N   UNL     1       2.101   0.708  -0.014  0.00  0.00    -0.359 N 
ATOM     20  H   UNL     1       3.071   0.687  -0.023  0.00  0.00    +0.166 HD
ATOM     21  C   UNL     1      -1.160  -0.964   0.011  0.00  0.00    +0.018 C 
ATOM     22  C   UNL     1      -0.623  -2.352   0.389  0.00  0.00    -0.076 C 
ATOM     23  N   UNL     1       0.559  -2.668  -0.439  0.00  0.00    +0.388 N 
ATOM     24  H   UNL     1       0.795  -3.661  -0.325  0.00  0.00    -0.084 HD
ATOM     25  H   UNL     1       0.340  -2.480  -1.425  0.00  0.00    -0.084 HD
BRANCH  15  26
ATOM     26  O   UNL     1      -1.680   4.697   0.041  0.00  0.00    -0.495 OA
ATOM     27  C   UNL     1      -1.268   6.065   0.043  0.00  0.00    +0.277 C 
ENDBRANCH  15  26
ENDBRANCH   4  10
BRANCH   1  29
ATOM     28  C   UNL     1       3.703  -3.088  -5.454  0.00  0.00    +0.031 C 
ATOM     29  C   UNL     1       3.409  -1.792  -4.695  0.00  0.00    +0.092 C 
BRANCH  29  30
ATOM     30  C   UNL     1       4.337  -0.684  -5.199  0.00  0.00    +0.030 C 
BRANCH  30  31
ATOM     31  C   UNL     1       3.959   0.639  -4.530  0.00  0.00    +0.037 C 
BRANCH  31  32
ATOM     32  C   UNL     1       4.873   1.730  -5.026  0.00  0.00    -0.047 A 
ATOM     33  C   UNL     1       6.052   2.001  -4.357  0.00  0.00    +0.003 A 
ATOM     34  C   UNL     1       6.893   2.998  -4.815  0.00  0.00    +0.000 A 
ATOM     35  C   UNL     1       6.549   3.733  -5.935  0.00  0.00    +0.000 A 
ATOM     36  C   UNL     1       5.367   3.465  -6.600  0.00  0.00    +0.000 A 
ATOM     37  C   UNL     1       4.529   2.464  -6.146  0.00  0.00    +0.003 A 
ENDBRANCH  31  32
ENDBRANCH  30  31
ENDBRANCH  29  30
ENDBRANCH   1  29
BRANCH   5  38
ATOM     38  O   UNL     1       4.318  -2.598   0.718  0.00  0.00    -0.493 OA
ATOM     39  H   UNL     1       5.229  -2.856   0.918  0.00  0.00    +0.294 HD
ENDBRANCH   5  38
TORSDOF 7
