REMARK  Name = ZINC05510690
REMARK  7 active torsions:
REMARK  status: ('A' for Active; 'I' for Inactive)
REMARK    1  A    between atoms: C_1  and  C_2
REMARK    2  A    between atoms: C_2  and  O_3
REMARK    3  A    between atoms: O_3  and  C_4
REMARK    4  A    between atoms: C_4  and  C_6
REMARK    5  A    between atoms: C_7  and  C_29
REMARK    6  A    between atoms: C_22  and  C_23
REMARK    7  A    between atoms: C_22  and  N_54
REMARK                            x       y       z     vdW  Elec       q    Type
REMARK                         _______ _______ _______ _____ _____    ______ ____
ROOT
ATOM      1  C   UNL     1      -4.731   0.793   0.029  0.00  0.00    +0.108 A 
ATOM      2  C   UNL     1      -4.106  -0.418   0.018  0.00  0.00    +0.117 A 
ATOM      3  O   UNL     1      -2.781  -0.239   0.012  0.00  0.00    -0.459 OA
ATOM      4  C   UNL     1      -2.464   1.071   0.019  0.00  0.00    +0.144 A 
ATOM      5  C   UNL     1      -3.650   1.799   0.030  0.00  0.00    +0.040 A 
ATOM      6  C   UNL     1      -3.643   3.205   0.038  0.00  0.00    -0.010 A 
ATOM      7  C   UNL     1      -2.465   3.886   0.050  0.00  0.00    +0.127 A 
ATOM      8  C   UNL     1      -1.238   3.179   0.031  0.00  0.00    +0.027 A 
ATOM      9  C   UNL     1      -1.235   1.765   0.018  0.00  0.00    +0.029 A 
ATOM     10  C   UNL     1      -0.013   1.076   0.008  0.00  0.00    +0.012 A 
ATOM     11  C   UNL     1       1.156   1.776   0.001  0.00  0.00    +0.001 A 
ATOM     12  C   UNL     1       1.154   3.169   0.007  0.00  0.00    +0.001 A 
ATOM     13  C   UNL     1      -0.015   3.868   0.022  0.00  0.00    +0.012 A 
ATOM     14  O   UNL     1      -2.438   5.245   0.057  0.00  0.00    -0.509 OA
ATOM     15  C   UNL     1      -3.643   5.932  -0.288  0.00  0.00    +0.157 C 
ATOM     16  C   UNL     1      -4.960   3.942   0.043  0.00  0.00    -0.034 C 
ATOM     17  C   UNL     1      -4.802  -1.755   0.014  0.00  0.00    +0.087 C 
ATOM     18  N   UNL     1      -4.742   5.329   0.491  0.00  0.00    +0.407 N 
ATOM     19  H   UNL     1      -4.485   5.324   1.486  0.00  0.00    -0.076 HD
ENDROOT
BRANCH   1  20
ATOM     20  C   UNL     1      -6.178   1.045   0.038  0.00  0.00    +0.343 C 
ATOM     21  O   UNL     1      -6.772   1.143   1.095  0.00  0.00    -0.245 OA
BRANCH  20  22
ATOM     22  O   UNL     1      -6.849   1.167  -1.125  0.00  0.00    -0.461 OA
BRANCH  22  24
ATOM     23  C   UNL     1      -8.861   1.524  -2.450  0.00  0.00    +0.048 C 
ATOM     24  C   UNL     1      -8.277   1.416  -1.040  0.00  0.00    +0.229 C 
ENDBRANCH  22  24
ENDBRANCH  20  22
ENDBRANCH   1  20
BRANCH  18  25
ATOM     25  C   UNL     1      -5.982   6.119   0.318  0.00  0.00    -0.042 C 
BRANCH  25  26
ATOM     26  C   UNL     1      -5.669   7.601   0.532  0.00  0.00    +0.102 C 
ATOM     27  C   UNL     1      -6.967   8.443   0.445  0.00  0.00    +0.032 C 
ATOM     28  C   UNL     1      -6.570   9.685   1.289  0.00  0.00    +0.030 C 
ATOM     29  C   UNL     1      -5.654   9.068   2.368  0.00  0.00    +0.160 C 
ATOM     30  O   UNL     1      -5.170   7.818   1.861  0.00  0.00    -0.378 OA
ENDBRANCH  25  26
ENDBRANCH  18  25
TORSDOF 5
