REMARK  Name = ZINC55084737
REMARK  10 active torsions:
REMARK  status: ('A' for Active; 'I' for Inactive)
REMARK    1  A    between atoms: C_1  and  C_2
REMARK    2  A    between atoms: C_2  and  C_3
REMARK    3  A    between atoms: C_2  and  C_4
REMARK    4  A    between atoms: C_4  and  N_5
REMARK    5  A    between atoms: C_11  and  C_13
REMARK    6  A    between atoms: C_13  and  C_15
REMARK    7  A    between atoms: C_13  and  C_18
REMARK    8  A    between atoms: C_15  and  C_16
REMARK    9  A    between atoms: C_15  and  C_17
REMARK   10  A    between atoms: N_19  and  O_20
REMARK                            x       y       z     vdW  Elec       q    Type
REMARK                         _______ _______ _______ _____ _____    ______ ____
ROOT
ATOM      1  N   UNL     1      -1.411  -2.212   0.351  0.00  0.00    +0.382 N 
ATOM      2  C   UNL     1      -0.744  -2.544  -0.914  0.00  0.00    -0.060 C 
ATOM      3  C   UNL     1      -0.682  -4.067  -1.073  0.00  0.00    +0.089 C 
ATOM      4  N   UNL     1      -2.045  -4.605  -0.946  0.00  0.00    -0.304 N 
ATOM      5  C   UNL     1      -2.848  -4.191   0.215  0.00  0.00    +0.089 C 
ATOM      6  C   UNL     1      -2.808  -2.662   0.314  0.00  0.00    -0.060 C 
ATOM      7  C   UNL     1      -2.545  -5.452  -1.867  0.00  0.00    +0.226 C 
ATOM      8  O   UNL     1      -1.905  -5.709  -2.865  0.00  0.00    -0.275 OA
ATOM      9  H   UNL     1      -0.931  -2.670   1.112  0.00  0.00    -0.082 HD
ENDROOT
BRANCH   1  10
ATOM     10  C   UNL     1      -1.372  -0.758   0.556  0.00  0.00    -0.076 C 
BRANCH  10  12
ATOM     11  C   UNL     1       0.130   1.222   0.809  0.00  0.00    +0.005 C 
ATOM     12  C   UNL     1       0.080  -0.304   0.720  0.00  0.00    -0.034 C 
ATOM     13  C   UNL     1       0.662  -0.909   2.000  0.00  0.00    +0.005 C 
ENDBRANCH  10  12
ENDBRANCH   1  10
BRANCH   7  14
ATOM     14  C   UNL     1      -3.898  -6.081  -1.657  0.00  0.00    +0.144 C 
BRANCH  14  15
ATOM     15  C   UNL     1      -4.937  -5.305  -2.425  0.00  0.00    +0.144 C 
ATOM     16  N   UNL     1      -5.285  -5.688  -3.609  0.00  0.00    -0.076 NA
ATOM     17  N   UNL     1      -5.516  -4.188  -1.864  0.00  0.00    -0.343 N 
ATOM     18  H   UNL     1      -5.254  -3.901  -0.976  0.00  0.00    +0.144 HD
ATOM     19  H   UNL     1      -6.184  -3.689  -2.358  0.00  0.00    +0.144 HD
BRANCH  16  20
ATOM     20  O   UNL     1      -6.261  -4.959  -4.330  0.00  0.00    -0.408 OA
ATOM     21  H   UNL     1      -6.456  -5.321  -5.205  0.00  0.00    +0.328 HD
ENDBRANCH  16  20
ENDBRANCH  14  15
BRANCH  14  22
ATOM     22  C   UNL     1      -3.871  -7.528  -2.155  0.00  0.00    +0.002 C 
ATOM     23  C   UNL     1      -2.777  -8.301  -1.417  0.00  0.00    +0.008 C 
ATOM     24  C   UNL     1      -5.227  -8.184  -1.889  0.00  0.00    +0.008 C 
ENDBRANCH  14  22
ENDBRANCH   7  14
TORSDOF 6
