REMARK  Name = ZINC02731790
REMARK  9 active torsions:
REMARK  status: ('A' for Active; 'I' for Inactive)
REMARK    1  A    between atoms: C_1  and  C_2
REMARK    2  A    between atoms: C_2  and  C_3
REMARK    3  A    between atoms: C_3  and  O_4
REMARK    4  A    between atoms: O_4  and  C_5
REMARK    5  A    between atoms: C_5  and  C_7
REMARK    6  A    between atoms: C_8  and  C_34
REMARK    7  A    between atoms: C_12  and  C_14
REMARK    8  A    between atoms: C_18  and  O_20
REMARK    9  A    between atoms: C_24  and  C_27
REMARK                            x       y       z     vdW  Elec       q    Type
REMARK                         _______ _______ _______ _____ _____    ______ ____
ROOT
ATOM      1  C   UNL     1      -2.696  -4.020  -0.216  0.00  0.00    +0.065 C 
ATOM      2  C   UNL     1      -3.854  -4.619   0.111  0.00  0.00    +0.016 C 
ATOM      3  N   UNL     1      -3.900  -5.968   0.325  0.00  0.00    -0.321 N 
ATOM      4  C   UNL     1      -2.912  -6.785  -0.157  0.00  0.00    +0.016 C 
ATOM      5  C   UNL     1      -1.709  -6.277  -0.500  0.00  0.00    +0.024 C 
ATOM      6  C   UNL     1      -1.425  -4.805  -0.353  0.00  0.00    +0.092 C 
ATOM      7  C   UNL     1      -0.692  -7.103  -1.011  0.00  0.00    +0.162 C 
ATOM      8  O   UNL     1       0.382  -6.614  -1.303  0.00  0.00    -0.292 OA
ATOM      9  C   UNL     1      -0.909  -8.579  -1.202  0.00  0.00    +0.088 C 
ATOM     10  C   UNL     1      -2.397  -8.836  -1.459  0.00  0.00    +0.032 C 
ATOM     11  C   UNL     1      -3.199  -8.260  -0.289  0.00  0.00    +0.059 C 
ATOM     12  C   UNL     1      -5.110  -3.797   0.242  0.00  0.00    +0.061 C 
ATOM     13  H   UNL     1      -4.639  -6.351   0.823  0.00  0.00    +0.152 HD
ENDROOT
BRANCH  10  14
ATOM     14  C   UNL     1      -2.644 -10.319  -1.565  0.00  0.00    -0.043 A 
ATOM     15  C   UNL     1      -2.348 -11.147  -0.499  0.00  0.00    +0.005 A 
ATOM     16  C   UNL     1      -2.574 -12.507  -0.596  0.00  0.00    +0.020 A 
ATOM     17  C   UNL     1      -3.096 -13.040  -1.761  0.00  0.00    +0.041 A 
ATOM     18  C   UNL     1      -3.392 -12.210  -2.829  0.00  0.00    +0.020 A 
ATOM     19  C   UNL     1      -3.171 -10.850  -2.728  0.00  0.00    +0.005 A 
ATOM     20 CL   UNL     1      -3.380 -14.748  -1.885  0.00  0.00    -0.084 Cl
ENDBRANCH  10  14
BRANCH   6  21
ATOM     21  C   UNL     1      -0.575  -4.590   0.873  0.00  0.00    -0.032 A 
ATOM     22  C   UNL     1      -1.056  -4.949   2.118  0.00  0.00    +0.005 A 
ATOM     23  C   UNL     1      -0.279  -4.754   3.245  0.00  0.00    +0.004 A 
ATOM     24  C   UNL     1       0.981  -4.198   3.128  0.00  0.00    +0.045 A 
ATOM     25  C   UNL     1       1.466  -3.837   1.880  0.00  0.00    +0.117 A 
ATOM     26  C   UNL     1       0.686  -4.040   0.750  0.00  0.00    +0.050 A 
BRANCH  25  27
ATOM     27  O   UNL     1       2.705  -3.291   1.763  0.00  0.00    -0.507 OA
ATOM     28  H   UNL     1       3.410  -3.939   1.631  0.00  0.00    +0.292 HD
ENDBRANCH  25  27
ENDBRANCH   6  21
BRANCH   1  29
ATOM     29  C   UNL     1      -2.676  -2.623  -0.439  0.00  0.00    +0.338 C 
ATOM     30  O   UNL     1      -3.718  -1.995  -0.456  0.00  0.00    -0.245 OA
BRANCH  29  31
ATOM     31  O   UNL     1      -1.501  -1.988  -0.633  0.00  0.00    -0.461 OA
BRANCH  31  32
ATOM     32  C   UNL     1      -1.556  -0.577  -0.853  0.00  0.00    +0.232 C 
BRANCH  32  34
ATOM     33  C   UNL     1      -0.197   1.474  -1.287  0.00  0.00    +0.007 C 
ATOM     34  C   UNL     1      -0.139  -0.036  -1.052  0.00  0.00    +0.038 C 
ENDBRANCH  32  34
ENDBRANCH  31  32
ENDBRANCH  29  31
ENDBRANCH   1  29
TORSDOF 7
