REMARK  Name = ZINC39923247
REMARK  8 active torsions:
REMARK  status: ('A' for Active; 'I' for Inactive)
REMARK    1  A    between atoms: C_3  and  C_16
REMARK    2  A    between atoms: C_5  and  O_7
REMARK    3  A    between atoms: O_7  and  C_8
REMARK    4  A    between atoms: C_8  and  C_9
REMARK    5  A    between atoms: C_18  and  C_22
REMARK    6  A    between atoms: N_24  and  N_25
REMARK    7  A    between atoms: C_26  and  C_27
REMARK    8  A    between atoms: C_30  and  O_33
REMARK                            x       y       z     vdW  Elec       q    Type
REMARK                         _______ _______ _______ _____ _____    ______ ____
ROOT
ATOM      1  C   UNL     1       3.659   2.172  -0.022  0.00  0.00    +0.092 C 
ATOM      2  C   UNL     1       3.752   3.516  -0.011  0.00  0.00    +0.041 C 
ATOM      3  C   UNL     1       5.247   3.778  -0.026  0.00  0.00    +0.240 C 
ATOM      4  N   UNL     1       5.825   2.424  -0.045  0.00  0.00    -0.170 NA
ATOM      5  N   UNL     1       4.897   1.612  -0.036  0.00  0.00    -0.153 NA
ENDROOT
BRANCH   1   8
ATOM      6  C   UNL     1      -0.017   1.378   0.010  0.00  0.00    +0.004 A 
ATOM      7  C   UNL     1       1.167   2.088   0.002  0.00  0.00    +0.010 A 
ATOM      8  C   UNL     1       2.385   1.411  -0.013  0.00  0.00    +0.005 A 
ATOM      9  C   UNL     1       2.404   0.019  -0.021  0.00  0.00    +0.055 A 
ATOM     10  C   UNL     1       1.211  -0.686  -0.013  0.00  0.00    +0.122 A 
ATOM     11  C   UNL     1       0.002  -0.004   0.002  0.00  0.00    +0.046 A 
BRANCH  10  12
ATOM     12  O   UNL     1       1.225  -2.045  -0.021  0.00  0.00    -0.487 OA
BRANCH  12  13
ATOM     13  C   UNL     1      -0.041  -2.707  -0.012  0.00  0.00    +0.264 C 
BRANCH  13  14
ATOM     14  C   UNL     1       0.171  -4.198  -0.023  0.00  0.00    -0.010 A 
ATOM     15  C   UNL     1       0.263  -4.875  -1.225  0.00  0.00    +0.008 A 
ATOM     16  C   UNL     1       0.458  -6.243  -1.235  0.00  0.00    +0.020 A 
ATOM     17  C   UNL     1       0.561  -6.936  -0.042  0.00  0.00    +0.041 A 
ATOM     18  C   UNL     1       0.470  -6.258   1.161  0.00  0.00    +0.020 A 
ATOM     19  C   UNL     1       0.280  -4.889   1.170  0.00  0.00    +0.008 A 
ATOM     20 CL   UNL     1       0.805  -8.655  -0.054  0.00  0.00    -0.084 Cl
ENDBRANCH  13  14
ENDBRANCH  12  13
ENDBRANCH  10  12
ENDBRANCH   1   8
BRANCH   3  21
ATOM     21  C   UNL     1       5.670   4.523   1.214  0.00  0.00    +0.263 C 
ATOM     22  O   UNL     1       6.175   3.923   2.140  0.00  0.00    -0.271 OA
ATOM     23  N   UNL     1       5.486   5.856   1.295  0.00  0.00    -0.205 N 
ATOM     24  H   UNL     1       5.082   6.335   0.555  0.00  0.00    +0.177 HD
BRANCH  23  25
ATOM     25  N   UNL     1       5.879   6.548   2.448  0.00  0.00    -0.188 NA
ATOM     26  C   UNL     1       5.702   7.832   2.525  0.00  0.00    +0.138 C 
BRANCH  26  27
ATOM     27  C   UNL     1       6.116   8.560   3.738  0.00  0.00    -0.005 A 
ATOM     28  C   UNL     1       6.703   7.872   4.803  0.00  0.00    +0.013 A 
ATOM     29  C   UNL     1       7.088   8.558   5.935  0.00  0.00    +0.046 A 
ATOM     30  C   UNL     1       6.894   9.931   6.018  0.00  0.00    +0.117 A 
ATOM     31  C   UNL     1       6.310  10.619   4.962  0.00  0.00    +0.046 A 
ATOM     32  C   UNL     1       5.927   9.942   3.824  0.00  0.00    +0.013 A 
BRANCH  30  33
ATOM     33  O   UNL     1       7.275  10.602   7.136  0.00  0.00    -0.507 OA
ATOM     34  H   UNL     1       8.184  10.931   7.106  0.00  0.00    +0.292 HD
ENDBRANCH  30  33
ENDBRANCH  26  27
ENDBRANCH  23  25
ENDBRANCH   3  21
TORSDOF 8
