REMARK  Name = ZINC52283222
REMARK  8 active torsions:
REMARK  status: ('A' for Active; 'I' for Inactive)
REMARK    1  A    between atoms: C_1  and  C_2
REMARK    2  A    between atoms: N_10  and  C_27
REMARK    3  A    between atoms: C_13  and  C_16
REMARK    4  A    between atoms: C_16  and  N_17
REMARK    5  A    between atoms: N_17  and  C_18
REMARK    6  A    between atoms: N_17  and  C_19
REMARK    7  A    between atoms: C_19  and  C_21
REMARK    8  A    between atoms: C_19  and  C_22
REMARK                            x       y       z     vdW  Elec       q    Type
REMARK                         _______ _______ _______ _____ _____    ______ ____
ROOT
ATOM      1  C   UNL     1      -0.623   0.717   1.295  0.00  0.00    +0.044 C 
ATOM      2  C   UNL     1      -0.333  -0.735   1.012  0.00  0.00    -0.050 A 
ATOM      3  C   UNL     1      -0.403  -1.211  -0.288  0.00  0.00    +0.005 A 
ATOM      4  C   UNL     1      -0.141  -2.538  -0.566  0.00  0.00    +0.027 A 
ATOM      5  C   UNL     1       0.197  -3.405   0.463  0.00  0.00    +0.063 A 
ATOM      6  C   UNL     1       0.268  -2.924   1.780  0.00  0.00    +0.064 A 
ATOM      7  C   UNL     1       0.007  -1.581   2.046  0.00  0.00    +0.018 A 
ATOM      8  C   UNL     1       0.628  -3.863   2.858  0.00  0.00    +0.263 A 
ATOM      9  O   UNL     1       0.700  -3.483   4.011  0.00  0.00    -0.267 OA
ATOM     10  N   UNL     1       0.876  -5.151   2.542  0.00  0.00    -0.280 N 
ATOM     11  C   UNL     1       0.797  -5.592   1.235  0.00  0.00    +0.239 A 
ATOM     12  N   UNL     1       0.466  -4.745   0.217  0.00  0.00    -0.266 N 
ATOM     13  C   UNL     1       0.480  -5.499  -0.921  0.00  0.00    +0.123 A 
ATOM     14  N   UNL     1       0.802  -6.714  -0.574  0.00  0.00    -0.134 NA
ATOM     15  N   UNL     1       0.990  -6.776   0.696  0.00  0.00    -0.110 NA
ATOM     16  C   UNL     1       1.236  -6.097   3.602  0.00  0.00    +0.155 C 
ENDROOT
BRANCH  13  17
ATOM     17  C   UNL     1       0.179  -5.017  -2.317  0.00  0.00    -0.000 C 
BRANCH  17  18
ATOM     18  N   UNL     1       1.429  -4.615  -2.976  0.00  0.00    +0.387 N 
ATOM     19  C   UNL     1       2.002  -3.459  -2.275  0.00  0.00    -0.095 C 
ATOM     20  H   UNL     1       2.084  -5.382  -2.952  0.00  0.00    -0.081 HD
BRANCH  18  21
ATOM     21  C   UNL     1       1.151  -4.252  -4.372  0.00  0.00    -0.034 C 
ATOM     22  C   UNL     1       2.453  -3.833  -5.059  0.00  0.00    -0.008 C 
BRANCH  21  23
ATOM     23  C   UNL     1       0.563  -5.438  -5.092  0.00  0.00    -0.024 A 
ATOM     24  C   UNL     1      -0.439  -5.472  -6.005  0.00  0.00    +0.009 A 
ATOM     25  C   UNL     1      -0.817  -6.689  -6.540  0.00  0.00    +0.008 A 
ATOM     26  C   UNL     1      -0.175  -7.812  -6.137  0.00  0.00    +0.045 A 
ATOM     27  S   UNL     1       1.010  -7.162  -4.970  0.00  0.00    -0.103 S 
ENDBRANCH  21  23
ENDBRANCH  18  21
ENDBRANCH  17  18
ENDBRANCH  13  17
TORSDOF 4
