REMARK  Name = ZINC65369857
REMARK  7 active torsions:
REMARK  status: ('A' for Active; 'I' for Inactive)
REMARK    1  A    between atoms: C_1  and  C_2
REMARK    2  A    between atoms: C_2  and  N_3
REMARK    3  A    between atoms: C_4  and  C_17
REMARK    4  A    between atoms: N_6  and  C_9
REMARK    5  A    between atoms: C_9  and  C_10
REMARK    6  A    between atoms: N_14  and  C_16
REMARK    7  A    between atoms: C_17  and  C_18
REMARK                            x       y       z     vdW  Elec       q    Type
REMARK                         _______ _______ _______ _____ _____    ______ ____
ROOT
ATOM      1  N   UNL     1      -1.372  -0.511   0.012  0.00  0.00    -0.280 N 
ATOM      2  C   UNL     1      -2.118  -0.790   1.132  0.00  0.00    +0.134 A 
ATOM      3  N   UNL     1      -3.282  -1.218   0.762  0.00  0.00    -0.154 NA
ATOM      4  N   UNL     1      -3.319  -1.227  -0.639  0.00  0.00    -0.213 N 
ATOM      5  C   UNL     1      -2.123  -0.778  -1.075  0.00  0.00    +0.347 A 
ATOM      6  O   UNL     1      -1.784  -0.642  -2.237  0.00  0.00    -0.245 OA
ENDROOT
BRANCH   1   8
ATOM      7  C   UNL     1      -0.019   1.526   0.010  0.00  0.00    +0.027 C 
ATOM      8  C   UNL     1       0.002  -0.004   0.002  0.00  0.00    +0.125 C 
ENDBRANCH   1   8
BRANCH   4   9
ATOM      9  C   UNL     1      -4.449  -1.641  -1.475  0.00  0.00    +0.150 C 
BRANCH   9  10
ATOM     10  C   UNL     1      -4.343  -3.138  -1.771  0.00  0.00    -0.008 C 
ATOM     11  C   UNL     1      -4.587  -3.967  -0.489  0.00  0.00    -0.015 C 
ATOM     12  C   UNL     1      -5.426  -5.175  -0.945  0.00  0.00    -0.079 C 
ATOM     13  N   UNL     1      -5.615  -5.046  -2.406  0.00  0.00    +0.378 N 
ATOM     14  C   UNL     1      -5.490  -3.594  -2.707  0.00  0.00    -0.074 C 
ATOM     15  C   UNL     1      -6.947  -5.531  -2.790  0.00  0.00    -0.096 C 
ATOM     16  H   UNL     1      -4.900  -5.562  -2.896  0.00  0.00    -0.082 HD
ENDBRANCH   9  10
ENDBRANCH   4   9
BRANCH   2  17
ATOM     17  C   UNL     1      -1.656  -0.625   2.557  0.00  0.00    +0.079 C 
BRANCH  17  18
ATOM     18  C   UNL     1      -2.779  -1.043   3.508  0.00  0.00    -0.007 C 
ATOM     19  C   UNL     1      -3.960  -0.079   3.361  0.00  0.00    -0.015 C 
ATOM     20  C   UNL     1      -5.047  -0.455   4.371  0.00  0.00    -0.082 C 
ATOM     21  N   UNL     1      -4.507  -0.364   5.732  0.00  0.00    +0.379 N 
ATOM     22  C   UNL     1      -3.420  -1.336   5.903  0.00  0.00    -0.082 C 
ATOM     23  C   UNL     1      -2.271  -0.995   4.952  0.00  0.00    -0.015 C 
ATOM     24  H   UNL     1      -4.152   0.567   5.891  0.00  0.00    -0.086 HD
ATOM     25  H   UNL     1      -5.240  -0.560   6.398  0.00  0.00    -0.086 HD
ENDBRANCH  17  18
ENDBRANCH   2  17
TORSDOF 5
