REMARK  Name = ZINC48962911
REMARK  8 active torsions:
REMARK  status: ('A' for Active; 'I' for Inactive)
REMARK    1  A    between atoms: C_1  and  C_2
REMARK    2  A    between atoms: C_4  and  N_9
REMARK    3  A    between atoms: N_9  and  C_10
REMARK    4  A    between atoms: C_10  and  C_12
REMARK    5  A    between atoms: C_10  and  C_13
REMARK    6  A    between atoms: C_13  and  N_14
REMARK    7  A    between atoms: C_16  and  C_23
REMARK    8  A    between atoms: C_19  and  C_22
REMARK                            x       y       z     vdW  Elec       q    Type
REMARK                         _______ _______ _______ _____ _____    ______ ____
ROOT
ATOM      1  N   UNL     1       0.030  -2.826  -2.330  0.00  0.00    -0.328 N 
ATOM      2  H   UNL     1       0.043  -3.795  -2.296  0.00  0.00    +0.148 HD
ENDROOT
BRANCH   1   6
ATOM      3  C   UNL     1      -0.018   1.503   0.010  0.00  0.00    +0.063 C 
ATOM      4  C   UNL     1       0.002  -0.004   0.002  0.00  0.00    +0.019 A 
ATOM      5  C   UNL     1       0.006  -0.696  -1.194  0.00  0.00    +0.064 A 
ATOM      6  C   UNL     1       0.026  -2.091  -1.156  0.00  0.00    +0.124 A 
ATOM      7  N   UNL     1       0.040  -2.705   0.023  0.00  0.00    -0.201 NA
ATOM      8  C   UNL     1       0.035  -2.005   1.148  0.00  0.00    +0.192 A 
ATOM      9  N   UNL     1       0.022  -0.680   1.141  0.00  0.00    -0.332 N 
ATOM     10  N   UNL     1       0.051  -2.674   2.359  0.00  0.00    -0.329 N 
ATOM     11  H   UNL     1       0.064  -3.643   2.377  0.00  0.00    +0.145 HD
ATOM     12  H   UNL     1       0.048  -2.173   3.190  0.00  0.00    +0.145 HD
ATOM     13  H   UNL     1       0.023  -0.198   1.983  0.00  0.00    +0.168 HD
ENDBRANCH   1   6
BRANCH   1  14
ATOM     14  C   UNL     1       0.013  -2.139  -3.624  0.00  0.00    +0.052 C 
ATOM     15  C   UNL     1      -1.430  -1.809  -4.008  0.00  0.00    +0.026 C 
BRANCH  14  16
ATOM     16  C   UNL     1       0.630  -3.046  -4.691  0.00  0.00    -0.057 C 
BRANCH  16  17
ATOM     17  N   UNL     1       1.974  -3.460  -4.264  0.00  0.00    +0.381 N 
ATOM     18  C   UNL     1       2.847  -2.283  -4.192  0.00  0.00    -0.076 C 
ATOM     19  C   UNL     1       4.225  -2.696  -3.670  0.00  0.00    -0.031 C 
ATOM     20  C   UNL     1       4.836  -3.729  -4.622  0.00  0.00    +0.003 C 
ATOM     21  C   UNL     1       3.881  -4.920  -4.748  0.00  0.00    -0.031 C 
ATOM     22  C   UNL     1       2.516  -4.424  -5.229  0.00  0.00    -0.076 C 
ATOM     23  C   UNL     1       4.446  -5.923  -5.756  0.00  0.00    +0.005 C 
ATOM     24  C   UNL     1       5.133  -1.468  -3.597  0.00  0.00    +0.005 C 
ATOM     25  H   UNL     1       1.918  -3.892  -3.354  0.00  0.00    -0.082 HD
ENDBRANCH  16  17
ENDBRANCH  14  16
ENDBRANCH   1  14
TORSDOF 4
