REMARK  Name = ZINC04683165
REMARK  18 active torsions:
REMARK  status: ('A' for Active; 'I' for Inactive)
REMARK    1  A    between atoms: C_1  and  C_2
REMARK    2  A    between atoms: C_2  and  C_3
REMARK    3  A    between atoms: C_4  and  C_46
REMARK    4  A    between atoms: C_12  and  C_40
REMARK    5  A    between atoms: C_13  and  C_34
REMARK    6  A    between atoms: C_19  and  C_28
REMARK    7  A    between atoms: C_20  and  C_27
REMARK    8  A    between atoms: C_28  and  C_29
REMARK    9  A    between atoms: C_29  and  C_30
REMARK   10  A    between atoms: C_30  and  O_32
REMARK   11  A    between atoms: O_32  and  C_33
REMARK   12  A    between atoms: C_34  and  C_35
REMARK   13  A    between atoms: C_35  and  C_36
REMARK   14  A    between atoms: C_36  and  O_38
REMARK   15  A    between atoms: O_38  and  C_39
REMARK   16  A    between atoms: C_41  and  C_45
REMARK   17  A    between atoms: C_42  and  C_43
REMARK   18  A    between atoms: C_43  and  C_44
REMARK                            x       y       z     vdW  Elec       q    Type
REMARK                         _______ _______ _______ _____ _____    ______ ____
ROOT
ATOM      1  C   UNL     1      -1.412  -0.526   0.013  0.00  0.00    -0.019 C 
ATOM      2  C   UNL     1      -2.145  -0.893  -1.061  0.00  0.00    -0.022 C 
ATOM      3  C   UNL     1      -3.453  -1.322  -0.545  0.00  0.00    +0.045 C 
ATOM      4  C   UNL     1      -4.470  -1.837  -1.352  0.00  0.00    +0.051 C 
ATOM      5  C   UNL     1      -5.734  -2.191  -0.878  0.00  0.00    +0.045 C 
ATOM      6  N   UNL     1      -6.221  -2.058   0.358  0.00  0.00    -0.355 N 
ATOM      7  C   UNL     1      -7.502  -2.417   0.389  0.00  0.00    +0.045 C 
ATOM      8  C   UNL     1      -8.390  -2.354   1.475  0.00  0.00    +0.051 C 
ATOM      9  C   UNL     1      -7.995  -1.998   2.752  0.00  0.00    +0.045 A 
ATOM     10  C   UNL     1      -8.863  -1.927   3.862  0.00  0.00    -0.022 A 
ATOM     11  C   UNL     1      -8.125  -1.590   4.951  0.00  0.00    -0.019 A 
ATOM     12  C   UNL     1      -6.787  -1.434   4.541  0.00  0.00    +0.045 A 
ATOM     13  N   UNL     1      -6.730  -1.657   3.185  0.00  0.00    -0.355 N 
ATOM     14  H   UNL     1      -5.938  -1.587   2.629  0.00  0.00    +0.166 HD
ATOM     15  C   UNL     1      -5.731  -1.128   5.394  0.00  0.00    +0.051 C 
ATOM     16  C   UNL     1      -4.434  -0.936   4.928  0.00  0.00    +0.045 A 
ATOM     17  C   UNL     1      -3.324  -0.658   5.747  0.00  0.00    -0.019 A 
ATOM     18  C   UNL     1      -2.239  -0.494   4.947  0.00  0.00    -0.022 A 
ATOM     19  C   UNL     1      -2.653  -0.670   3.610  0.00  0.00    +0.045 A 
ATOM     20  N   UNL     1      -3.997  -0.982   3.624  0.00  0.00    -0.355 N 
ATOM     21  H   UNL     1      -4.540  -1.196   2.849  0.00  0.00    +0.166 HD
ATOM     22  C   UNL     1      -1.827  -0.524   2.510  0.00  0.00    +0.051 C 
ATOM     23  C   UNL     1      -2.259  -0.740   1.192  0.00  0.00    +0.045 C 
ATOM     24  N   UNL     1      -3.454  -1.157   0.780  0.00  0.00    -0.355 N 
ATOM     25  C   UNL     1      -0.838  -0.180   5.406  0.00  0.00    +0.046 C 
ATOM     26  C   UNL     1     -10.349  -2.181   3.842  0.00  0.00    +0.046 C 
ATOM     27  C   UNL     1      -7.875  -2.919  -0.940  0.00  0.00    -0.022 C 
ATOM     28  C   UNL     1      -6.782  -2.781  -1.724  0.00  0.00    -0.019 C 
ATOM     29  C   UNL     1      -9.212  -3.478  -1.351  0.00  0.00    +0.046 C 
ATOM     30  C   UNL     1      -1.708  -0.867  -2.503  0.00  0.00    +0.046 C 
ATOM     31  H   UNL     1      -5.714  -1.745   1.123  0.00  0.00    +0.166 HD
ATOM     32  H   UNL     1      -4.214  -1.322   1.359  0.00  0.00    +0.166 HD
ENDROOT
BRANCH   1  34
ATOM     33  C   UNL     1      -0.019   1.526   0.010  0.00  0.00    +0.009 C 
ATOM     34  C   UNL     1       0.002  -0.004   0.002  0.00  0.00    +0.034 C 
ENDBRANCH   1  34
BRANCH  28  35
ATOM     35  C   UNL     1      -6.662  -3.158  -3.178  0.00  0.00    +0.034 C 
ATOM     36  C   UNL     1      -6.938  -1.929  -4.047  0.00  0.00    +0.009 C 
ENDBRANCH  28  35
BRANCH  17  37
ATOM     37  C   UNL     1      -3.338  -0.558   7.251  0.00  0.00    +0.048 C 
BRANCH  37  38
ATOM     38  C   UNL     1      -3.059  -1.935   7.856  0.00  0.00    +0.125 C 
BRANCH  38  39
ATOM     39  C   UNL     1      -3.072  -1.836   9.360  0.00  0.00    +0.307 C 
ATOM     40  O   UNL     1      -3.283  -0.772   9.893  0.00  0.00    -0.251 OA
BRANCH  39  41
ATOM     41  O   UNL     1      -2.850  -2.929  10.107  0.00  0.00    -0.468 OA
ATOM     42  C   UNL     1      -2.877  -2.761  11.526  0.00  0.00    +0.280 C 
ENDBRANCH  39  41
ENDBRANCH  38  39
ENDBRANCH  37  38
ENDBRANCH  17  37
BRANCH  11  43
ATOM     43  C   UNL     1      -8.648  -1.413   6.353  0.00  0.00    +0.048 C 
BRANCH  43  44
ATOM     44  C   UNL     1      -8.580  -2.749   7.095  0.00  0.00    +0.125 C 
BRANCH  44  45
ATOM     45  C   UNL     1      -9.102  -2.572   8.498  0.00  0.00    +0.307 C 
ATOM     46  O   UNL     1      -9.489  -1.489   8.866  0.00  0.00    -0.251 OA
BRANCH  45  47
ATOM     47  O   UNL     1      -9.138  -3.619   9.337  0.00  0.00    -0.468 OA
ATOM     48  C   UNL     1      -9.645  -3.379  10.652  0.00  0.00    +0.280 C 
ENDBRANCH  45  47
ENDBRANCH  44  45
ENDBRANCH  43  44
ENDBRANCH  11  43
TORSDOF 10
