REMARK  Name = ZINC12275277
REMARK  9 active torsions:
REMARK  status: ('A' for Active; 'I' for Inactive)
REMARK    1  A    between atoms: C_1  and  C_2
REMARK    2  A    between atoms: C_2  and  O_3
REMARK    3  A    between atoms: O_3  and  C_4
REMARK    4  A    between atoms: C_6  and  C_11
REMARK    5  A    between atoms: C_9  and  O_10
REMARK    6  A    between atoms: C_18  and  C_19
REMARK    7  A    between atoms: C_23  and  C_24
REMARK    8  A    between atoms: C_23  and  O_31
REMARK    9  A    between atoms: C_27  and  C_30
REMARK                            x       y       z     vdW  Elec       q    Type
REMARK                         _______ _______ _______ _____ _____    ______ ____
ROOT
ATOM      1  C   UNL     1      -0.732   1.582  -1.243  0.00  0.00    +0.071 C 
ATOM      2  C   UNL     1      -0.013   1.086   0.008  0.00  0.00    +0.110 C 
ATOM      3  C   UNL     1      -0.699   1.562   1.260  0.00  0.00    +0.224 C 
ATOM      4  O   UNL     1      -0.806   0.830   2.220  0.00  0.00    -0.275 OA
ATOM      5  N   UNL     1      -1.198   2.836   1.297  0.00  0.00    -0.231 N 
ATOM      6  C   UNL     1      -1.271   3.561   0.117  0.00  0.00    +0.087 C 
ATOM      7  C   UNL     1      -1.029   3.060  -1.120  0.00  0.00    +0.065 C 
ATOM      8  S   UNL     1      -1.732   5.211   0.560  0.00  0.00    -0.104 S 
ATOM      9  C   UNL     1      -1.964   4.980   2.363  0.00  0.00    +0.136 C 
ATOM     10  C   UNL     1      -1.631   3.486   2.522  0.00  0.00    +0.175 C 
ENDROOT
BRANCH  10  11
ATOM     11  C   UNL     1      -0.539   3.346   3.550  0.00  0.00    +0.003 A 
ATOM     12  C   UNL     1       0.782   3.268   3.150  0.00  0.00    +0.008 A 
ATOM     13  C   UNL     1       1.784   3.145   4.093  0.00  0.00    +0.004 A 
ATOM     14  C   UNL     1       1.465   3.088   5.437  0.00  0.00    -0.050 A 
ATOM     15  C   UNL     1       0.144   3.160   5.838  0.00  0.00    +0.004 A 
ATOM     16  C   UNL     1      -0.858   3.289   4.894  0.00  0.00    +0.008 A 
ATOM     17  C   UNL     1       2.558   2.946   6.466  0.00  0.00    +0.044 C 
ENDBRANCH  10  11
BRANCH   1  20
ATOM     18  C   UNL     1      -3.436  -0.618  -2.701  0.00  0.00    +0.162 A 
ATOM     19  C   UNL     1      -2.249   0.081  -2.550  0.00  0.00    +0.053 A 
ATOM     20  C   UNL     1      -2.026   0.827  -1.407  0.00  0.00    -0.035 A 
ATOM     21  C   UNL     1      -2.990   0.887  -0.418  0.00  0.00    +0.008 A 
ATOM     22  C   UNL     1      -4.179   0.196  -0.565  0.00  0.00    +0.049 A 
ATOM     23  C   UNL     1      -4.406  -0.558  -1.705  0.00  0.00    +0.158 A 
BRANCH  23  24
ATOM     24  O   UNL     1      -5.575  -1.238  -1.851  0.00  0.00    -0.503 OA
ATOM     25  H   UNL     1      -6.273  -0.730  -2.287  0.00  0.00    +0.292 HD
ENDBRANCH  23  24
BRANCH  18  26
ATOM     26  O   UNL     1      -3.654  -1.356  -3.822  0.00  0.00    -0.489 OA
BRANCH  26  28
ATOM     27  C   UNL     1      -3.037  -2.248  -5.981  0.00  0.00    +0.048 C 
ATOM     28  C   UNL     1      -2.614  -1.371  -4.801  0.00  0.00    +0.226 C 
ENDBRANCH  26  28
ENDBRANCH  18  26
ENDBRANCH   1  20
BRANCH   7  29
ATOM     29  C   UNL     1      -1.054   3.905  -2.275  0.00  0.00    +0.098 C 
ATOM     30  N   UNL     1      -1.074   4.576  -3.192  0.00  0.00    -0.191 NA
ENDBRANCH   7  29
BRANCH  10  31
ATOM     31  O   UNL     1      -2.793   2.811   3.008  0.00  0.00    -0.366 OA
ATOM     32  H   UNL     1      -3.150   3.182   3.826  0.00  0.00    +0.212 HD
ENDBRANCH  10  31
TORSDOF 7
