REMARK  Name = ZINC40010326
REMARK  8 active torsions:
REMARK  status: ('A' for Active; 'I' for Inactive)
REMARK    1  A    between atoms: C_1  and  C_2
REMARK    2  A    between atoms: C_9  and  O_31
REMARK    3  A    between atoms: C_10  and  O_29
REMARK    4  A    between atoms: C_13  and  C_15
REMARK    5  A    between atoms: C_20  and  O_27
REMARK    6  A    between atoms: O_27  and  C_28
REMARK    7  A    between atoms: O_29  and  C_30
REMARK    8  A    between atoms: O_31  and  C_32
REMARK                            x       y       z     vdW  Elec       q    Type
REMARK                         _______ _______ _______ _____ _____    ______ ____
ROOT
ATOM      1  C   UNL     1      -0.018   1.503   0.010  0.00  0.00    +0.109 C 
ATOM      2  C   UNL     1       0.002  -0.004   0.002  0.00  0.00    +0.213 C 
ATOM      3  O   UNL     1       1.060  -0.596  -0.011  0.00  0.00    -0.276 OA
ATOM      4  N   UNL     1      -1.156  -0.694   0.009  0.00  0.00    -0.293 N 
ATOM      5  C   UNL     1      -2.457  -0.005   0.019  0.00  0.00    +0.113 C 
ATOM      6  C   UNL     1      -3.176  -0.342  -1.286  0.00  0.00    +0.054 C 
ATOM      7  C   UNL     1      -3.125  -1.822  -1.560  0.00  0.00    -0.037 A 
ATOM      8  C   UNL     1      -4.064  -2.345  -2.442  0.00  0.00    +0.053 A 
ATOM      9  C   UNL     1      -4.069  -3.693  -2.746  0.00  0.00    +0.162 A 
ATOM     10  C   UNL     1      -3.124  -4.535  -2.166  0.00  0.00    +0.162 A 
ATOM     11  C   UNL     1      -2.194  -4.012  -1.287  0.00  0.00    +0.055 A 
ATOM     12  C   UNL     1      -2.197  -2.658  -0.980  0.00  0.00    -0.019 A 
ATOM     13  C   UNL     1      -1.170  -2.160   0.002  0.00  0.00    +0.122 C 
ENDROOT
BRANCH  13  14
ATOM     14  C   UNL     1      -1.519  -2.673   1.400  0.00  0.00    +0.123 C 
ATOM     15  C   UNL     1      -0.412  -2.244   2.343  0.00  0.00    -0.002 C 
ATOM     16  C   UNL     1      -0.765  -1.478   3.414  0.00  0.00    -0.003 A 
ATOM     17  C   UNL     1       0.241  -1.021   4.373  0.00  0.00    +0.055 A 
ATOM     18  C   UNL     1      -0.158  -0.258   5.428  0.00  0.00    +0.121 A 
ATOM     19  C   UNL     1      -1.502   0.091   5.607  0.00  0.00    +0.047 A 
ATOM     20  C   UNL     1      -2.479  -0.303   4.751  0.00  0.00    +0.027 A 
ATOM     21  C   UNL     1      -2.172  -1.095   3.628  0.00  0.00    +0.041 A 
ATOM     22  N   UNL     1      -3.142  -1.474   2.796  0.00  0.00    -0.284 N 
ATOM     23  C   UNL     1      -2.924  -2.217   1.725  0.00  0.00    +0.226 C 
ATOM     24  O   UNL     1      -3.850  -2.532   1.002  0.00  0.00    -0.275 OA
ATOM     25  H   UNL     1      -4.050  -1.192   2.986  0.00  0.00    +0.155 HD
BRANCH  18  26
ATOM     26  O   UNL     1       0.767   0.173   6.326  0.00  0.00    -0.495 OA
ATOM     27  C   UNL     1       0.293   0.970   7.414  0.00  0.00    +0.277 C 
ENDBRANCH  18  26
ENDBRANCH  13  14
BRANCH  10  28
ATOM     28  O   UNL     1      -3.116  -5.862  -2.461  0.00  0.00    -0.491 OA
ATOM     29  C   UNL     1      -2.116  -6.662  -1.827  0.00  0.00    +0.277 C 
ENDBRANCH  10  28
BRANCH   9  30
ATOM     30  O   UNL     1      -4.994  -4.196  -3.608  0.00  0.00    -0.491 OA
ATOM     31  C   UNL     1      -5.932  -3.272  -4.164  0.00  0.00    +0.277 C 
ENDBRANCH   9  30
TORSDOF 4
