REMARK  Name = ZINC36038413
REMARK  7 active torsions:
REMARK  status: ('A' for Active; 'I' for Inactive)
REMARK    1  A    between atoms: C_1  and  C_2
REMARK    2  A    between atoms: C_2  and  C_3
REMARK    3  A    between atoms: C_2  and  C_4
REMARK    4  A    between atoms: C_4  and  C_5
REMARK    5  A    between atoms: N_9  and  C_28
REMARK    6  A    between atoms: N_14  and  S_17
REMARK    7  A    between atoms: S_17  and  C_20
REMARK                            x       y       z     vdW  Elec       q    Type
REMARK                         _______ _______ _______ _____ _____    ______ ____
ROOT
ATOM      1  C   UNL     1      -2.141  -0.114  -1.292  0.00  0.00    +0.019 C 
ATOM      2  C   UNL     1      -3.583  -0.574  -1.286  0.00  0.00    +0.201 C 
ATOM      3  O   UNL     1      -4.363  -0.446  -0.367  0.00  0.00    -0.277 OA
ATOM      4  N   UNL     1      -3.854  -1.148  -2.477  0.00  0.00    -0.311 N 
ATOM      5  C   UNL     1      -2.659  -1.105  -3.324  0.00  0.00    +0.006 C 
ATOM      6  N   UNL     1      -1.515  -0.840  -2.424  0.00  0.00    +0.401 N 
ATOM      7  C   UNL     1      -2.462  -2.445  -4.029  0.00  0.00    +0.023 C 
ATOM      8  C   UNL     1      -3.669  -2.727  -4.931  0.00  0.00    +0.109 C 
ATOM      9  N   UNL     1      -3.862  -1.583  -5.832  0.00  0.00    -0.177 NA
ATOM     10  C   UNL     1      -3.987  -0.239  -5.253  0.00  0.00    +0.109 C 
ATOM     11  C   UNL     1      -2.778   0.022  -4.348  0.00  0.00    +0.023 C 
ATOM     12  H   UNL     1      -0.826  -0.261  -2.881  0.00  0.00    -0.082 HD
ATOM     13  H   UNL     1      -1.103  -1.705  -2.108  0.00  0.00    -0.082 HD
ENDROOT
BRANCH   9  14
ATOM     14  S   UNL     1      -3.938  -1.804  -7.472  0.00  0.00    +0.061 S 
ATOM     15  O   UNL     1      -3.568  -0.568  -8.066  0.00  0.00    -0.153 OA
ATOM     16  O   UNL     1      -3.253  -3.018  -7.750  0.00  0.00    -0.153 OA
BRANCH  14  17
ATOM     17  C   UNL     1      -5.629  -2.075  -7.884  0.00  0.00    +0.107 A 
ATOM     18  C   UNL     1      -6.143  -3.358  -7.888  0.00  0.00    +0.030 A 
ATOM     19  C   UNL     1      -7.470  -3.572  -8.211  0.00  0.00    +0.023 A 
ATOM     20  C   UNL     1      -8.285  -2.501  -8.531  0.00  0.00    +0.059 A 
ATOM     21  C   UNL     1      -7.771  -1.215  -8.527  0.00  0.00    +0.061 A 
ATOM     22  C   UNL     1      -6.444  -1.003  -8.197  0.00  0.00    +0.050 A 
ATOM     23 CL   UNL     1      -8.792   0.130  -8.928  0.00  0.00    -0.082 Cl
ATOM     24 CL   UNL     1      -9.951  -2.768  -8.938  0.00  0.00    -0.082 Cl
ENDBRANCH  14  17
ENDBRANCH   9  14
BRANCH   4  25
ATOM     25  C   UNL     1      -5.144  -1.726  -2.863  0.00  0.00    +0.075 C 
ATOM     26  C   UNL     1      -6.289  -1.635  -1.853  0.00  0.00    +0.024 C 
ATOM     27  C   UNL     1      -5.607  -2.979  -2.118  0.00  0.00    +0.024 C 
ENDBRANCH   4  25
BRANCH   1  28
ATOM     28  C   UNL     1      -1.457  -0.488   0.024  0.00  0.00    -0.004 C 
BRANCH  28  30
ATOM     29  C   UNL     1      -0.026   1.560  -0.015  0.00  0.00    +0.007 C 
ATOM     30  C   UNL     1      -0.018   0.030   0.017  0.00  0.00    -0.018 C 
ATOM     31  C   UNL     1       0.704  -0.450   1.277  0.00  0.00    +0.007 C 
ENDBRANCH  28  30
ENDBRANCH   1  28
TORSDOF 5
