REMARK  Name = ZINC45990638
REMARK  13 active torsions:
REMARK  status: ('A' for Active; 'I' for Inactive)
REMARK    1  A    between atoms: C_1  and  C_2
REMARK    2  A    between atoms: C_2  and  C_3
REMARK    3  A    between atoms: C_6  and  N_9
REMARK    4  A    between atoms: C_12  and  C_31
REMARK    5  A    between atoms: C_14  and  O_16
REMARK    6  A    between atoms: O_16  and  C_17
REMARK    7  A    between atoms: C_17  and  C_18
REMARK    8  A    between atoms: N_20  and  C_21
REMARK    9  A    between atoms: C_23  and  O_29
REMARK   10  A    between atoms: C_25  and  O_27
REMARK   11  A    between atoms: O_27  and  C_28
REMARK   12  A    between atoms: O_29  and  C_30
REMARK   13  A    between atoms: C_32  and  C_34
REMARK                            x       y       z     vdW  Elec       q    Type
REMARK                         _______ _______ _______ _____ _____    ______ ____
ROOT
ATOM      1  N   UNL     1      -5.330  -1.940   0.064  0.00  0.00    -0.214 N 
ATOM      2  C   UNL     1      -6.301  -1.626  -0.852  0.00  0.00    +0.167 A 
ATOM      3  C   UNL     1      -7.457  -2.334  -0.472  0.00  0.00    +0.045 A 
ATOM      4  C   UNL     1      -8.625  -2.205  -1.235  0.00  0.00    -0.033 A 
ATOM      5  C   UNL     1      -8.594  -1.387  -2.332  0.00  0.00    +0.071 A 
ATOM      6  C   UNL     1      -7.417  -0.713  -2.655  0.00  0.00    +0.217 A 
ATOM      7  N   UNL     1      -6.325  -0.846  -1.926  0.00  0.00    -0.193 NA
ATOM      8  C   UNL     1      -9.881  -2.947  -0.859  0.00  0.00    +0.045 C 
ATOM      9  C   UNL     1      -7.105  -3.086   0.728  0.00  0.00    +0.070 A 
ATOM     10  N   UNL     1      -5.857  -2.833   1.002  0.00  0.00    -0.169 NA
ATOM     11  C   UNL     1      -8.020  -3.997   1.507  0.00  0.00    +0.068 C 
ENDROOT
BRANCH   1  15
ATOM     12  C   UNL     1      -1.427  -0.482   0.044  0.00  0.00    -0.047 A 
ATOM     13  C   UNL     1      -2.069  -0.718   1.246  0.00  0.00    +0.006 A 
ATOM     14  C   UNL     1      -3.363  -1.202   1.256  0.00  0.00    +0.028 A 
ATOM     15  C   UNL     1      -4.019  -1.450   0.057  0.00  0.00    +0.068 A 
ATOM     16  C   UNL     1      -3.371  -1.211  -1.148  0.00  0.00    +0.028 A 
ATOM     17  C   UNL     1      -2.079  -0.723  -1.151  0.00  0.00    +0.006 A 
BRANCH  12  19
ATOM     18  C   UNL     1      -0.042   1.575   0.038  0.00  0.00    +0.009 C 
ATOM     19  C   UNL     1      -0.015   0.045   0.037  0.00  0.00    +0.032 C 
ENDBRANCH  12  19
ENDBRANCH   1  15
BRANCH   6  20
ATOM     20  O   UNL     1      -7.394   0.096  -3.744  0.00  0.00    -0.467 OA
BRANCH  20  21
ATOM     21  C   UNL     1      -6.163   0.763  -4.030  0.00  0.00    +0.326 C 
BRANCH  21  22
ATOM     22  C   UNL     1      -6.326   1.610  -5.266  0.00  0.00    +0.255 C 
ATOM     23  O   UNL     1      -7.392   1.640  -5.844  0.00  0.00    -0.272 OA
ATOM     24  N   UNL     1      -5.288   2.335  -5.728  0.00  0.00    -0.282 N 
ATOM     25  H   UNL     1      -4.457   2.364  -5.230  0.00  0.00    +0.155 HD
BRANCH  24  26
ATOM     26  C   UNL     1      -5.410   3.045  -6.928  0.00  0.00    +0.040 A 
ATOM     27  C   UNL     1      -4.319   3.164  -7.778  0.00  0.00    +0.069 A 
ATOM     28  C   UNL     1      -4.440   3.868  -8.966  0.00  0.00    +0.125 A 
ATOM     29  C   UNL     1      -5.651   4.454  -9.305  0.00  0.00    +0.091 A 
ATOM     30  C   UNL     1      -6.741   4.335  -8.456  0.00  0.00    +0.125 A 
ATOM     31  C   UNL     1      -6.623   3.626  -7.270  0.00  0.00    +0.069 A 
BRANCH  30  32
ATOM     32  O   UNL     1      -7.927   4.910  -8.789  0.00  0.00    -0.495 OA
ATOM     33  C   UNL     1      -7.979   5.620 -10.027  0.00  0.00    +0.277 C 
ENDBRANCH  30  32
BRANCH  28  34
ATOM     34  O   UNL     1      -3.373   3.985  -9.799  0.00  0.00    -0.495 OA
ATOM     35  C   UNL     1      -3.569   4.724 -11.006  0.00  0.00    +0.277 C 
ENDBRANCH  28  34
ENDBRANCH  24  26
ENDBRANCH  21  22
ENDBRANCH  20  21
ENDBRANCH   6  20
TORSDOF 8
