REMARK  Name = ZINC20568346
REMARK  8 active torsions:
REMARK  status: ('A' for Active; 'I' for Inactive)
REMARK    1  A    between atoms: C_1  and  C_2
REMARK    2  A    between atoms: C_2  and  C_34
REMARK    3  A    between atoms: C_6  and  C_21
REMARK    4  A    between atoms: C_8  and  C_19
REMARK    5  A    between atoms: C_9  and  N_18
REMARK    6  A    between atoms: N_10  and  C_11
REMARK    7  A    between atoms: C_24  and  S_27
REMARK    8  A    between atoms: S_27  and  N_30
REMARK                            x       y       z     vdW  Elec       q    Type
REMARK                         _______ _______ _______ _____ _____    ______ ____
ROOT
ATOM      1  C   UNL     1       0.733   0.279  -0.257  0.00  0.00    +0.011 C 
ATOM      2  C   UNL     1       0.497   1.786  -0.143  0.00  0.00    -0.023 C 
ATOM      3  C   UNL     1      -0.239   2.287  -1.388  0.00  0.00    +0.058 C 
ATOM      4  C   UNL     1      -0.515   3.765  -1.252  0.00  0.00    +0.025 C 
ATOM      5  C   UNL     1      -0.714   4.327  -0.041  0.00  0.00    +0.025 C 
ATOM      6  C   UNL     1      -0.986   5.804   0.092  0.00  0.00    +0.097 C 
ATOM      7  C   UNL     1      -1.421   6.396  -1.216  0.00  0.00    +0.077 C 
ATOM      8  C   UNL     1      -1.196   5.748  -2.388  0.00  0.00    +0.107 C 
ATOM      9  N   UNL     1      -0.565   4.524  -2.391  0.00  0.00    -0.259 N 
ATOM     10  C   UNL     1      -0.668   3.554   1.133  0.00  0.00    +0.162 C 
ATOM     11  O   UNL     1      -0.871   4.087   2.206  0.00  0.00    -0.292 OA
ATOM     12  C   UNL     1      -0.367   2.081   1.088  0.00  0.00    +0.086 C 
ATOM     13  C   UNL     1       1.839   2.509  -0.013  0.00  0.00    +0.011 C 
ENDROOT
BRANCH   9  14
ATOM     14  C   UNL     1       0.030   4.053  -3.567  0.00  0.00    +0.058 A 
ATOM     15  C   UNL     1      -0.741   3.416  -4.531  0.00  0.00    +0.025 A 
ATOM     16  C   UNL     1      -0.151   2.952  -5.690  0.00  0.00    +0.002 A 
ATOM     17  C   UNL     1       1.207   3.121  -5.893  0.00  0.00    +0.002 A 
ATOM     18  C   UNL     1       1.978   3.754  -4.936  0.00  0.00    +0.022 A 
ATOM     19  C   UNL     1       1.393   4.226  -3.776  0.00  0.00    +0.063 A 
ATOM     20 CL   UNL     1       2.361   5.027  -2.578  0.00  0.00    -0.082 Cl
ENDBRANCH   9  14
BRANCH   6  21
ATOM     21  C   UNL     1       0.269   6.498   0.555  0.00  0.00    -0.035 A 
ATOM     22  C   UNL     1       0.421   6.836   1.887  0.00  0.00    +0.006 A 
ATOM     23  C   UNL     1       1.574   7.469   2.312  0.00  0.00    +0.029 A 
ATOM     24  C   UNL     1       2.571   7.771   1.404  0.00  0.00    +0.105 A 
ATOM     25  C   UNL     1       2.417   7.438   0.072  0.00  0.00    +0.029 A 
ATOM     26  C   UNL     1       1.266   6.801  -0.353  0.00  0.00    +0.006 A 
BRANCH  24  27
ATOM     27  S   UNL     1       4.039   8.583   1.945  0.00  0.00    +0.056 S 
ATOM     28  O   UNL     1       4.174   8.296   3.331  0.00  0.00    -0.153 OA
ATOM     29  O   UNL     1       5.051   8.265   1.000  0.00  0.00    -0.153 OA
BRANCH  27  30
ATOM     30  N   UNL     1       3.771  10.212   1.823  0.00  0.00    -0.204 NA
ATOM     31  H   UNL     1       4.668  10.757   2.153  0.00  0.00    +0.144 HD
ATOM     32  H   UNL     1       2.917  10.492   2.458  0.00  0.00    +0.144 HD
ENDBRANCH  27  30
ENDBRANCH  24  27
ENDBRANCH   6  21
BRANCH   8  33
ATOM     33  N   UNL     1      -1.597   6.316  -3.574  0.00  0.00    -0.345 N 
ATOM     34  H   UNL     1      -1.415   5.793  -4.524  0.00  0.00    +0.144 HD
ATOM     35  H   UNL     1      -2.101   7.294  -3.572  0.00  0.00    +0.144 HD
ENDBRANCH   8  33
BRANCH   7  36
ATOM     36  C   UNL     1      -2.086   7.664  -1.228  0.00  0.00    +0.099 C 
ATOM     37  N   UNL     1      -2.614   8.670  -1.238  0.00  0.00    -0.191 NA
ENDBRANCH   7  36
TORSDOF 6
