REMARK  Name = ZINC55270774
REMARK  3 active torsions:
REMARK  status: ('A' for Active; 'I' for Inactive)
REMARK    1  A    between atoms: C_1  and  C_2
REMARK    2  A    between atoms: C_2  and  N_3
REMARK    3  A    between atoms: C_6  and  C_9
REMARK                            x       y       z     vdW  Elec       q    Type
REMARK                         _______ _______ _______ _____ _____    ______ ____
ROOT
ATOM      1  C   UNL     1       2.005  -4.717   3.277  0.00  0.00    +0.035 C 
ATOM      2  C   UNL     1       3.513  -4.487   3.389  0.00  0.00    +0.018 C 
ATOM      3  C   UNL     1       4.110  -5.487   4.380  0.00  0.00    -0.010 C 
ATOM      4  C   UNL     1       3.847  -6.912   3.888  0.00  0.00    +0.007 C 
ATOM      5  C   UNL     1       2.339  -7.143   3.776  0.00  0.00    -0.010 C 
ATOM      6  C   UNL     1       1.742  -6.142   2.785  0.00  0.00    +0.018 C 
ATOM      7  C   UNL     1       1.691  -6.950   5.149  0.00  0.00    +0.007 C 
ATOM      8  C   UNL     1       1.954  -5.525   5.641  0.00  0.00    -0.010 C 
ATOM      9  C   UNL     1       3.462  -5.294   5.753  0.00  0.00    +0.007 C 
ATOM     10  C   UNL     1       1.357  -4.524   4.650  0.00  0.00    +0.018 C 
ENDROOT
BRANCH   1  14
ATOM     11  N   UNL     1       0.711  -0.489   1.189  0.00  0.00    -0.297 N 
ATOM     12  C   UNL     1       0.857  -1.839   1.398  0.00  0.00    +0.314 A 
ATOM     13  N   UNL     1       1.463  -2.402   2.419  0.00  0.00    -0.178 NA
ATOM     14  C   UNL     1       1.417  -3.732   2.301  0.00  0.00    +0.180 A 
ATOM     15  N   UNL     1       0.783  -4.040   1.205  0.00  0.00    -0.059 NA
ATOM     16  O   UNL     1       0.400  -2.816   0.597  0.00  0.00    -0.317 OA
ATOM     17  H   UNL     1       1.077   0.142   1.827  0.00  0.00    +0.150 HD
BRANCH  11  19
ATOM     18  C   UNL     1      -0.019   1.526   0.010  0.00  0.00    +0.024 C 
ATOM     19  C   UNL     1       0.002  -0.004   0.002  0.00  0.00    +0.102 C 
ENDBRANCH  11  19
ENDBRANCH   1  14
TORSDOF 2
