REMARK  Name = ZINC46864070
REMARK  8 active torsions:
REMARK  status: ('A' for Active; 'I' for Inactive)
REMARK    1  A    between atoms: C_1  and  C_2
REMARK    2  A    between atoms: N_5  and  C_11
REMARK    3  A    between atoms: C_7  and  C_10
REMARK    4  A    between atoms: C_11  and  C_13
REMARK    5  A    between atoms: C_11  and  C_14
REMARK    6  A    between atoms: C_14  and  N_15
REMARK    7  A    between atoms: C_16  and  C_18
REMARK    8  A    between atoms: N_24  and  C_25
REMARK                            x       y       z     vdW  Elec       q    Type
REMARK                         _______ _______ _______ _____ _____    ______ ____
ROOT
ATOM      1  N   UNL     1      -2.227  -4.606   1.324  0.00  0.00    -0.309 N 
ATOM      2  C   UNL     1      -1.903  -5.911   1.408  0.00  0.00    +0.262 C 
ATOM      3  O   UNL     1      -2.263  -6.685   0.541  0.00  0.00    -0.269 OA
ATOM      4  H   UNL     1      -1.939  -3.989   2.015  0.00  0.00    +0.149 HD
ENDROOT
BRANCH   2   5
ATOM      5  C   UNL     1      -1.115  -6.399   2.545  0.00  0.00    +0.127 A 
ATOM      6  C   UNL     1      -0.584  -5.646   3.535  0.00  0.00    +0.116 A 
ATOM      7  N   UNL     1       0.073  -6.485   4.395  0.00  0.00    -0.339 N 
ATOM      8  H   UNL     1       0.546  -6.215   5.197  0.00  0.00    +0.167 HD
ATOM      9  C   UNL     1      -0.049  -7.748   3.944  0.00  0.00    +0.163 A 
ATOM     10  S   UNL     1       0.608  -9.143   4.689  0.00  0.00    -0.013 S 
ATOM     11  N   UNL     1      -0.778  -7.730   2.811  0.00  0.00    -0.284 N 
BRANCH  11  12
ATOM     12  C   UNL     1      -1.132  -8.843   2.038  0.00  0.00    +0.049 A 
ATOM     13  C   UNL     1      -0.563  -9.029   0.785  0.00  0.00    +0.026 A 
ATOM     14  C   UNL     1      -0.913 -10.128   0.025  0.00  0.00    +0.002 A 
ATOM     15  C   UNL     1      -1.830 -11.042   0.511  0.00  0.00    +0.000 A 
ATOM     16  C   UNL     1      -2.399 -10.859   1.758  0.00  0.00    +0.002 A 
ATOM     17  C   UNL     1      -2.048  -9.766   2.525  0.00  0.00    +0.026 A 
ENDBRANCH  11  12
ENDBRANCH   2   5
BRANCH   1  18
ATOM     18  C   UNL     1      -3.014  -4.118   0.188  0.00  0.00    +0.123 C 
BRANCH  18  19
ATOM     19  C   UNL     1      -3.134  -2.595   0.267  0.00  0.00    +0.071 C 
ATOM     20  C   UNL     1      -3.851  -2.075  -0.981  0.00  0.00    +0.026 C 
BRANCH  19  24
ATOM     21  C   UNL     1       1.102  -1.755  -2.093  0.00  0.00    +0.039 C 
ATOM     22  C   UNL     1       0.355  -1.622  -0.765  0.00  0.00    +0.130 C 
ATOM     23  C   UNL     1      -1.054  -2.202  -0.910  0.00  0.00    +0.116 C 
ATOM     24  N   UNL     1      -1.793  -2.001   0.345  0.00  0.00    -0.293 NA
ATOM     25  C   UNL     1      -1.868  -0.573   0.683  0.00  0.00    +0.116 C 
ATOM     26  C   UNL     1      -0.451  -0.009   0.812  0.00  0.00    +0.130 C 
ATOM     27  O   UNL     1       0.263  -0.241  -0.405  0.00  0.00    -0.371 OA
ATOM     28  C   UNL     1       0.272  -0.704   1.968  0.00  0.00    +0.039 C 
ENDBRANCH  19  24
ENDBRANCH  18  19
ENDBRANCH   1  18
TORSDOF 5
