REMARK  Name = ZINC51187270
REMARK  9 active torsions:
REMARK  status: ('A' for Active; 'I' for Inactive)
REMARK    1  A    between atoms: C_1  and  C_2
REMARK    2  A    between atoms: C_2  and  C_3
REMARK    3  A    between atoms: C_2  and  C_4
REMARK    4  A    between atoms: C_4  and  C_5
REMARK    5  A    between atoms: C_5  and  O_6
REMARK    6  A    between atoms: O_6  and  C_7
REMARK    7  A    between atoms: C_9  and  C_15
REMARK    8  A    between atoms: C_12  and  O_13
REMARK    9  A    between atoms: O_13  and  C_14
REMARK                            x       y       z     vdW  Elec       q    Type
REMARK                         _______ _______ _______ _____ _____    ______ ____
ROOT
ATOM      1  C   UNL     1      -0.774  -6.989  -0.566  0.00  0.00    +0.209 C 
ATOM      2  N   UNL     1      -1.050  -8.069  -1.531  0.00  0.00    -0.294 N 
ATOM      3  C   UNL     1      -1.779  -9.163  -1.088  0.00  0.00    +0.159 C 
ATOM      4  N   UNL     1      -1.324  -9.782   0.077  0.00  0.00    -0.259 N 
ATOM      5  C   UNL     1      -0.759  -8.928   1.019  0.00  0.00    +0.205 A 
ATOM      6  N   UNL     1      -0.484  -7.608   0.733  0.00  0.00    -0.288 N 
ATOM      7  C   UNL     1       0.071  -7.057   1.852  0.00  0.00    +0.072 A 
ATOM      8  C   UNL     1       0.546  -5.784   2.144  0.00  0.00    +0.028 A 
ATOM      9  C   UNL     1       1.053  -5.576   3.416  0.00  0.00    +0.002 A 
ATOM     10  C   UNL     1       1.093  -6.583   4.365  0.00  0.00    +0.002 A 
ATOM     11  C   UNL     1       0.627  -7.858   4.099  0.00  0.00    +0.030 A 
ATOM     12  C   UNL     1       0.110  -8.092   2.821  0.00  0.00    +0.091 A 
ATOM     13  N   UNL     1      -0.412  -9.199   2.248  0.00  0.00    -0.214 NA
ATOM     14  N   UNL     1      -2.833  -9.590  -1.725  0.00  0.00    -0.375 N 
ATOM     15  H   UNL     1      -3.126  -9.139  -2.533  0.00  0.00    +0.158 HD
ATOM     16  H   UNL     1      -1.395 -10.739   0.219  0.00  0.00    +0.158 HD
ATOM     17  H   UNL     1      -0.732  -8.017  -2.446  0.00  0.00    +0.151 HD
ATOM     18  H   UNL     1      -3.323 -10.357  -1.392  0.00  0.00    +0.158 HD
ENDROOT
BRANCH   1  21
ATOM     19  C   UNL     1      -2.919  -3.898  -0.222  0.00  0.00    +0.162 A 
ATOM     20  C   UNL     1      -1.812  -4.724  -0.333  0.00  0.00    +0.056 A 
ATOM     21  C   UNL     1      -1.979  -6.092  -0.446  0.00  0.00    -0.003 A 
ATOM     22  C   UNL     1      -3.249  -6.638  -0.449  0.00  0.00    +0.011 A 
ATOM     23  C   UNL     1      -4.357  -5.820  -0.339  0.00  0.00    +0.050 A 
ATOM     24  C   UNL     1      -4.197  -4.449  -0.220  0.00  0.00    +0.162 A 
BRANCH  24  25
ATOM     25  O   UNL     1      -5.286  -3.642  -0.106  0.00  0.00    -0.491 OA
ATOM     26  C   UNL     1      -6.566  -4.277  -0.110  0.00  0.00    +0.277 C 
ENDBRANCH  24  25
BRANCH  19  27
ATOM     27  O   UNL     1      -2.756  -2.552  -0.111  0.00  0.00    -0.488 OA
BRANCH  27  28
ATOM     28  C   UNL     1      -1.416  -2.058  -0.121  0.00  0.00    +0.229 C 
BRANCH  28  29
ATOM     29  C   UNL     1      -1.433  -0.534   0.013  0.00  0.00    +0.044 C 
BRANCH  29  31
ATOM     30  C   UNL     1      -0.019   1.526   0.010  0.00  0.00    +0.007 C 
ATOM     31  C   UNL     1       0.002  -0.004   0.002  0.00  0.00    -0.014 C 
ATOM     32  C   UNL     1       0.742  -0.511   1.242  0.00  0.00    +0.007 C 
ENDBRANCH  29  31
ENDBRANCH  28  29
ENDBRANCH  27  28
ENDBRANCH  19  27
ENDBRANCH   1  21
TORSDOF 6
