REMARK  Name = ZINC07213088
REMARK  6 active torsions:
REMARK  status: ('A' for Active; 'I' for Inactive)
REMARK    1  A    between atoms: C_1  and  C_2
REMARK    2  A    between atoms: C_5  and  N_8
REMARK    3  A    between atoms: C_12  and  S_13
REMARK    4  A    between atoms: S_13  and  C_14
REMARK    5  A    between atoms: C_14  and  C_15
REMARK    6  A    between atoms: C_21  and  C_24
REMARK                            x       y       z     vdW  Elec       q    Type
REMARK                         _______ _______ _______ _____ _____    ______ ____
ROOT
ATOM      1  N   UNL     1       2.474  -1.244  -8.088  0.00  0.00    -0.259 N 
ATOM      2  C   UNL     1       1.909  -1.231  -9.334  0.00  0.00    +0.225 A 
ATOM      3  N   UNL     1       0.607  -1.251  -9.189  0.00  0.00    -0.112 NA
ATOM      4  N   UNL     1       0.324  -1.283  -7.817  0.00  0.00    -0.120 NA
ATOM      5  C   UNL     1       1.462  -1.281  -7.167  0.00  0.00    +0.198 A 
ATOM      6  N   UNL     1       2.596  -1.198 -10.541  0.00  0.00    -0.299 N 
ATOM      7  C   UNL     1       3.429  -2.415 -10.714  0.00  0.00    +0.108 C 
ATOM      8  C   UNL     1       3.672  -2.465 -12.243  0.00  0.00    +0.020 C 
ATOM      9  C   UNL     1       2.323  -1.982 -12.823  0.00  0.00    +0.020 C 
ATOM     10  C   UNL     1       1.657  -1.187 -11.684  0.00  0.00    +0.108 C 
ENDROOT
BRANCH   1  15
ATOM     11  C   UNL     1       8.033  -1.167  -6.940  0.00  0.00    +0.044 C 
ATOM     12  C   UNL     1       6.557  -1.187  -7.245  0.00  0.00    -0.050 A 
ATOM     13  C   UNL     1       5.798  -2.294  -6.910  0.00  0.00    +0.005 A 
ATOM     14  C   UNL     1       4.446  -2.316  -7.188  0.00  0.00    +0.026 A 
ATOM     15  C   UNL     1       3.848  -1.224  -7.804  0.00  0.00    +0.052 A 
ATOM     16  C   UNL     1       4.612  -0.117  -8.143  0.00  0.00    +0.026 A 
ATOM     17  C   UNL     1       5.964  -0.099  -7.858  0.00  0.00    +0.005 A 
ENDBRANCH   1  15
BRANCH   5  18
ATOM     18  S   UNL     1       1.654  -1.312  -5.416  0.00  0.00    -0.079 S 
BRANCH  18  19
ATOM     19  C   UNL     1      -0.047  -1.347  -4.788  0.00  0.00    +0.134 C 
BRANCH  19  20
ATOM     20  C   UNL     1      -0.026  -1.377  -3.281  0.00  0.00    +0.070 A 
ATOM     21  C   UNL     1       0.011  -2.489  -2.515  0.00  0.00    +0.116 A 
ATOM     22  N   UNL     1       0.018  -2.080  -1.209  0.00  0.00    -0.306 N 
ATOM     23  C   UNL     1       0.038  -2.763  -0.028  0.00  0.00    +0.093 A 
ATOM     24  C   UNL     1       0.041  -2.102   1.149  0.00  0.00    +0.018 A 
ATOM     25  C   UNL     1       0.023  -0.697   1.172  0.00  0.00    +0.008 A 
ATOM     26  C   UNL     1       0.002  -0.004   0.002  0.00  0.00    -0.008 A 
ATOM     27  C   UNL     1      -0.006  -0.709  -1.218  0.00  0.00    +0.141 A 
ATOM     28  N   UNL     1      -0.029  -0.308  -2.481  0.00  0.00    -0.232 NA
ATOM     29  C   UNL     1      -0.018   1.503   0.010  0.00  0.00    +0.047 C 
ENDBRANCH  19  20
ENDBRANCH  18  19
ENDBRANCH   5  18
TORSDOF 4
