REMARK  Name = ZINC03070012
REMARK  8 active torsions:
REMARK  status: ('A' for Active; 'I' for Inactive)
REMARK    1  A    between atoms: C_1  and  N_2
REMARK    2  A    between atoms: N_2  and  C_3
REMARK    3  A    between atoms: N_2  and  C_4
REMARK    4  A    between atoms: C_7  and  C_10
REMARK    5  A    between atoms: C_11  and  C_12
REMARK    6  A    between atoms: C_14  and  O_30
REMARK    7  A    between atoms: C_15  and  C_19
REMARK    8  A    between atoms: C_22  and  C_25
REMARK                            x       y       z     vdW  Elec       q    Type
REMARK                         _______ _______ _______ _____ _____    ______ ____
ROOT
ATOM      1  C   UNL     1       2.304   3.122   8.229  0.00  0.00    +0.133 C 
ATOM      2  N   UNL     1       1.692   3.586   9.305  0.00  0.00    -0.145 N 
ATOM      3  C   UNL     1       2.306   3.807  10.472  0.00  0.00    +0.243 C 
ATOM      4  C   UNL     1       1.329   4.293  11.351  0.00  0.00    +0.150 C 
ATOM      5  C   UNL     1       0.148   4.304  10.562  0.00  0.00    +0.372 C 
ATOM      6  O   UNL     1      -0.966   4.652  10.912  0.00  0.00    -0.242 OA
ATOM      7  O   UNL     1       0.514   3.852   9.347  0.00  0.00    -0.327 OA
ENDROOT
BRANCH   4   8
ATOM      8  C   UNL     1       1.489   4.695  12.765  0.00  0.00    +0.101 A 
ATOM      9  C   UNL     1       1.235   6.016  13.144  0.00  0.00    +0.068 A 
ATOM     10  C   UNL     1       1.384   6.373  14.472  0.00  0.00    +0.036 A 
ATOM     11  C   UNL     1       1.792   5.404  15.378  0.00  0.00    +0.074 A 
ATOM     12  C   UNL     1       2.031   4.117  14.935  0.00  0.00    +0.124 A 
ATOM     13  N   UNL     1       1.877   3.799  13.665  0.00  0.00    -0.253 NA
ATOM     14 CL   UNL     1       0.734   7.189  11.966  0.00  0.00    -0.081 Cl
BRANCH  11  15
ATOM     15  C   UNL     1       1.972   5.751  16.834  0.00  0.00    +0.419 C 
ATOM     16  F   UNL     1       2.384   4.614  17.537  0.00  0.00    -0.166 F 
ATOM     17  F   UNL     1       2.941   6.753  16.957  0.00  0.00    -0.166 F 
ATOM     18  F   UNL     1       0.759   6.210  17.357  0.00  0.00    -0.166 F 
ENDBRANCH  11  15
ENDBRANCH   4   8
BRANCH   1  20
ATOM     19  C   UNL     1       2.210   2.436   5.940  0.00  0.00    +0.009 C 
ATOM     20  C   UNL     1       1.580   2.913   7.047  0.00  0.00    +0.022 C 
BRANCH  19  24
ATOM     21  C   UNL     1       0.027   1.808   2.373  0.00  0.00    +0.029 A 
ATOM     22  C   UNL     1      -0.619   2.302   3.504  0.00  0.00    +0.023 A 
ATOM     23  C   UNL     1       0.080   2.501   4.660  0.00  0.00    +0.010 A 
ATOM     24  C   UNL     1       1.453   2.218   4.704  0.00  0.00    -0.025 A 
ATOM     25  C   UNL     1       2.100   1.726   3.561  0.00  0.00    +0.010 A 
ATOM     26  C   UNL     1       1.391   1.525   2.411  0.00  0.00    +0.023 A 
BRANCH  21  28
ATOM     27  C   UNL     1      -0.012   1.089   0.007  0.00  0.00    +0.129 C 
ATOM     28  N   UNL     1      -0.690   1.602   1.200  0.00  0.00    -0.336 N 
ATOM     29  C   UNL     1      -2.124   1.899   1.157  0.00  0.00    +0.129 C 
ENDBRANCH  21  28
ENDBRANCH  19  24
ENDBRANCH   1  20
BRANCH   3  30
ATOM     30  O   UNL     1       3.615   3.605  10.749  0.00  0.00    -0.491 OA
ATOM     31  H   UNL     1       4.127   3.264  10.003  0.00  0.00    +0.294 HD
ENDBRANCH   3  30
TORSDOF 6
