REMARK  Name = ZINC57954994
REMARK  8 active torsions:
REMARK  status: ('A' for Active; 'I' for Inactive)
REMARK    1  A    between atoms: C_1  and  C_2
REMARK    2  A    between atoms: C_10  and  C_33
REMARK    3  A    between atoms: C_11  and  C_12
REMARK    4  A    between atoms: C_12  and  O_14
REMARK    5  A    between atoms: O_14  and  C_15
REMARK    6  A    between atoms: C_15  and  C_16
REMARK    7  A    between atoms: N_18  and  N_19
REMARK    8  A    between atoms: C_20  and  C_22
REMARK                            x       y       z     vdW  Elec       q    Type
REMARK                         _______ _______ _______ _____ _____    ______ ____
ROOT
ATOM      1  C   UNL     1       2.515   1.282   4.820  0.00  0.00    +0.267 C 
ATOM      2  O   UNL     1       3.476   0.943   4.161  0.00  0.00    -0.271 OA
ATOM      3  N   UNL     1       2.694   1.919   5.993  0.00  0.00    -0.231 N 
ATOM      4  H   UNL     1       1.926   2.190   6.520  0.00  0.00    +0.173 HD
ENDROOT
BRANCH   3   5
ATOM      5  N   UNL     1       3.990   2.192   6.452  0.00  0.00    -0.231 N 
ATOM      6  C   UNL     1       4.169   2.829   7.626  0.00  0.00    +0.273 C 
ATOM      7  O   UNL     1       3.209   3.168   8.285  0.00  0.00    -0.270 OA
ATOM      8  H   UNL     1       4.758   1.921   5.925  0.00  0.00    +0.173 HD
BRANCH   6   9
ATOM      9  C   UNL     1       5.562   3.122   8.119  0.00  0.00    +0.297 C 
ATOM     10  C   UNL     1       6.247   4.120   7.176  0.00  0.00    +0.283 C 
ATOM     11  O   UNL     1       7.560   4.387   7.680  0.00  0.00    -0.484 OA
ATOM     12  C   UNL     1       7.662   4.643   9.013  0.00  0.00    +0.162 A 
ATOM     13  C   UNL     1       8.807   5.254   9.502  0.00  0.00    +0.049 A 
ATOM     14  C   UNL     1       8.928   5.518  10.854  0.00  0.00    +0.004 A 
ATOM     15  C   UNL     1       7.907   5.174  11.721  0.00  0.00    +0.004 A 
ATOM     16  C   UNL     1       6.763   4.567  11.239  0.00  0.00    +0.049 A 
ATOM     17  C   UNL     1       6.636   4.300   9.884  0.00  0.00    +0.163 A 
ATOM     18  O   UNL     1       5.499   3.708   9.424  0.00  0.00    -0.472 OA
ENDBRANCH   6   9
ENDBRANCH   3   5
BRANCH   1  19
ATOM     19  C   UNL     1       1.122   0.989   4.326  0.00  0.00    +0.329 C 
BRANCH  19  20
ATOM     20  O   UNL     1       1.194   0.311   3.070  0.00  0.00    -0.452 OA
BRANCH  20  21
ATOM     21  C   UNL     1       0.026  -0.025   2.489  0.00  0.00    +0.342 C 
ATOM     22  O   UNL     1      -1.025   0.249   3.033  0.00  0.00    -0.245 OA
BRANCH  21  33
ATOM     23  C   UNL     1      -0.018   1.503   0.010  0.00  0.00    +0.045 C 
ATOM     24  C   UNL     1       0.002  -0.004   0.002  0.00  0.00    -0.026 A 
ATOM     25  C   UNL     1       0.006  -0.722  -1.206  0.00  0.00    +0.004 A 
ATOM     26  C   UNL     1      -0.008  -0.060  -2.446  0.00  0.00    +0.010 A 
ATOM     27  C   UNL     1      -0.003  -0.787  -3.597  0.00  0.00    +0.001 A 
ATOM     28  C   UNL     1       0.015  -2.180  -3.561  0.00  0.00    +0.002 A 
ATOM     29  C   UNL     1       0.029  -2.853  -2.378  0.00  0.00    +0.028 A 
ATOM     30  C   UNL     1       0.026  -2.139  -1.168  0.00  0.00    +0.072 A 
ATOM     31  N   UNL     1       0.040  -2.780   0.007  0.00  0.00    -0.251 NA
ATOM     32  C   UNL     1       0.036  -2.133   1.144  0.00  0.00    +0.053 A 
ATOM     33  C   UNL     1       0.023  -0.727   1.190  0.00  0.00    +0.083 A 
ATOM     34  C   UNL     1       0.053  -2.911   2.434  0.00  0.00    +0.066 C 
ENDBRANCH  21  33
ENDBRANCH  20  21
ENDBRANCH  19  20
ENDBRANCH   1  19
TORSDOF 6
