REMARK  Name = ZINC09153433
REMARK  11 active torsions:
REMARK  status: ('A' for Active; 'I' for Inactive)
REMARK    1  A    between atoms: C_1  and  C_2
REMARK    2  A    between atoms: C_2  and  C_3
REMARK    3  A    between atoms: C_3  and  N_4
REMARK    4  A    between atoms: N_15  and  C_18
REMARK    5  A    between atoms: C_18  and  C_19
REMARK    6  A    between atoms: N_21  and  C_22
REMARK    7  A    between atoms: C_22  and  C_23
REMARK    8  A    between atoms: C_23  and  C_24
REMARK    9  A    between atoms: C_24  and  N_25
REMARK   10  A    between atoms: C_26  and  C_34
REMARK   11  A    between atoms: C_31  and  C_33
REMARK                            x       y       z     vdW  Elec       q    Type
REMARK                         _______ _______ _______ _____ _____    ______ ____
ROOT
ATOM      1  N   UNL     1       0.328  -2.720   1.106  0.00  0.00    -0.336 N 
ATOM      2  C   UNL     1       0.552  -3.592   0.061  0.00  0.00    +0.050 A 
ATOM      3  C   UNL     1       0.752  -3.397  -1.303  0.00  0.00    +0.026 A 
ATOM      4  C   UNL     1       0.957  -4.480  -2.129  0.00  0.00    +0.002 A 
ATOM      5  C   UNL     1       0.966  -5.769  -1.614  0.00  0.00    +0.001 A 
ATOM      6  C   UNL     1       0.772  -5.983  -0.279  0.00  0.00    +0.010 A 
ATOM      7  C   UNL     1       0.564  -4.900   0.576  0.00  0.00    +0.009 A 
ATOM      8  C   UNL     1       0.329  -4.778   2.021  0.00  0.00    +0.033 A 
ATOM      9  C   UNL     1       0.198  -3.416   2.288  0.00  0.00    +0.118 A 
ATOM     10  C   UNL     1      -0.031  -3.008   3.624  0.00  0.00    +0.292 A 
ATOM     11  O   UNL     1      -0.155  -1.824   3.894  0.00  0.00    -0.264 OA
ATOM     12  N   UNL     1      -0.112  -3.940   4.594  0.00  0.00    -0.219 N 
ATOM     13  N   UNL     1       0.027  -5.299   4.298  0.00  0.00    -0.175 NA
ATOM     14  C   UNL     1       0.230  -5.709   3.077  0.00  0.00    +0.143 A 
ENDROOT
BRANCH   1  15
ATOM     15  C   UNL     1       0.246  -1.263   0.978  0.00  0.00    +0.122 C 
BRANCH  15  17
ATOM     16  C   UNL     1       1.554   0.865   1.014  0.00  0.00    +0.005 C 
ATOM     17  C   UNL     1       1.640  -0.657   1.148  0.00  0.00    +0.018 C 
ENDBRANCH  15  17
ENDBRANCH   1  15
BRANCH  12  18
ATOM     18  C   UNL     1      -0.349  -3.524   5.979  0.00  0.00    +0.243 C 
BRANCH  18  19
ATOM     19  C   UNL     1      -1.832  -3.478   6.243  0.00  0.00    +0.235 C 
ATOM     20  O   UNL     1      -2.614  -3.765   5.361  0.00  0.00    -0.274 OA
ATOM     21  N   UNL     1      -2.289  -3.118   7.458  0.00  0.00    -0.314 N 
ATOM     22  H   UNL     1      -1.664  -2.888   8.163  0.00  0.00    +0.149 HD
BRANCH  21  23
ATOM     23  C   UNL     1      -3.731  -3.074   7.715  0.00  0.00    +0.102 C 
BRANCH  23  24
ATOM     24  C   UNL     1      -3.978  -2.638   9.161  0.00  0.00    +0.000 C 
BRANCH  24  25
ATOM     25  C   UNL     1      -5.484  -2.592   9.429  0.00  0.00    -0.077 C 
BRANCH  25  26
ATOM     26  N   UNL     1      -5.720  -2.304  10.850  0.00  0.00    +0.383 N 
ATOM     27  C   UNL     1      -7.160  -2.368  11.128  0.00  0.00    -0.071 C 
ATOM     28  C   UNL     1      -7.404  -2.149  12.623  0.00  0.00    -0.016 C 
ATOM     29  C   UNL     1      -6.865  -0.773  13.027  0.00  0.00    -0.003 C 
ATOM     30  C   UNL     1      -5.380  -0.692  12.664  0.00  0.00    -0.016 C 
ATOM     31  C   UNL     1      -5.210  -0.965  11.168  0.00  0.00    -0.071 C 
ATOM     32  C   UNL     1      -5.990   0.080  10.367  0.00  0.00    -0.013 C 
ATOM     33  C   UNL     1      -7.697  -3.741  10.721  0.00  0.00    -0.013 C 
ATOM     34  H   UNL     1      -5.239  -2.988  11.415  0.00  0.00    -0.081 HD
ENDBRANCH  25  26
ENDBRANCH  24  25
ENDBRANCH  23  24
ENDBRANCH  21  23
ENDBRANCH  18  19
ENDBRANCH  12  18
TORSDOF 8
