REMARK  Name = ZINC33014698
REMARK  7 active torsions:
REMARK  status: ('A' for Active; 'I' for Inactive)
REMARK    1  A    between atoms: C_1  and  C_2
REMARK    2  A    between atoms: C_2  and  C_3
REMARK    3  A    between atoms: C_2  and  C_4
REMARK    4  A    between atoms: C_2  and  N_5
REMARK    5  A    between atoms: N_5  and  N_6
REMARK    6  A    between atoms: N_6  and  C_7
REMARK    7  A    between atoms: N_17  and  C_20
REMARK                            x       y       z     vdW  Elec       q    Type
REMARK                         _______ _______ _______ _____ _____    ______ ____
ROOT
ATOM      1  C   UNL     1       4.908  -0.015  -0.044  0.00  0.00    +0.098 C 
ATOM      2  C   UNL     1       3.660  -0.555   0.175  0.00  0.00    +0.060 C 
ATOM      3  C   UNL     1       2.463   0.307   0.265  0.00  0.00    +0.000 A 
ATOM      4  C   UNL     1       2.545   1.688   0.133  0.00  0.00    +0.009 A 
ATOM      5  C   UNL     1       1.398   2.450   0.224  0.00  0.00    +0.001 A 
ATOM      6  C   UNL     1       0.168   1.849   0.447  0.00  0.00    +0.001 A 
ATOM      7  C   UNL     1       0.067   0.481   0.580  0.00  0.00    +0.014 A 
ATOM      8  C   UNL     1       1.214  -0.308   0.491  0.00  0.00    +0.046 A 
ATOM      9  C   UNL     1       1.151  -1.769   0.627  0.00  0.00    +0.258 C 
ATOM     10  O   UNL     1       0.077  -2.305   0.823  0.00  0.00    -0.269 OA
ATOM     11  N   UNL     1       2.260  -2.522   0.541  0.00  0.00    -0.201 N 
ATOM     12  C   UNL     1       3.479  -2.003   0.327  0.00  0.00    +0.259 C 
ATOM     13  O   UNL     1       4.445  -2.741   0.259  0.00  0.00    -0.269 OA
ENDROOT
BRANCH  11  14
ATOM     14  C   UNL     1       2.138  -3.912   0.680  0.00  0.00    +0.063 A 
ATOM     15  C   UNL     1       2.240  -4.497   1.935  0.00  0.00    +0.025 A 
ATOM     16  C   UNL     1       2.120  -5.866   2.069  0.00  0.00    +0.002 A 
ATOM     17  C   UNL     1       1.896  -6.655   0.955  0.00  0.00    +0.002 A 
ATOM     18  C   UNL     1       1.793  -6.076  -0.296  0.00  0.00    +0.022 A 
ATOM     19  C   UNL     1       1.908  -4.706  -0.437  0.00  0.00    +0.063 A 
ATOM     20 CL   UNL     1       1.772  -3.978  -2.007  0.00  0.00    -0.082 Cl
ENDBRANCH  11  14
BRANCH   1  21
ATOM     21  N   UNL     1       5.032   1.160  -0.714  0.00  0.00    -0.286 N 
ATOM     22  H   UNL     1       4.150   1.623  -1.180  0.00  0.00    +0.166 HD
BRANCH  21  23
ATOM     23  N   UNL     1       6.252   1.768  -0.807  0.00  0.00    -0.238 NA
ATOM     24  H   UNL     1       6.935   1.147  -1.214  0.00  0.00    +0.145 HD
BRANCH  23  26
ATOM     25  C   UNL     1       5.189   3.973  -0.869  0.00  0.00    +0.029 C 
ATOM     26  C   UNL     1       6.159   3.020  -1.570  0.00  0.00    +0.028 C 
ATOM     27  C   UNL     1       7.542   3.670  -1.653  0.00  0.00    +0.029 C 
ATOM     28  C   UNL     1       5.650   2.721  -2.981  0.00  0.00    +0.029 C 
ENDBRANCH  23  26
ENDBRANCH  21  23
ENDBRANCH   1  21
TORSDOF 4
