REMARK  Name = ZINC65549342
REMARK  11 active torsions:
REMARK  status: ('A' for Active; 'I' for Inactive)
REMARK    1  A    between atoms: C_1  and  C_2
REMARK    2  A    between atoms: N_6  and  C_8
REMARK    3  A    between atoms: C_8  and  C_9
REMARK    4  A    between atoms: C_8  and  C_10
REMARK    5  A    between atoms: C_8  and  C_11
REMARK    6  A    between atoms: C_11  and  N_12
REMARK    7  A    between atoms: N_15  and  C_16
REMARK    8  A    between atoms: C_16  and  C_17
REMARK    9  A    between atoms: C_16  and  C_18
REMARK   10  A    between atoms: C_22  and  S_24
REMARK   11  A    between atoms: S_24  and  N_27
REMARK                            x       y       z     vdW  Elec       q    Type
REMARK                         _______ _______ _______ _____ _____    ______ ____
ROOT
ATOM      1  N   UNL     1       2.189  -4.461   1.137  0.00  0.00    -0.301 N 
ATOM      2  C   UNL     1       2.323  -5.782   0.909  0.00  0.00    +0.300 C 
ATOM      3  O   UNL     1       1.928  -6.584   1.734  0.00  0.00    -0.253 OA
ATOM      4  N   UNL     1       2.894  -6.215  -0.232  0.00  0.00    -0.293 N 
ATOM      5  H   UNL     1       2.503  -3.821   0.480  0.00  0.00    +0.150 HD
ATOM      6  H   UNL     1       3.208  -5.574  -0.890  0.00  0.00    +0.151 HD
ENDROOT
BRANCH   4   7
ATOM      7  C   UNL     1       3.039  -7.651  -0.480  0.00  0.00    +0.102 C 
ATOM      8  C   UNL     1       4.324  -8.155   0.181  0.00  0.00    +0.033 C 
BRANCH   7   9
ATOM      9  C   UNL     1       3.107  -7.900  -1.965  0.00  0.00    -0.026 A 
ATOM     10  C   UNL     1       3.827  -7.044  -2.777  0.00  0.00    +0.005 A 
ATOM     11  C   UNL     1       3.889  -7.272  -4.139  0.00  0.00    +0.002 A 
ATOM     12  C   UNL     1       3.232  -8.358  -4.689  0.00  0.00    +0.028 A 
ATOM     13  C   UNL     1       2.514  -9.214  -3.876  0.00  0.00    +0.105 A 
ATOM     14  C   UNL     1       2.455  -8.988  -2.514  0.00  0.00    +0.034 A 
BRANCH  13  15
ATOM     15  S   UNL     1       1.676 -10.598  -4.577  0.00  0.00    +0.056 S 
ATOM     16  O   UNL     1       0.627 -10.934  -3.679  0.00  0.00    -0.153 OA
ATOM     17  O   UNL     1       1.439 -10.280  -5.941  0.00  0.00    -0.153 OA
BRANCH  15  18
ATOM     18  N   UNL     1       2.736 -11.870  -4.564  0.00  0.00    -0.204 NA
ATOM     19  H   UNL     1       2.404 -12.777  -4.483  0.00  0.00    +0.144 HD
ATOM     20  H   UNL     1       3.690 -11.707  -4.638  0.00  0.00    +0.144 HD
ENDBRANCH  15  18
ENDBRANCH  13  15
ENDBRANCH   7   9
ENDBRANCH   4   7
BRANCH   1  21
ATOM     21  C   UNL     1       1.568  -3.991   2.378  0.00  0.00    +0.093 C 
BRANCH  21  22
ATOM     22  C   UNL     1       1.539  -2.461   2.387  0.00  0.00    -0.055 C 
ATOM     23  C   UNL     1       2.969  -1.923   2.296  0.00  0.00    -0.008 C 
ATOM     24  C   UNL     1       0.891  -1.970   3.683  0.00  0.00    -0.008 C 
BRANCH  22  30
ATOM     25  C   UNL     1      -0.019   1.526   0.010  0.00  0.00    +0.005 C 
ATOM     26  C   UNL     1       0.002  -0.004   0.002  0.00  0.00    -0.031 C 
ATOM     27  C   UNL     1      -1.434  -0.535   0.018  0.00  0.00    -0.001 C 
ATOM     28  C   UNL     1      -1.402  -2.064   0.089  0.00  0.00    -0.018 C 
ATOM     29  C   UNL     1      -0.610  -2.496   1.325  0.00  0.00    -0.078 C 
ATOM     30  N   UNL     1       0.761  -1.980   1.237  0.00  0.00    +0.384 N 
ATOM     31  C   UNL     1       0.742  -0.512   1.241  0.00  0.00    -0.075 C 
ATOM     32  H   UNL     1       1.189  -2.307   0.384  0.00  0.00    -0.081 HD
ENDBRANCH  22  30
ENDBRANCH  21  22
ENDBRANCH   1  21
TORSDOF 7
