REMARK  Name = ZINC32635393
REMARK  10 active torsions:
REMARK  status: ('A' for Active; 'I' for Inactive)
REMARK    1  A    between atoms: C_1  and  C_2
REMARK    2  A    between atoms: C_2  and  C_3
REMARK    3  A    between atoms: C_2  and  C_4
REMARK    4  A    between atoms: C_2  and  O_5
REMARK    5  A    between atoms: O_5  and  C_6
REMARK    6  A    between atoms: N_8  and  C_9
REMARK    7  A    between atoms: C_9  and  C_10
REMARK    8  A    between atoms: C_10  and  C_11
REMARK    9  A    between atoms: C_11  and  N_13
REMARK   10  A    between atoms: N_15  and  C_26
REMARK                            x       y       z     vdW  Elec       q    Type
REMARK                         _______ _______ _______ _____ _____    ______ ____
ROOT
ATOM      1  N   UNL     1       6.359  -0.262  -5.394  0.00  0.00    -0.159 NA
ATOM      2  C   UNL     1       7.669  -0.150  -5.586  0.00  0.00    +0.154 C 
ATOM      3  N   UNL     1       8.588   0.463  -4.777  0.00  0.00    -0.276 N 
ATOM      4  C   UNL     1       9.876   0.809  -5.324  0.00  0.00    +0.116 C 
ATOM      5  C   UNL     1      10.291   2.256  -5.060  0.00  0.00    +0.190 C 
ATOM      6  S   UNL     1      10.315   3.009  -6.735  0.00  0.00    -0.028 S 
ATOM      7  O   UNL     1      11.650   3.374  -7.056  0.00  0.00    -0.174 OA
ATOM      8  O   UNL     1       9.285   3.985  -6.815  0.00  0.00    -0.174 OA
ATOM      9  C   UNL     1       9.837   1.554  -7.747  0.00  0.00    +0.182 C 
ATOM     10  C   UNL     1      10.075   0.382  -6.787  0.00  0.00    +0.097 C 
ATOM     11  S   UNL     1       8.636  -0.774  -6.954  0.00  0.00    -0.086 S 
ENDROOT
BRANCH   3  12
ATOM     12  C   UNL     1       8.282   0.750  -3.442  0.00  0.00    +0.037 A 
ATOM     13  C   UNL     1       8.254  -0.271  -2.500  0.00  0.00    +0.025 A 
ATOM     14  C   UNL     1       7.952   0.015  -1.183  0.00  0.00    +0.023 A 
ATOM     15  C   UNL     1       7.677   1.316  -0.801  0.00  0.00    +0.059 A 
ATOM     16  C   UNL     1       7.704   2.335  -1.738  0.00  0.00    +0.061 A 
ATOM     17  C   UNL     1       8.012   2.056  -3.056  0.00  0.00    +0.045 A 
ATOM     18 CL   UNL     1       7.357   3.966  -1.255  0.00  0.00    -0.082 Cl
ATOM     19 CL   UNL     1       7.297   1.670   0.855  0.00  0.00    -0.082 Cl
ENDBRANCH   3  12
BRANCH   1  20
ATOM     20  C   UNL     1       5.775   0.394  -4.395  0.00  0.00    +0.240 C 
ATOM     21  O   UNL     1       5.841   1.607  -4.343  0.00  0.00    -0.274 OA
BRANCH  20  22
ATOM     22  C   UNL     1       5.031  -0.366  -3.328  0.00  0.00    +0.117 C 
BRANCH  22  23
ATOM     23  C   UNL     1       4.339   0.621  -2.386  0.00  0.00    +0.117 C 
BRANCH  23  26
ATOM     24  C   UNL     1       2.817   0.551  -0.484  0.00  0.00    +0.401 C 
ATOM     25  O   UNL     1       2.858   1.765  -0.444  0.00  0.00    -0.226 OA
ATOM     26  N   UNL     1       3.522  -0.116  -1.419  0.00  0.00    -0.281 N 
ATOM     27  H   UNL     1       3.490  -1.085  -1.451  0.00  0.00    +0.152 HD
BRANCH  24  28
ATOM     28  O   UNL     1       2.067  -0.127   0.405  0.00  0.00    -0.445 OA
BRANCH  28  30
ATOM     29  C   UNL     1       0.378   1.585   0.645  0.00  0.00    +0.055 C 
ATOM     30  C   UNL     1       1.345   0.645   1.367  0.00  0.00    +0.107 C 
ATOM     31  C   UNL     1       2.328   1.468   2.201  0.00  0.00    +0.055 C 
ATOM     32  C   UNL     1       0.557  -0.292   2.284  0.00  0.00    +0.055 C 
ENDBRANCH  28  30
ENDBRANCH  24  28
ENDBRANCH  23  26
ENDBRANCH  22  23
ENDBRANCH  20  22
ENDBRANCH   1  20
TORSDOF 7
