REMARK  Name = ZINC53106308
REMARK  5 active torsions:
REMARK  status: ('A' for Active; 'I' for Inactive)
REMARK    1  A    between atoms: C_1  and  C_2
REMARK    2  A    between atoms: C_7  and  C_9
REMARK    3  A    between atoms: C_7  and  N_11
REMARK    4  A    between atoms: C_9  and  O_10
REMARK    5  A    between atoms: C_12  and  C_14
REMARK                            x       y       z     vdW  Elec       q    Type
REMARK                         _______ _______ _______ _____ _____    ______ ____
ROOT
ATOM      1  N   UNL     1      -0.587  -2.501   1.274  0.00  0.00    -0.307 N 
ATOM      2  C   UNL     1      -0.829  -3.824   1.363  0.00  0.00    +0.218 C 
ATOM      3  O   UNL     1       0.093  -4.601   1.497  0.00  0.00    -0.275 OA
ATOM      4  H   UNL     1      -1.326  -1.874   1.242  0.00  0.00    +0.149 HD
ENDROOT
BRANCH   2   5
ATOM      5  C   UNL     1      -2.244  -4.337   1.295  0.00  0.00    +0.092 C 
ATOM      6  C   UNL     1      -2.240  -5.863   1.417  0.00  0.00    +0.016 C 
ATOM      7  C   UNL     1      -3.679  -6.382   1.382  0.00  0.00    +0.020 C 
ATOM      8  C   UNL     1      -4.321  -6.006   0.043  0.00  0.00    +0.109 C 
ATOM      9  N   UNL     1      -4.199  -4.555  -0.149  0.00  0.00    -0.285 N 
ATOM     10  C   UNL     1      -2.869  -3.937  -0.045  0.00  0.00    +0.122 C 
ATOM     11  C   UNL     1      -5.285  -3.804  -0.416  0.00  0.00    +0.300 C 
ATOM     12  O   UNL     1      -5.187  -2.593  -0.481  0.00  0.00    -0.253 OA
ATOM     13  N   UNL     1      -6.481  -4.394  -0.611  0.00  0.00    -0.313 N 
ATOM     14  H   UNL     1      -6.575  -5.351  -0.489  0.00  0.00    +0.146 HD
ATOM     15  H   UNL     1      -7.248  -3.861  -0.874  0.00  0.00    +0.146 HD
ENDBRANCH   2   5
BRANCH   1  21
ATOM     16  C   UNL     1       1.503  -2.118   5.009  0.00  0.00    +0.007 C 
ATOM     17  C   UNL     1       0.784  -1.745   3.711  0.00  0.00    -0.012 C 
ATOM     18  C   UNL     1       0.779  -0.224   3.549  0.00  0.00    +0.003 C 
ATOM     19  C   UNL     1       0.060   0.148   2.251  0.00  0.00    +0.002 C 
ATOM     20  C   UNL     1       0.787  -0.488   1.065  0.00  0.00    +0.028 C 
ATOM     21  C   UNL     1       0.793  -2.010   1.226  0.00  0.00    +0.058 C 
ATOM     22  C   UNL     1       1.511  -2.382   2.525  0.00  0.00    +0.031 C 
BRANCH  21  23
ATOM     23  C   UNL     1       1.520  -2.647   0.041  0.00  0.00    +0.181 C 
BRANCH  23  24
ATOM     24  O   UNL     1       0.780  -2.405  -1.158  0.00  0.00    -0.393 OA
ATOM     25  H   UNL     1       1.184  -2.781  -1.952  0.00  0.00    +0.209 HD
ENDBRANCH  23  24
ENDBRANCH  21  23
ENDBRANCH   1  21
TORSDOF 4
