REMARK  Name = ZINC39794187
REMARK  4 active torsions:
REMARK  status: ('A' for Active; 'I' for Inactive)
REMARK    1  A    between atoms: C_10  and  C_11
REMARK    2  A    between atoms: N_12  and  N_13
REMARK    3  A    between atoms: C_18  and  C_21
REMARK    4  A    between atoms: C_21  and  C_22
REMARK                            x       y       z     vdW  Elec       q    Type
REMARK                         _______ _______ _______ _____ _____    ______ ____
ROOT
ATOM      1  N   UNL     1       6.097   2.039  -0.145  0.00  0.00    -0.127 NA
ATOM      2  C   UNL     1       6.097   3.353  -0.238  0.00  0.00    +0.183 C 
ATOM      3  N   UNL     1       7.180   4.205  -0.268  0.00  0.00    -0.263 N 
ATOM      4  C   UNL     1       7.050   5.517  -0.364  0.00  0.00    +0.232 C 
ATOM      5  O   UNL     1       8.008   6.259  -0.389  0.00  0.00    -0.274 OA
ATOM      6  C   UNL     1       5.623   6.036  -0.442  0.00  0.00    +0.144 C 
ATOM      7  S   UNL     1       4.692   4.450  -0.364  0.00  0.00    -0.075 S 
ATOM      8  H   UNL     1       8.072   3.827  -0.215  0.00  0.00    +0.157 HD
ENDROOT
BRANCH   1  10
ATOM      9  C   UNL     1       4.981   0.088  -0.045  0.00  0.00    +0.143 C 
ATOM     10  N   UNL     1       4.981   1.392  -0.138  0.00  0.00    -0.155 NA
BRANCH   9  20
ATOM     11  C   UNL     1      -0.016   1.357   0.039  0.00  0.00    +0.001 A 
ATOM     12  C   UNL     1       1.168   2.091   0.032  0.00  0.00    +0.001 A 
ATOM     13  C   UNL     1       2.379   1.465   0.008  0.00  0.00    +0.009 A 
ATOM     14  C   UNL     1       2.435   0.067  -0.011  0.00  0.00    -0.009 A 
ATOM     15  C   UNL     1       1.233  -0.682  -0.003  0.00  0.00    -0.017 A 
ATOM     16  C   UNL     1       0.002  -0.004   0.022  0.00  0.00    +0.008 A 
ATOM     17  C   UNL     1       1.294  -2.086  -0.021  0.00  0.00    +0.008 A 
ATOM     18  C   UNL     1       2.493  -2.730  -0.044  0.00  0.00    +0.001 A 
ATOM     19  C   UNL     1       3.696  -2.039  -0.051  0.00  0.00    +0.010 A 
ATOM     20  C   UNL     1       3.712  -0.647  -0.036  0.00  0.00    +0.002 A 
ENDBRANCH   9  20
ENDBRANCH   1  10
BRANCH   6  21
ATOM     21  C   UNL     1       5.295   6.937   0.750  0.00  0.00    +0.059 C 
BRANCH  21  22
ATOM     22  C   UNL     1       3.920   7.526   0.571  0.00  0.00    -0.044 A 
ATOM     23  C   UNL     1       3.764   8.729  -0.093  0.00  0.00    +0.005 A 
ATOM     24  C   UNL     1       2.503   9.271  -0.257  0.00  0.00    +0.022 A 
ATOM     25  C   UNL     1       1.395   8.609   0.242  0.00  0.00    +0.059 A 
ATOM     26  C   UNL     1       1.551   7.404   0.907  0.00  0.00    +0.060 A 
ATOM     27  C   UNL     1       2.814   6.861   1.066  0.00  0.00    +0.025 A 
ATOM     28 CL   UNL     1       0.163   6.572   1.534  0.00  0.00    -0.082 Cl
ATOM     29 CL   UNL     1      -0.189   9.288   0.037  0.00  0.00    -0.082 Cl
ENDBRANCH  21  22
ENDBRANCH   6  21
TORSDOF 4
