REMARK  Name = ZINC21225591
REMARK  6 active torsions:
REMARK  status: ('A' for Active; 'I' for Inactive)
REMARK    1  A    between atoms: C_1  and  O_2
REMARK    2  A    between atoms: O_2  and  C_3
REMARK    3  A    between atoms: C_7  and  C_9
REMARK    4  A    between atoms: C_14  and  C_24
REMARK    5  A    between atoms: C_27  and  O_33
REMARK    6  A    between atoms: C_28  and  N_30
REMARK                            x       y       z     vdW  Elec       q    Type
REMARK                         _______ _______ _______ _____ _____    ______ ____
ROOT
ATOM      1  C   UNL     1       4.522  -0.353   2.682  0.00  0.00    +0.032 C 
ATOM      2  C   UNL     1       4.353   0.182   1.262  0.00  0.00    +0.059 C 
ATOM      3  C   UNL     1       2.879   0.226   0.893  0.00  0.00    +0.017 C 
ATOM      4  C   UNL     1       2.022  -0.675   1.403  0.00  0.00    +0.036 C 
ATOM      5  C   UNL     1       0.540  -0.746   1.122  0.00  0.00    +0.136 C 
ATOM      6  N   UNL     1       0.098   0.091   0.027  0.00  0.00    -0.331 N 
ATOM      7  C   UNL     1       0.193   1.478   0.104  0.00  0.00    +0.049 A 
ATOM      8  C   UNL     1      -0.940   2.278   0.136  0.00  0.00    +0.025 A 
ATOM      9  C   UNL     1      -0.801   3.648   0.265  0.00  0.00    +0.002 A 
ATOM     10  C   UNL     1       0.454   4.221   0.365  0.00  0.00    +0.002 A 
ATOM     11  C   UNL     1       1.587   3.427   0.314  0.00  0.00    +0.025 A 
ATOM     12  C   UNL     1       1.450   2.059   0.162  0.00  0.00    +0.052 A 
ATOM     13  N   UNL     1       2.545   1.212   0.022  0.00  0.00    -0.316 N 
ATOM     14  C   UNL     1       2.483  -1.674   2.293  0.00  0.00    +0.163 C 
ATOM     15  O   UNL     1       1.690  -2.489   2.722  0.00  0.00    -0.292 OA
ATOM     16  C   UNL     1       3.916  -1.761   2.726  0.00  0.00    +0.088 C 
ATOM     17  H   UNL     1      -0.320  -0.367  -0.881  0.00  0.00    +0.147 HD
ATOM     18  H   UNL     1       3.159   1.387  -0.873  0.00  0.00    +0.152 HD
ENDROOT
BRANCH   1  23
ATOM     19  C   UNL     1       7.810   0.223   4.453  0.00  0.00    +0.120 A 
ATOM     20  C   UNL     1       8.676  -0.535   3.678  0.00  0.00    +0.045 A 
ATOM     21  C   UNL     1       8.194  -1.230   2.586  0.00  0.00    +0.004 A 
ATOM     22  C   UNL     1       6.849  -1.174   2.267  0.00  0.00    +0.004 A 
ATOM     23  C   UNL     1       5.986  -0.415   3.035  0.00  0.00    -0.040 A 
ATOM     24  C   UNL     1       6.463   0.281   4.129  0.00  0.00    +0.049 A 
BRANCH  19  26
ATOM     25  C   UNL     1       9.680   0.800   5.803  0.00  0.00    +0.277 C 
ATOM     26  O   UNL     1       8.281   0.907   5.529  0.00  0.00    -0.495 OA
ENDBRANCH  19  26
ENDBRANCH   1  23
BRANCH   5  27
ATOM     27  C   UNL     1      -0.200  -0.333   2.368  0.00  0.00    -0.020 A 
ATOM     28  C   UNL     1      -0.088   0.961   2.841  0.00  0.00    +0.009 A 
ATOM     29  C   UNL     1      -0.770   1.344   3.980  0.00  0.00    +0.048 A 
ATOM     30  C   UNL     1      -1.558   0.424   4.656  0.00  0.00    +0.147 A 
ATOM     31  C   UNL     1      -1.665  -0.876   4.183  0.00  0.00    +0.168 A 
ATOM     32  C   UNL     1      -0.985  -1.251   3.041  0.00  0.00    +0.042 A 
BRANCH  31  33
ATOM     33  N   UNL     1      -2.505  -1.859   4.903  0.00  0.00    +0.060 N 
ATOM     34  O   UNL     1      -2.597  -3.000   4.487  0.00  0.00    -0.126 OA
ATOM     35  O   UNL     1      -3.103  -1.527   5.910  0.00  0.00    -0.126 OA
ENDBRANCH  31  33
BRANCH  30  36
ATOM     36  O   UNL     1      -2.226   0.796   5.780  0.00  0.00    -0.504 OA
ATOM     37  H   UNL     1      -2.851   0.067   6.315  0.00  0.00    +0.292 HD
ENDBRANCH  30  36
ENDBRANCH   5  27
TORSDOF 5
