REMARK  Name = ZINC12151009
REMARK  11 active torsions:
REMARK  status: ('A' for Active; 'I' for Inactive)
REMARK    1  A    between atoms: C_1  and  N_2
REMARK    2  A    between atoms: C_10  and  C_11
REMARK    3  A    between atoms: C_11  and  N_12
REMARK    4  A    between atoms: C_13  and  C_15
REMARK    5  A    between atoms: C_18  and  C_30
REMARK    6  A    between atoms: C_19  and  N_20
REMARK    7  A    between atoms: N_20  and  C_21
REMARK    8  A    between atoms: N_20  and  C_22
REMARK    9  A    between atoms: C_22  and  C_23
REMARK   10  A    between atoms: C_33  and  S_36
REMARK   11  A    between atoms: S_36  and  C_37
REMARK                            x       y       z     vdW  Elec       q    Type
REMARK                         _______ _______ _______ _____ _____    ______ ____
ROOT
ATOM      1  C   UNL     1      -3.129   9.405  -3.689  0.00  0.00    +0.075 A 
ATOM      2  C   UNL     1      -2.764   9.226  -5.032  0.00  0.00    +0.018 A 
ATOM      3  C   UNL     1      -3.424   9.961  -5.995  0.00  0.00    +0.027 A 
ATOM      4  C   UNL     1      -4.426  10.853  -5.611  0.00  0.00    +0.048 A 
ATOM      5  C   UNL     1      -4.152  10.317  -3.377  0.00  0.00    +0.111 A 
ATOM      6  N   UNL     1      -4.810  11.056  -4.314  0.00  0.00    -0.342 N 
ATOM      7  H   UNL     1      -5.548  11.724  -4.062  0.00  0.00    +0.167 HD
ENDROOT
BRANCH   4   8
ATOM      8  C   UNL     1      -5.135  11.642  -6.644  0.00  0.00    -0.002 A 
ATOM      9  C   UNL     1      -4.796  11.496  -7.990  0.00  0.00    +0.011 A 
ATOM     10  C   UNL     1      -5.461  12.227  -8.950  0.00  0.00    +0.015 A 
ATOM     11  C   UNL     1      -6.462  13.119  -8.577  0.00  0.00    +0.008 A 
ATOM     12  C   UNL     1      -6.797  13.271  -7.234  0.00  0.00    +0.015 A 
ATOM     13  C   UNL     1      -6.139  12.538  -6.272  0.00  0.00    +0.011 A 
BRANCH  11  14
ATOM     14  S   UNL     1      -7.306  14.058  -9.806  0.00  0.00    -0.129 S 
ATOM     15  C   UNL     1      -6.541  13.530 -11.364  0.00  0.00    +0.090 C 
ENDBRANCH  11  14
ENDBRANCH   4   8
BRANCH   1  17
ATOM     16  N   UNL     1      -1.407   7.851  -2.923  0.00  0.00    -0.304 N 
ATOM     17  C   UNL     1      -2.455   8.644  -2.624  0.00  0.00    +0.248 C 
ATOM     18  O   UNL     1      -2.844   8.731  -1.475  0.00  0.00    -0.270 OA
ATOM     19  H   UNL     1      -1.097   7.781  -3.839  0.00  0.00    +0.149 HD
BRANCH  16  20
ATOM     20  C   UNL     1      -0.736   7.094  -1.863  0.00  0.00    +0.179 C 
BRANCH  20  30
ATOM     21  C   UNL     1      -0.934   4.209  -2.960  0.00  0.00    +0.150 C 
ATOM     22  N   UNL     1       0.283   5.023  -2.933  0.00  0.00    -0.329 N 
ATOM     23  C   UNL     1       1.531   4.644  -3.386  0.00  0.00    +0.069 A 
ATOM     24  C   UNL     1       2.038   3.493  -3.973  0.00  0.00    +0.028 A 
ATOM     25  C   UNL     1       3.372   3.431  -4.316  0.00  0.00    +0.002 A 
ATOM     26  C   UNL     1       4.207   4.516  -4.087  0.00  0.00    +0.002 A 
ATOM     27  C   UNL     1       3.725   5.659  -3.516  0.00  0.00    +0.030 A 
ATOM     28  C   UNL     1       2.377   5.742  -3.156  0.00  0.00    +0.089 A 
ATOM     29  N   UNL     1       1.618   6.713  -2.586  0.00  0.00    -0.231 NA
ATOM     30  C   UNL     1       0.394   6.292  -2.456  0.00  0.00    +0.128 A 
ENDBRANCH  20  30
ENDBRANCH  16  20
ENDBRANCH   1  17
BRANCH   5  31
ATOM     31  N   UNL     1      -4.528  10.501  -2.059  0.00  0.00    -0.317 N 
ATOM     32  C   UNL     1      -5.947  10.173  -1.865  0.00  0.00    +0.130 C 
BRANCH  31  33
ATOM     33  C   UNL     1      -4.240  11.872  -1.616  0.00  0.00    +0.140 C 
BRANCH  33  34
ATOM     34  C   UNL     1      -4.280  11.933  -0.088  0.00  0.00    +0.161 C 
ATOM     35  C   UNL     1      -3.829  13.319   0.381  0.00  0.00    +0.193 C 
ATOM     36  O   UNL     1      -3.975  13.405   1.802  0.00  0.00    -0.375 OA
ATOM     37  C   UNL     1      -5.311  13.167   2.256  0.00  0.00    +0.188 C 
ATOM     38  C   UNL     1      -5.761  11.781   1.787  0.00  0.00    +0.188 C 
ATOM     39  O   UNL     1      -5.616  11.695   0.366  0.00  0.00    -0.370 OA
ENDBRANCH  33  34
ENDBRANCH  31  33
ENDBRANCH   5  31
TORSDOF 8
