REMARK  Name = ZINC10140897
REMARK  10 active torsions:
REMARK  status: ('A' for Active; 'I' for Inactive)
REMARK    1  A    between atoms: C_1  and  C_2
REMARK    2  A    between atoms: C_2  and  C_3
REMARK    3  A    between atoms: C_2  and  N_4
REMARK    4  A    between atoms: N_4  and  S_5
REMARK    5  A    between atoms: S_5  and  C_8
REMARK    6  A    between atoms: C_11  and  N_14
REMARK    7  A    between atoms: C_15  and  C_17
REMARK    8  A    between atoms: C_17  and  C_19
REMARK    9  A    between atoms: C_17  and  N_65
REMARK   10  A    between atoms: C_22  and  C_25
REMARK                            x       y       z     vdW  Elec       q    Type
REMARK                         _______ _______ _______ _____ _____    ______ ____
ROOT
ATOM      1  C   UNL     1       2.425  -4.236  -0.260  0.00  0.00    +0.016 C 
ATOM      2  C   UNL     1       1.719  -4.702   1.015  0.00  0.00    -0.004 C 
ENDROOT
BRANCH   1   8
ATOM      3  C   UNL     1       3.882  -6.142  -0.587  0.00  0.00    -0.077 C 
ATOM      4  C   UNL     1       5.346  -6.569  -0.713  0.00  0.00    -0.011 C 
ATOM      5  C   UNL     1       6.066  -6.302   0.612  0.00  0.00    +0.018 C 
ATOM      6  C   UNL     1       5.939  -4.816   0.962  0.00  0.00    -0.011 C 
ATOM      7  C   UNL     1       4.458  -4.440   1.039  0.00  0.00    -0.077 C 
ATOM      8  N   UNL     1       3.829  -4.698  -0.274  0.00  0.00    +0.387 N 
ATOM      9  H   UNL     1       4.343  -4.181  -0.997  0.00  0.00    -0.081 HD
BRANCH   5  10
ATOM     10  C   UNL     1       7.522  -6.665   0.476  0.00  0.00    -0.019 A 
ATOM     11  C   UNL     1       8.399  -6.136  -0.392  0.00  0.00    +0.087 A 
ATOM     12  N   UNL     1       9.629  -6.712  -0.223  0.00  0.00    -0.360 N 
ATOM     13  H   UNL     1      10.422  -6.493  -0.736  0.00  0.00    +0.165 HD
ATOM     14  C   UNL     1       9.571  -7.650   0.784  0.00  0.00    +0.047 A 
ATOM     15  C   UNL     1       8.251  -7.657   1.270  0.00  0.00    +0.003 A 
ATOM     16  C   UNL     1       7.893  -8.526   2.302  0.00  0.00    +0.010 A 
ATOM     17  C   UNL     1       8.832  -9.357   2.845  0.00  0.00    +0.001 A 
ATOM     18  C   UNL     1      10.137  -9.350   2.373  0.00  0.00    +0.002 A 
ATOM     19  C   UNL     1      10.510  -8.505   1.351  0.00  0.00    +0.026 A 
ENDBRANCH   5  10
ENDBRANCH   1   8
BRANCH   1  21
ATOM     20  N   UNL     1       1.271  -2.078  -0.620  0.00  0.00    -0.287 N 
ATOM     21  C   UNL     1       2.412  -2.730  -0.320  0.00  0.00    +0.203 C 
ATOM     22  O   UNL     1       3.428  -2.106  -0.098  0.00  0.00    -0.277 OA
ATOM     23  H   UNL     1       0.443  -2.571  -0.721  0.00  0.00    +0.155 HD
BRANCH  20  27
ATOM     24  C   UNL     1       1.306   2.059  -1.110  0.00  0.00    +0.105 A 
ATOM     25  C   UNL     1       2.408   1.311  -1.481  0.00  0.00    +0.030 A 
ATOM     26  C   UNL     1       2.400  -0.060  -1.320  0.00  0.00    +0.025 A 
ATOM     27  C   UNL     1       1.283  -0.688  -0.784  0.00  0.00    +0.033 A 
ATOM     28  C   UNL     1       0.177   0.066  -0.413  0.00  0.00    +0.025 A 
ATOM     29  C   UNL     1       0.192   1.437  -0.577  0.00  0.00    +0.030 A 
BRANCH  24  30
ATOM     30  S   UNL     1       1.321   3.809  -1.316  0.00  0.00    +0.059 S 
ATOM     31  O   UNL     1       0.382   4.336  -0.388  0.00  0.00    -0.153 OA
ATOM     32  O   UNL     1       2.686   4.205  -1.327  0.00  0.00    -0.153 OA
BRANCH  30  33
ATOM     33  N   UNL     1       0.723   4.129  -2.827  0.00  0.00    -0.187 NA
ATOM     34  H   UNL     1       1.295   4.531  -3.500  0.00  0.00    +0.148 HD
BRANCH  33  36
ATOM     35  C   UNL     1      -1.542   5.045  -2.938  0.00  0.00    +0.025 C 
ATOM     36  C   UNL     1      -0.670   3.805  -3.147  0.00  0.00    +0.070 C 
ATOM     37  C   UNL     1      -0.766   3.354  -4.606  0.00  0.00    +0.025 C 
ENDBRANCH  33  36
ENDBRANCH  30  33
ENDBRANCH  24  30
ENDBRANCH  20  27
ENDBRANCH   1  21
TORSDOF 7
