REMARK  Name = ZINC36541668
REMARK  13 active torsions:
REMARK  status: ('A' for Active; 'I' for Inactive)
REMARK    1  A    between atoms: C_1  and  C_2
REMARK    2  A    between atoms: C_4  and  C_15
REMARK    3  A    between atoms: C_12  and  C_13
REMARK    4  A    between atoms: C_12  and  C_14
REMARK    5  A    between atoms: N_17  and  C_18
REMARK    6  A    between atoms: N_17  and  C_25
REMARK    7  A    between atoms: C_25  and  C_27
REMARK    8  A    between atoms: C_25  and  C_34
REMARK    9  A    between atoms: C_31  and  O_33
REMARK   10  A    between atoms: N_36  and  C_37
REMARK   11  A    between atoms: C_37  and  C_38
REMARK   12  A    between atoms: C_37  and  C_39
REMARK   13  A    between atoms: C_37  and  C_40
REMARK                            x       y       z     vdW  Elec       q    Type
REMARK                         _______ _______ _______ _____ _____    ______ ____
ROOT
ATOM      1  C   UNL     1      -0.480  -3.213  -1.662  0.00  0.00    +0.224 C 
ATOM      2  O   UNL     1      -1.622  -3.018  -1.302  0.00  0.00    -0.275 OA
ATOM      3  N   UNL     1      -0.176  -3.197  -2.975  0.00  0.00    -0.254 N 
ENDROOT
BRANCH   1   6
ATOM      4  C   UNL     1       1.402  -1.863   1.133  0.00  0.00    +0.008 C 
ATOM      5  C   UNL     1       0.275  -2.783   0.678  0.00  0.00    +0.001 C 
ATOM      6  C   UNL     1       0.599  -3.472  -0.641  0.00  0.00    +0.079 C 
ATOM      7  C   UNL     1       0.850  -4.968  -0.489  0.00  0.00    +0.017 C 
ATOM      8  C   UNL     1       0.151  -5.548   0.742  0.00  0.00    -0.004 C 
ATOM      9  C   UNL     1      -1.138  -4.804   1.127  0.00  0.00    +0.008 C 
ATOM     10  C   UNL     1      -0.173  -3.764   1.756  0.00  0.00    -0.001 C 
ATOM     11  C   UNL     1       0.731  -4.960   2.045  0.00  0.00    -0.029 C 
ATOM     12  C   UNL     1       0.315  -5.757   3.296  0.00  0.00    +0.011 C 
ATOM     13  C   UNL     1       2.238  -4.729   2.024  0.00  0.00    +0.011 C 
ENDBRANCH   1   6
BRANCH   3  14
ATOM     14  C   UNL     1       1.115  -3.537  -3.398  0.00  0.00    +0.056 A 
ATOM     15  C   UNL     1       2.086  -2.553  -3.529  0.00  0.00    +0.025 A 
ATOM     16  C   UNL     1       3.358  -2.891  -3.946  0.00  0.00    +0.002 A 
ATOM     17  C   UNL     1       3.666  -4.208  -4.235  0.00  0.00    +0.002 A 
ATOM     18  C   UNL     1       2.702  -5.191  -4.106  0.00  0.00    +0.022 A 
ATOM     19  C   UNL     1       1.428  -4.860  -3.683  0.00  0.00    +0.062 A 
ATOM     20 CL   UNL     1       0.220  -6.095  -3.515  0.00  0.00    -0.082 Cl
ENDBRANCH   3  14
BRANCH   3  21
ATOM     21  C   UNL     1      -1.195  -2.825  -3.958  0.00  0.00    +0.197 C 
BRANCH  21  22
ATOM     22  C   UNL     1      -1.480  -1.349  -3.852  0.00  0.00    -0.014 A 
ATOM     23  C   UNL     1      -0.436  -0.442  -3.842  0.00  0.00    +0.006 A 
ATOM     24  C   UNL     1      -0.694   0.912  -3.744  0.00  0.00    +0.004 A 
ATOM     25  C   UNL     1      -1.997   1.364  -3.656  0.00  0.00    +0.045 A 
ATOM     26  C   UNL     1      -3.047   0.457  -3.667  0.00  0.00    +0.117 A 
ATOM     27  C   UNL     1      -2.785  -0.902  -3.771  0.00  0.00    +0.051 A 
BRANCH  26  28
ATOM     28  O   UNL     1      -4.329   0.898  -3.580  0.00  0.00    -0.507 OA
ATOM     29  H   UNL     1      -4.740   1.082  -4.436  0.00  0.00    +0.292 HD
ENDBRANCH  26  28
ENDBRANCH  21  22
BRANCH  21  30
ATOM     30  C   UNL     1      -0.695  -3.141  -5.344  0.00  0.00    +0.239 C 
ATOM     31  O   UNL     1       0.460  -2.915  -5.639  0.00  0.00    -0.273 OA
ATOM     32  N   UNL     1      -1.531  -3.675  -6.257  0.00  0.00    -0.309 N 
ATOM     33  H   UNL     1      -2.455  -3.855  -6.021  0.00  0.00    +0.149 HD
BRANCH  32  34
ATOM     34  C   UNL     1      -1.045  -3.982  -7.604  0.00  0.00    +0.026 C 
ATOM     35  C   UNL     1       0.099  -4.994  -7.515  0.00  0.00    +0.031 C 
ATOM     36  C   UNL     1      -2.185  -4.574  -8.435  0.00  0.00    +0.031 C 
ATOM     37  C   UNL     1      -0.541  -2.700  -8.270  0.00  0.00    +0.031 C 
ENDBRANCH  32  34
ENDBRANCH  21  30
ENDBRANCH   3  21
TORSDOF 7
