REMARK  Name = ZINC39536834
REMARK  13 active torsions:
REMARK  status: ('A' for Active; 'I' for Inactive)
REMARK    1  A    between atoms: C_1  and  C_2
REMARK    2  A    between atoms: C_4  and  N_26
REMARK    3  A    between atoms: C_6  and  C_7
REMARK    4  A    between atoms: N_9  and  C_10
REMARK    5  A    between atoms: C_10  and  C_12
REMARK    6  A    between atoms: C_10  and  C_16
REMARK    7  A    between atoms: C_12  and  C_13
REMARK    8  A    between atoms: C_13  and  S_14
REMARK    9  A    between atoms: S_14  and  C_15
REMARK   10  A    between atoms: C_27  and  C_29
REMARK   11  A    between atoms: C_29  and  C_30
REMARK   12  A    between atoms: C_29  and  C_31
REMARK   13  A    between atoms: C_29  and  C_32
REMARK                            x       y       z     vdW  Elec       q    Type
REMARK                         _______ _______ _______ _____ _____    ______ ____
ROOT
ATOM      1  C   UNL     1       0.030  -0.278   2.559  0.00  0.00    +0.252 C 
ATOM      2  O   UNL     1       0.016   0.917   2.797  0.00  0.00    -0.270 OA
ATOM      3  N   UNL     1       0.052  -1.167   3.572  0.00  0.00    -0.301 N 
ATOM      4  H   UNL     1       0.063  -2.118   3.382  0.00  0.00    +0.150 HD
ENDROOT
BRANCH   1  10
ATOM      5  C   UNL     1      -0.018   1.503   0.010  0.00  0.00    +0.045 C 
ATOM      6  C   UNL     1       0.002  -0.004   0.002  0.00  0.00    -0.029 A 
ATOM      7  C   UNL     1       0.007  -0.725  -1.164  0.00  0.00    +0.035 A 
ATOM      8  C   UNL     1       0.025  -2.098  -1.090  0.00  0.00    +0.073 A 
ATOM      9  S   UNL     1       0.037  -2.419   0.559  0.00  0.00    -0.069 S 
ATOM     10  C   UNL     1       0.023  -0.747   1.175  0.00  0.00    +0.078 A 
BRANCH   8  11
ATOM     11  N   UNL     1       0.033  -3.010  -2.139  0.00  0.00    -0.280 N 
ATOM     12  C   UNL     1       0.052  -4.333  -1.881  0.00  0.00    +0.223 C 
ATOM     13  O   UNL     1       0.063  -4.727  -0.734  0.00  0.00    -0.275 OA
ATOM     14  H   UNL     1       0.025  -2.695  -3.056  0.00  0.00    +0.155 HD
BRANCH  12  15
ATOM     15  C   UNL     1       0.061  -5.322  -3.018  0.00  0.00    +0.039 C 
ATOM     16  C   UNL     1       0.082  -6.745  -2.456  0.00  0.00    +0.020 C 
ATOM     17  C   UNL     1      -1.195  -5.130  -3.870  0.00  0.00    +0.020 C 
ATOM     18  C   UNL     1       1.303  -5.096  -3.882  0.00  0.00    +0.020 C 
ENDBRANCH  12  15
ENDBRANCH   8  11
ENDBRANCH   1  10
BRANCH   3  19
ATOM     19  C   UNL     1       0.059  -0.696   4.959  0.00  0.00    +0.140 C 
BRANCH  19  20
ATOM     20  C   UNL     1       0.682  -1.746   5.842  0.00  0.00    +0.129 A 
ATOM     21  N   UNL     1       1.253  -2.899   5.399  0.00  0.00    -0.340 N 
ATOM     22  H   UNL     1       1.330  -3.184   4.475  0.00  0.00    +0.167 HD
ATOM     23  C   UNL     1       1.704  -3.587   6.508  0.00  0.00    +0.066 A 
ATOM     24  C   UNL     1       2.356  -4.798   6.695  0.00  0.00    +0.028 A 
ATOM     25  C   UNL     1       2.675  -5.211   7.971  0.00  0.00    +0.002 A 
ATOM     26  C   UNL     1       2.349  -4.426   9.067  0.00  0.00    +0.002 A 
ATOM     27  C   UNL     1       1.706  -3.231   8.902  0.00  0.00    +0.030 A 
ATOM     28  C   UNL     1       1.373  -2.792   7.618  0.00  0.00    +0.089 A 
ATOM     29  N   UNL     1       0.757  -1.681   7.140  0.00  0.00    -0.231 NA
ENDBRANCH  19  20
BRANCH  19  30
ATOM     30  C   UNL     1      -1.378  -0.433   5.415  0.00  0.00    +0.041 C 
BRANCH  30  31
ATOM     31  C   UNL     1      -1.969   0.719   4.601  0.00  0.00    +0.071 C 
BRANCH  31  32
ATOM     32  S   UNL     1      -3.672   1.031   5.141  0.00  0.00    -0.164 S 
ATOM     33  C   UNL     1      -4.221   2.405   4.092  0.00  0.00    +0.084 C 
ENDBRANCH  31  32
ENDBRANCH  30  31
ENDBRANCH  19  30
ENDBRANCH   3  19
TORSDOF 8
