REMARK  Name = ZINC40780785
REMARK  3 active torsions:
REMARK  status: ('A' for Active; 'I' for Inactive)
REMARK    1  A    between atoms: C_5  and  N_7
REMARK    2  A    between atoms: C_9  and  N_20
REMARK    3  A    between atoms: C_10  and  N_14
REMARK                            x       y       z     vdW  Elec       q    Type
REMARK                         _______ _______ _______ _____ _____    ______ ____
ROOT
ATOM      1  N   UNL     1       1.238  -2.079  -0.022  0.00  0.00    -0.297 N 
ATOM      2  C   UNL     1       0.051  -2.793   0.090  0.00  0.00    +0.149 A 
ATOM      3  C   UNL     1       0.069  -4.186   0.193  0.00  0.00    +0.106 A 
ATOM      4  C   UNL     1      -1.152  -4.854   0.304  0.00  0.00    +0.150 A 
ATOM      5  N   UNL     1      -2.278  -4.144   0.308  0.00  0.00    -0.219 NA
ATOM      6  C   UNL     1      -2.251  -2.831   0.208  0.00  0.00    +0.225 A 
ATOM      7  N   UNL     1      -1.120  -2.161   0.107  0.00  0.00    -0.219 NA
ATOM      8  H   UNL     1       2.080  -2.549  -0.117  0.00  0.00    +0.154 HD
ENDROOT
BRANCH   1  13
ATOM      9  C   UNL     1       0.154   1.370   0.646  0.00  0.00    +0.002 A 
ATOM     10  C   UNL     1       1.174   2.086   0.047  0.00  0.00    +0.001 A 
ATOM     11  C   UNL     1       2.216   1.423  -0.575  0.00  0.00    +0.017 A 
ATOM     12  C   UNL     1       2.240   0.041  -0.600  0.00  0.00    +0.039 A 
ATOM     13  C   UNL     1       1.217  -0.681   0.001  0.00  0.00    +0.047 A 
ATOM     14  C   UNL     1       0.172  -0.011   0.625  0.00  0.00    +0.024 A 
ATOM     15 BR   UNL     1       3.665  -0.865  -1.452  0.00  0.00    -0.048 Br
ENDBRANCH   1  13
BRANCH   4  16
ATOM     16  N   UNL     1      -1.191  -6.241   0.409  0.00  0.00    -0.277 N 
ATOM     17  C   UNL     1      -2.410  -6.894   0.519  0.00  0.00    +0.163 A 
ATOM     18  N   UNL     1      -3.618  -6.374   0.536  0.00  0.00    -0.233 NA
ATOM     19  C   UNL     1      -4.689  -7.139   0.647  0.00  0.00    +0.120 A 
ATOM     20  C   UNL     1      -4.484  -8.475   0.742  0.00  0.00    +0.068 A 
ATOM     21  S   UNL     1      -2.703  -8.546   0.657  0.00  0.00    -0.061 S 
ATOM     22  H   UNL     1      -0.366  -6.751   0.406  0.00  0.00    +0.156 HD
ENDBRANCH   4  16
BRANCH   3  23
ATOM     23  N   UNL     1       1.280  -4.894   0.185  0.00  0.00    -0.353 N 
ATOM     24  H   UNL     1       2.121  -4.416   0.107  0.00  0.00    +0.143 HD
ATOM     25  H   UNL     1       1.277  -5.862   0.257  0.00  0.00    +0.143 HD
ENDBRANCH   3  23
TORSDOF 3
