REMARK  Name = ZINC01808120
REMARK  9 active torsions:
REMARK  status: ('A' for Active; 'I' for Inactive)
REMARK    1  A    between atoms: C_4  and  O_26
REMARK    2  A    between atoms: C_5  and  C_7
REMARK    3  A    between atoms: N_9  and  N_10
REMARK    4  A    between atoms: N_10  and  C_11
REMARK    5  A    between atoms: C_11  and  N_13
REMARK    6  A    between atoms: N_13  and  C_14
REMARK    7  A    between atoms: C_14  and  C_15
REMARK    8  A    between atoms: C_15  and  C_17
REMARK    9  A    between atoms: C_17  and  C_18
REMARK                            x       y       z     vdW  Elec       q    Type
REMARK                         _______ _______ _______ _____ _____    ______ ____
ROOT
ATOM      1  C   UNL     1       0.067  -0.679   6.036  0.00  0.00    +0.147 C 
ATOM      2  S   UNL     1       0.070   0.160   7.528  0.00  0.00    -0.017 S 
ENDROOT
BRANCH   1   3
ATOM      3  N   UNL     1       0.047   0.008   4.876  0.00  0.00    -0.246 N 
ATOM      4  H   UNL     1       0.034   0.978   4.888  0.00  0.00    +0.172 HD
BRANCH   3   7
ATOM      5  C   UNL     1       0.025   0.009   2.496  0.00  0.00    +0.264 C 
ATOM      6  O   UNL     1       0.008   1.224   2.510  0.00  0.00    -0.269 OA
ATOM      7  N   UNL     1       0.045  -0.678   3.655  0.00  0.00    -0.231 N 
ATOM      8  H   UNL     1       0.059  -1.648   3.644  0.00  0.00    +0.173 HD
BRANCH   5  13
ATOM      9  C   UNL     1       0.040  -2.780  -0.015  0.00  0.00    +0.001 A 
ATOM     10  C   UNL     1       0.018  -2.075  -1.207  0.00  0.00    +0.004 A 
ATOM     11  C   UNL     1      -0.006  -0.694  -1.201  0.00  0.00    +0.046 A 
ATOM     12  C   UNL     1       0.002  -0.004   0.002  0.00  0.00    +0.129 A 
ATOM     13  C   UNL     1       0.023  -0.714   1.210  0.00  0.00    +0.079 A 
ATOM     14  C   UNL     1       0.042  -2.111   1.189  0.00  0.00    +0.017 A 
BRANCH  12  15
ATOM     15  O   UNL     1      -0.016   1.352   0.009  0.00  0.00    -0.506 OA
ATOM     16  H   UNL     1       0.862   1.758   0.003  0.00  0.00    +0.292 HD
ENDBRANCH  12  15
ENDBRANCH   5  13
ENDBRANCH   3   7
ENDBRANCH   1   3
BRANCH   1  17
ATOM     17  N   UNL     1       0.086  -2.026   6.020  0.00  0.00    -0.324 N 
ATOM     18  H   UNL     1       0.085  -2.502   5.175  0.00  0.00    +0.148 HD
BRANCH  17  19
ATOM     19  C   UNL     1       0.108  -2.773   7.280  0.00  0.00    +0.122 C 
BRANCH  19  20
ATOM     20  C   UNL     1       0.126  -4.274   6.984  0.00  0.00    +0.102 C 
ATOM     21 CL   UNL     1      -1.348  -4.719   6.047  0.00  0.00    -0.120 Cl
BRANCH  20  22
ATOM     22  C   UNL     1       0.149  -5.054   8.300  0.00  0.00    +0.056 C 
BRANCH  22  23
ATOM     23  C   UNL     1       0.291  -6.526   8.009  0.00  0.00    -0.046 A 
ATOM     24  C   UNL     1      -0.836  -7.308   7.839  0.00  0.00    +0.005 A 
ATOM     25  C   UNL     1      -0.706  -8.657   7.568  0.00  0.00    +0.015 A 
ATOM     26  C   UNL     1       0.551  -9.226   7.477  0.00  0.00    +0.018 A 
ATOM     27  C   UNL     1       1.679  -8.444   7.652  0.00  0.00    +0.015 A 
ATOM     28  C   UNL     1       1.548  -7.094   7.918  0.00  0.00    +0.005 A 
ATOM     29 BR   UNL     1       0.729 -11.073   7.112  0.00  0.00    -0.050 Br
ENDBRANCH  22  23
ENDBRANCH  20  22
ENDBRANCH  19  20
ENDBRANCH  17  19
ENDBRANCH   1  17
TORSDOF 9
