REMARK  Name = ZINC63303021
REMARK  7 active torsions:
REMARK  status: ('A' for Active; 'I' for Inactive)
REMARK    1  A    between atoms: C_7  and  C_13
REMARK    2  A    between atoms: C_13  and  C_14
REMARK    3  A    between atoms: N_16  and  C_17
REMARK    4  A    between atoms: C_17  and  C_18
REMARK    5  A    between atoms: N_20  and  C_21
REMARK    6  A    between atoms: C_21  and  C_22
REMARK    7  A    between atoms: C_22  and  C_23
REMARK                            x       y       z     vdW  Elec       q    Type
REMARK                         _______ _______ _______ _____ _____    ______ ____
ROOT
ATOM      1  C   UNL     1      -0.063  -6.357   2.142  0.00  0.00    +0.200 C 
ENDROOT
BRANCH   1   4
ATOM      2  C   UNL     1       0.554  -4.205   1.181  0.00  0.00    +0.216 C 
ATOM      3  O   UNL     1       1.064  -4.798   0.254  0.00  0.00    -0.276 OA
ATOM      4  N   UNL     1      -0.037  -4.893   2.178  0.00  0.00    -0.307 N 
ATOM      5  H   UNL     1      -0.445  -4.418   2.919  0.00  0.00    +0.149 HD
BRANCH   2   6
ATOM      6  C   UNL     1       0.581  -2.698   1.218  0.00  0.00    +0.126 C 
BRANCH   6  13
ATOM      7  C   UNL     1      -0.017   1.383   0.010  0.00  0.00    +0.000 A 
ATOM      8  C   UNL     1       1.167   2.100   0.002  0.00  0.00    +0.001 A 
ATOM      9  C   UNL     1       2.383   1.445  -0.013  0.00  0.00    +0.013 A 
ATOM     10  C   UNL     1       2.409   0.053  -0.021  0.00  0.00    +0.045 A 
ATOM     11  C   UNL     1       1.203  -0.664  -0.013  0.00  0.00    -0.011 A 
ATOM     12  C   UNL     1       0.002  -0.004   0.002  0.00  0.00    +0.006 A 
ATOM     13  C   UNL     1       1.305  -2.171  -0.022  0.00  0.00    +0.136 C 
ATOM     14  N   UNL     1       2.654  -2.755  -0.039  0.00  0.00    -0.306 N 
ATOM     15  N   UNL     1       3.664  -2.052  -0.046  0.00  0.00    -0.105 NA
ATOM     16  C   UNL     1       3.670  -0.711  -0.038  0.00  0.00    +0.283 C 
ATOM     17  O   UNL     1       4.729  -0.116  -0.045  0.00  0.00    -0.267 OA
ATOM     18  H   UNL     1       2.750  -3.720  -0.046  0.00  0.00    +0.181 HD
ENDBRANCH   6  13
ENDBRANCH   2   6
ENDBRANCH   1   4
BRANCH   1  19
ATOM     19  C   UNL     1      -0.776  -6.877   3.363  0.00  0.00    +0.230 C 
ATOM     20  O   UNL     1      -1.219  -6.100   4.183  0.00  0.00    -0.274 OA
ATOM     21  N   UNL     1      -0.922  -8.204   3.545  0.00  0.00    -0.314 N 
ATOM     22  H   UNL     1      -0.568  -8.825   2.889  0.00  0.00    +0.149 HD
BRANCH  21  23
ATOM     23  C   UNL     1      -1.616  -8.709   4.732  0.00  0.00    +0.108 C 
BRANCH  23  24
ATOM     24  C   UNL     1      -1.643 -10.239   4.695  0.00  0.00    +0.052 C 
BRANCH  24  25
ATOM     25  C   UNL     1      -2.356 -10.758   5.916  0.00  0.00    -0.040 C 
ATOM     26  C   UNL     1      -3.661 -11.102   6.011  0.00  0.00    +0.002 A 
ATOM     27  C   UNL     1      -4.763 -11.095   5.043  0.00  0.00    +0.048 A 
ATOM     28  C   UNL     1      -5.990 -11.507   5.441  0.00  0.00    +0.124 A 
ATOM     29  C   UNL     1      -6.232 -11.938   6.755  0.00  0.00    +0.040 A 
ATOM     30  C   UNL     1      -5.269 -11.972   7.700  0.00  0.00    +0.029 A 
ATOM     31  C   UNL     1      -3.943 -11.562   7.390  0.00  0.00    +0.043 A 
ATOM     32  N   UNL     1      -2.855 -11.504   8.119  0.00  0.00    -0.380 N 
ATOM     33  C   UNL     1      -1.757 -11.007   7.282  0.00  0.00    +0.144 C 
ATOM     34  F   UNL     1      -7.008 -11.501   4.553  0.00  0.00    -0.205 F 
ATOM     35  H   UNL     1      -2.786 -11.752   9.054  0.00  0.00    +0.160 HD
ENDBRANCH  24  25
ENDBRANCH  23  24
ENDBRANCH  21  23
ENDBRANCH   1  19
TORSDOF 7
