REMARK  Name = ZINC36207292
REMARK  17 active torsions:
REMARK  status: ('A' for Active; 'I' for Inactive)
REMARK    1  A    between atoms: C_1  and  C_2
REMARK    2  A    between atoms: C_2  and  C_3
REMARK    3  A    between atoms: C_9  and  C_18
REMARK    4  A    between atoms: C_13  and  C_14
REMARK    5  A    between atoms: C_14  and  O_16
REMARK    6  A    between atoms: O_16  and  C_17
REMARK    7  A    between atoms: C_18  and  N_19
REMARK    8  A    between atoms: N_19  and  C_20
REMARK    9  A    between atoms: N_19  and  C_24
REMARK   10  A    between atoms: C_20  and  C_21
REMARK   11  A    between atoms: C_21  and  O_22
REMARK   12  A    between atoms: O_22  and  C_23
REMARK   13  A    between atoms: C_24  and  C_25
REMARK   14  A    between atoms: C_25  and  C_27
REMARK   15  A    between atoms: C_25  and  O_36
REMARK   16  A    between atoms: C_27  and  O_28
REMARK   17  A    between atoms: O_28  and  C_29
REMARK                            x       y       z     vdW  Elec       q    Type
REMARK                         _______ _______ _______ _____ _____    ______ ____
ROOT
ATOM      1  N   UNL     1      -6.267  -2.164   4.017  0.00  0.00    +0.388 N 
ATOM      2  H   UNL     1      -6.968  -1.631   3.524  0.00  0.00    -0.081 HD
ENDROOT
BRANCH   1   3
ATOM      3  C   UNL     1      -5.056  -1.348   4.178  0.00  0.00    -0.003 C 
BRANCH   3  10
ATOM      4  C   UNL     1      -3.633   0.532  -0.957  0.00  0.00    -0.012 A 
ATOM      5  C   UNL     1      -3.866   0.141   0.363  0.00  0.00    +0.076 A 
ATOM      6  C   UNL     1      -3.095   0.467   1.585  0.00  0.00    +0.260 A 
ATOM      7  O   UNL     1      -2.102   1.170   1.528  0.00  0.00    -0.267 OA
ATOM      8  N   UNL     1      -3.522  -0.033   2.761  0.00  0.00    -0.312 N 
ATOM      9  H   UNL     1      -3.029   0.171   3.571  0.00  0.00    +0.170 HD
ATOM     10  C   UNL     1      -4.626  -0.816   2.836  0.00  0.00    +0.094 A 
ATOM     11  N   UNL     1      -5.328  -1.122   1.778  0.00  0.00    -0.229 NA
ATOM     12  C   UNL     1      -4.996  -0.682   0.572  0.00  0.00    +0.116 A 
ATOM     13  S   UNL     1      -5.670  -0.870  -1.060  0.00  0.00    -0.062 S 
ATOM     14  C   UNL     1      -4.479   0.121  -1.946  0.00  0.00    +0.102 A 
BRANCH   4  16
ATOM     15  C   UNL     1      -2.870   2.880  -1.191  0.00  0.00    +0.009 C 
ATOM     16  C   UNL     1      -2.454   1.410  -1.288  0.00  0.00    +0.034 C 
ENDBRANCH   4  16
BRANCH  14  17
ATOM     17  C   UNL     1      -4.422   0.417  -3.379  0.00  0.00    +0.346 C 
ATOM     18  O   UNL     1      -3.530   1.116  -3.821  0.00  0.00    -0.244 OA
BRANCH  17  19
ATOM     19  O   UNL     1      -5.359  -0.086  -4.209  0.00  0.00    -0.464 OA
ATOM     20  C   UNL     1      -5.242   0.243  -5.595  0.00  0.00    +0.280 C 
ENDBRANCH  17  19
ENDBRANCH  14  17
ENDBRANCH   3  10
ENDBRANCH   1   3
BRANCH   1  21
ATOM     21  C   UNL     1      -5.943  -3.374   3.251  0.00  0.00    -0.050 C 
BRANCH  21  22
ATOM     22  C   UNL     1      -7.225  -4.164   2.979  0.00  0.00    +0.141 C 
BRANCH  22  23
ATOM     23  O   UNL     1      -8.095  -3.390   2.150  0.00  0.00    -0.385 OA
ATOM     24  C   UNL     1      -9.328  -4.040   1.835  0.00  0.00    +0.193 C 
ENDBRANCH  22  23
ENDBRANCH  21  22
ENDBRANCH   1  21
BRANCH   1  25
ATOM     25  C   UNL     1      -6.781  -2.544   5.340  0.00  0.00    -0.043 C 
BRANCH  25  26
ATOM     26  C   UNL     1      -7.306  -1.301   6.060  0.00  0.00    +0.135 C 
BRANCH  26  27
ATOM     27  O   UNL     1      -6.207  -0.470   6.439  0.00  0.00    -0.390 OA
ATOM     28  H   UNL     1      -5.576  -0.899   7.034  0.00  0.00    +0.210 HD
ENDBRANCH  26  27
BRANCH  26  29
ATOM     29  C   UNL     1      -8.080  -1.724   7.310  0.00  0.00    +0.258 C 
BRANCH  29  30
ATOM     30  O   UNL     1      -8.668  -0.573   7.918  0.00  0.00    -0.489 OA
BRANCH  30  31
ATOM     31  C   UNL     1      -9.396  -0.776   9.048  0.00  0.00    +0.121 A 
ATOM     32  C   UNL     1      -9.536  -2.056   9.563  0.00  0.00    +0.047 A 
ATOM     33  C   UNL     1     -10.277  -2.261  10.712  0.00  0.00    +0.023 A 
ATOM     34  C   UNL     1     -10.878  -1.189  11.348  0.00  0.00    +0.041 A 
ATOM     35  C   UNL     1     -10.740   0.088  10.835  0.00  0.00    +0.023 A 
ATOM     36  C   UNL     1      -9.995   0.298   9.691  0.00  0.00    +0.047 A 
ATOM     37 CL   UNL     1     -11.808  -1.449  12.790  0.00  0.00    -0.084 Cl
ENDBRANCH  30  31
ENDBRANCH  29  30
ENDBRANCH  26  29
ENDBRANCH  25  26
ENDBRANCH   1  25
TORSDOF 14
