REMARK  Name = ZINC37538798
REMARK  8 active torsions:
REMARK  status: ('A' for Active; 'I' for Inactive)
REMARK    1  A    between atoms: C_1  and  C_2
REMARK    2  A    between atoms: C_2  and  N_3
REMARK    3  A    between atoms: C_7  and  C_9
REMARK    4  A    between atoms: C_9  and  C_11
REMARK    5  A    between atoms: C_9  and  N_12
REMARK    6  A    between atoms: N_12  and  C_13
REMARK    7  A    between atoms: N_12  and  C_15
REMARK    8  A    between atoms: C_13  and  C_14
REMARK                            x       y       z     vdW  Elec       q    Type
REMARK                         _______ _______ _______ _____ _____    ______ ____
ROOT
ATOM      1  C   UNL     1      -4.093  -4.422   0.710  0.00  0.00    +0.141 C 
ATOM      2  C   UNL     1      -4.600  -4.685   2.129  0.00  0.00    +0.034 C 
ENDROOT
BRANCH   1   7
ATOM      3  N   UNL     1      -0.924  -0.821   1.021  0.00  0.00    -0.299 N 
ATOM      4  C   UNL     1      -1.165  -2.143   0.921  0.00  0.00    +0.306 C 
ATOM      5  O   UNL     1      -0.238  -2.928   0.879  0.00  0.00    -0.252 OA
ATOM      6  N   UNL     1      -2.433  -2.595   0.869  0.00  0.00    -0.239 N 
ATOM      7  C   UNL     1      -2.674  -3.917   0.769  0.00  0.00    +0.237 C 
ATOM      8  O   UNL     1      -1.750  -4.700   0.726  0.00  0.00    -0.274 OA
ATOM      9  H   UNL     1      -1.664  -0.194   1.055  0.00  0.00    +0.150 HD
ATOM     10  H   UNL     1      -3.173  -1.968   0.903  0.00  0.00    +0.159 HD
BRANCH   3  12
ATOM     11  C   UNL     1       0.449   1.196   1.189  0.00  0.00    +0.024 C 
ATOM     12  C   UNL     1       0.455  -0.330   1.078  0.00  0.00    +0.102 C 
ENDBRANCH   3  12
ENDBRANCH   1   7
BRANCH   1  13
ATOM     13  N   UNL     1      -4.137  -5.670  -0.064  0.00  0.00    -0.289 NA
BRANCH  13  14
ATOM     14  C   UNL     1      -5.514  -6.166  -0.186  0.00  0.00    +0.054 C 
ATOM     15  C   UNL     1      -6.196  -5.497  -1.383  0.00  0.00    -0.000 C 
ATOM     16  C   UNL     1      -7.602  -6.076  -1.552  0.00  0.00    -0.081 C 
ATOM     17  N   UNL     1      -7.514  -7.522  -1.783  0.00  0.00    +0.379 N 
ATOM     18  C   UNL     1      -6.927  -8.180  -0.610  0.00  0.00    -0.081 C 
ATOM     19  C   UNL     1      -5.495  -7.682  -0.404  0.00  0.00    -0.000 C 
ATOM     20  H   UNL     1      -8.439  -7.892  -1.947  0.00  0.00    -0.086 HD
ATOM     21  H   UNL     1      -6.936  -7.699  -2.591  0.00  0.00    -0.086 HD
ENDBRANCH  13  14
BRANCH  13  22
ATOM     22  C   UNL     1      -3.523  -5.491  -1.387  0.00  0.00    +0.082 C 
ATOM     23  C   UNL     1      -3.256  -6.860  -2.015  0.00  0.00    +0.020 C 
ENDBRANCH  13  22
ENDBRANCH   1  13
TORSDOF 5
