REMARK  Name = ZINC52541557
REMARK  7 active torsions:
REMARK  status: ('A' for Active; 'I' for Inactive)
REMARK    1  A    between atoms: C_3  and  C_19
REMARK    2  A    between atoms: C_6  and  C_7
REMARK    3  A    between atoms: C_8  and  C_9
REMARK    4  A    between atoms: N_10  and  N_11
REMARK    5  A    between atoms: C_23  and  C_28
REMARK    6  A    between atoms: C_29  and  C_30
REMARK    7  A    between atoms: N_31  and  N_32
REMARK                            x       y       z     vdW  Elec       q    Type
REMARK                         _______ _______ _______ _____ _____    ______ ____
ROOT
ATOM      1  C   UNL     1       3.652   2.175  -0.022  0.00  0.00    +0.090 A 
ATOM      2  C   UNL     1       4.904   1.636  -0.043  0.00  0.00    +0.121 A 
ATOM      3  N   UNL     1       5.790   2.678  -0.044  0.00  0.00    -0.305 N 
ATOM      4  C   UNL     1       7.152   2.720  -0.061  0.00  0.00    +0.100 A 
ATOM      5  C   UNL     1       7.809   3.930  -0.058  0.00  0.00    -0.008 A 
ATOM      6  C   UNL     1       7.065   5.137  -0.037  0.00  0.00    +0.013 A 
ATOM      7  C   UNL     1       5.710   5.087  -0.020  0.00  0.00    +0.047 A 
ATOM      8  C   UNL     1       5.055   3.836  -0.024  0.00  0.00    +0.138 A 
ATOM      9  N   UNL     1       3.770   3.513  -0.017  0.00  0.00    -0.228 NA
ENDROOT
BRANCH   1  12
ATOM     10  C   UNL     1      -0.017   1.396   0.010  0.00  0.00    +0.008 A 
ATOM     11  C   UNL     1       1.161   2.096   0.002  0.00  0.00    +0.010 A 
ATOM     12  C   UNL     1       2.380   1.415  -0.013  0.00  0.00    +0.002 A 
ATOM     13  C   UNL     1       2.401   0.019  -0.022  0.00  0.00    +0.010 A 
ATOM     14  C   UNL     1       1.225  -0.685  -0.014  0.00  0.00    +0.008 A 
ATOM     15  C   UNL     1       0.002  -0.004   0.002  0.00  0.00    -0.025 A 
BRANCH  15  16
ATOM     16  C   UNL     1      -1.260  -0.757   0.011  0.00  0.00    +0.009 C 
ATOM     17  C   UNL     1      -1.240  -2.110   0.003  0.00  0.00    +0.022 C 
BRANCH  17  18
ATOM     18  C   UNL     1      -2.452  -2.833   0.011  0.00  0.00    +0.133 C 
ATOM     19  N   UNL     1      -2.433  -4.144   0.004  0.00  0.00    -0.180 NA
BRANCH  19  20
ATOM     20  N   UNL     1      -3.541  -4.805   0.011  0.00  0.00    -0.252 N 
ATOM     21  C   UNL     1      -3.522  -6.125   0.004  0.00  0.00    +0.174 C 
ATOM     22  N   UNL     1      -2.325  -6.793  -0.011  0.00  0.00    -0.331 N 
ATOM     23  N   UNL     1      -4.699  -6.827   0.012  0.00  0.00    -0.304 N 
ATOM     24  C   UNL     1      -6.047  -6.240   0.022  0.00  0.00    +0.108 C 
ATOM     25  C   UNL     1      -7.055  -7.409   0.055  0.00  0.00    +0.020 C 
ATOM     26  C   UNL     1      -6.213  -8.577   0.632  0.00  0.00    +0.020 C 
ATOM     27  C   UNL     1      -4.823  -8.296   0.005  0.00  0.00    +0.108 C 
ATOM     28  H   UNL     1      -1.492  -6.295  -0.017  0.00  0.00    +0.145 HD
ATOM     29  H   UNL     1      -2.311  -7.763  -0.017  0.00  0.00    +0.145 HD
ATOM     30  H   UNL     1      -4.388  -4.332   0.022  0.00  0.00    +0.191 HD
ENDBRANCH  19  20
ENDBRANCH  17  18
ENDBRANCH  15  16
ENDBRANCH   1  12
BRANCH   5  31
ATOM     31  C   UNL     1       9.281   3.970  -0.076  0.00  0.00    +0.011 C 
ATOM     32  C   UNL     1       9.923   5.156  -0.073  0.00  0.00    +0.022 C 
BRANCH  32  33
ATOM     33  C   UNL     1      11.340   5.195  -0.090  0.00  0.00    +0.130 C 
ATOM     34  N   UNL     1      11.960   6.340  -0.087  0.00  0.00    -0.188 NA
BRANCH  34  35
ATOM     35  N   UNL     1      13.361   6.379  -0.104  0.00  0.00    -0.211 N 
ATOM     36  C   UNL     1      14.016   7.589  -0.101  0.00  0.00    +0.174 C 
ATOM     37  N   UNL     1      13.333   8.700  -0.082  0.00  0.00    -0.374 N 
ATOM     38  N   UNL     1      15.391   7.627  -0.118  0.00  0.00    -0.304 N 
ATOM     39  C   UNL     1      16.280   6.456  -0.146  0.00  0.00    +0.108 C 
ATOM     40  C   UNL     1      17.731   6.982  -0.130  0.00  0.00    +0.020 C 
ATOM     41  C   UNL     1      17.579   8.402   0.477  0.00  0.00    +0.020 C 
ATOM     42  C   UNL     1      16.217   8.848  -0.117  0.00  0.00    +0.108 C 
ATOM     43  H   UNL     1      13.868   5.553  -0.118  0.00  0.00    +0.177 HD
ATOM     44  H   UNL     1      13.795   9.553  -0.080  0.00  0.00    +0.158 HD
ATOM     45  H   UNL     1      12.364   8.673  -0.070  0.00  0.00    +0.158 HD
ENDBRANCH  34  35
ENDBRANCH  32  33
ENDBRANCH   5  31
TORSDOF 7
