REMARK  Name = ZINC36205243
REMARK  15 active torsions:
REMARK  status: ('A' for Active; 'I' for Inactive)
REMARK    1  A    between atoms: C_1  and  C_2
REMARK    2  A    between atoms: C_5  and  C_9
REMARK    3  A    between atoms: C_7  and  C_8
REMARK    4  A    between atoms: C_18  and  C_20
REMARK    5  A    between atoms: C_20  and  N_21
REMARK    6  A    between atoms: N_21  and  C_22
REMARK    7  A    between atoms: N_21  and  C_28
REMARK    8  A    between atoms: C_22  and  C_23
REMARK    9  A    between atoms: C_28  and  C_29
REMARK   10  A    between atoms: C_29  and  C_31
REMARK   11  A    between atoms: C_29  and  O_36
REMARK   12  A    between atoms: C_31  and  O_32
REMARK   13  A    between atoms: O_32  and  C_33
REMARK   14  A    between atoms: C_33  and  C_34
REMARK   15  A    between atoms: C_33  and  C_35
REMARK                            x       y       z     vdW  Elec       q    Type
REMARK                         _______ _______ _______ _____ _____    ______ ____
ROOT
ATOM      1  C   UNL     1       0.004  -4.567   0.947  0.00  0.00    +0.004 A 
ATOM      2  C   UNL     1       0.701  -5.365   1.793  0.00  0.00    +0.056 A 
ATOM      3  S   UNL     1       0.283  -7.009   1.246  0.00  0.00    -0.076 S 
ATOM      4  C   UNL     1      -0.805  -6.592  -0.091  0.00  0.00    +0.116 A 
ATOM      5  C   UNL     1      -0.824  -5.188  -0.079  0.00  0.00    +0.080 A 
ATOM      6  C   UNL     1      -1.647  -4.570  -1.075  0.00  0.00    +0.260 A 
ATOM      7  O   UNL     1      -1.725  -3.356  -1.148  0.00  0.00    -0.267 OA
ATOM      8  N   UNL     1      -2.333  -5.351  -1.930  0.00  0.00    -0.312 N 
ATOM      9  H   UNL     1      -2.892  -4.938  -2.607  0.00  0.00    +0.170 HD
ATOM     10  C   UNL     1      -2.257  -6.705  -1.865  0.00  0.00    +0.094 A 
ATOM     11  N   UNL     1      -1.508  -7.297  -0.974  0.00  0.00    -0.229 NA
ENDROOT
BRANCH   1  16
ATOM     12  C   UNL     1       0.294   1.165   1.413  0.00  0.00    +0.044 C 
ATOM     13  C   UNL     1       0.219  -0.335   1.291  0.00  0.00    -0.048 A 
ATOM     14  C   UNL     1       0.410  -0.937   0.060  0.00  0.00    +0.004 A 
ATOM     15  C   UNL     1       0.342  -2.310  -0.058  0.00  0.00    +0.009 A 
ATOM     16  C   UNL     1       0.080  -3.091   1.067  0.00  0.00    -0.016 A 
ATOM     17  C   UNL     1      -0.112  -2.479   2.305  0.00  0.00    +0.012 A 
ATOM     18  C   UNL     1      -0.036  -1.105   2.411  0.00  0.00    -0.047 A 
ATOM     19  C   UNL     1      -0.236  -0.443   3.750  0.00  0.00    +0.044 C 
ENDBRANCH   1  16
BRANCH  10  20
ATOM     20  C   UNL     1      -3.043  -7.539  -2.844  0.00  0.00    -0.003 C 
BRANCH  20  21
ATOM     21  N   UNL     1      -2.803  -8.963  -2.577  0.00  0.00    +0.391 N 
ATOM     22  H   UNL     1      -1.811  -9.147  -2.598  0.00  0.00    -0.080 HD
BRANCH  21  23
ATOM     23  C   UNL     1      -3.337  -9.311  -1.254  0.00  0.00    -0.002 C 
BRANCH  23  24
ATOM     24  C   UNL     1      -2.965 -10.732  -0.919  0.00  0.00    +0.089 A 
ATOM     25  C   UNL     1      -1.803 -11.134  -0.374  0.00  0.00    +0.042 A 
ATOM     26  C   UNL     1      -1.880 -12.539  -0.233  0.00  0.00    +0.041 A 
ATOM     27  C   UNL     1      -3.085 -12.912  -0.700  0.00  0.00    +0.195 A 
ATOM     28  O   UNL     1      -3.740 -11.813  -1.109  0.00  0.00    -0.470 OA
ENDBRANCH  23  24
ENDBRANCH  21  23
BRANCH  21  29
ATOM     29  C   UNL     1      -3.472  -9.774  -3.604  0.00  0.00    -0.044 C 
BRANCH  29  30
ATOM     30  C   UNL     1      -2.817  -9.517  -4.963  0.00  0.00    +0.124 C 
BRANCH  30  31
ATOM     31  O   UNL     1      -1.444  -9.908  -4.911  0.00  0.00    -0.391 OA
ATOM     32  H   UNL     1      -1.310 -10.855  -4.769  0.00  0.00    +0.210 HD
ENDBRANCH  30  31
BRANCH  30  33
ATOM     33  C   UNL     1      -3.539 -10.330  -6.038  0.00  0.00    +0.189 C 
BRANCH  33  34
ATOM     34  O   UNL     1      -3.005 -10.003  -7.322  0.00  0.00    -0.375 OA
BRANCH  34  35
ATOM     35  C   UNL     1      -3.614 -10.712  -8.403  0.00  0.00    +0.112 C 
ATOM     36  C   UNL     1      -4.808  -9.913  -8.928  0.00  0.00    +0.037 C 
ATOM     37  C   UNL     1      -2.593 -10.901  -9.528  0.00  0.00    +0.037 C 
ENDBRANCH  34  35
ENDBRANCH  33  34
ENDBRANCH  30  33
ENDBRANCH  29  30
ENDBRANCH  21  29
ENDBRANCH  20  21
ENDBRANCH  10  20
TORSDOF 11
