REMARK  Name = ZINC64568206
REMARK  7 active torsions:
REMARK  status: ('A' for Active; 'I' for Inactive)
REMARK    1  A    between atoms: C_1  and  C_2
REMARK    2  A    between atoms: C_2  and  O_3
REMARK    3  A    between atoms: O_3  and  C_4
REMARK    4  A    between atoms: C_7  and  C_10
REMARK    5  A    between atoms: C_25  and  C_27
REMARK    6  A    between atoms: C_30  and  O_33
REMARK    7  A    between atoms: O_33  and  C_34
REMARK                            x       y       z     vdW  Elec       q    Type
REMARK                         _______ _______ _______ _____ _____    ______ ____
ROOT
ATOM      1  C   UNL     1       0.625  -6.083   1.779  0.00  0.00    +0.133 C 
ATOM      2  C   UNL     1       1.551  -7.129   1.148  0.00  0.00    +0.131 C 
ATOM      3  C   UNL     1       1.071  -8.488   1.641  0.00  0.00    -0.035 C 
ATOM      4  C   UNL     1       0.820  -9.213   0.556  0.00  0.00    -0.001 A 
ATOM      5  C   UNL     1       0.400 -10.614   0.391  0.00  0.00    +0.010 A 
ATOM      6  C   UNL     1       0.220 -11.038  -0.888  0.00  0.00    +0.001 A 
ATOM      7  C   UNL     1       0.415 -10.219  -2.005  0.00  0.00    +0.002 A 
ATOM      8  C   UNL     1       0.805  -8.921  -1.946  0.00  0.00    +0.026 A 
ATOM      9  C   UNL     1       1.030  -8.362  -0.654  0.00  0.00    +0.043 A 
ATOM     10  N   UNL     1       1.433  -7.151  -0.311  0.00  0.00    -0.375 N 
ATOM     11  C   UNL     1       0.880  -8.799   3.105  0.00  0.00    +0.052 C 
ATOM     12  C   UNL     1       0.020  -7.663   3.690  0.00  0.00    +0.113 C 
ATOM     13  N   UNL     1       0.532  -6.372   3.218  0.00  0.00    -0.288 N 
ATOM     14  C   UNL     1       0.921  -5.441   4.112  0.00  0.00    +0.247 C 
ATOM     15  O   UNL     1       1.234  -4.329   3.735  0.00  0.00    -0.270 OA
ATOM     16  H   UNL     1       1.614  -6.407  -0.906  0.00  0.00    +0.160 HD
ENDROOT
BRANCH   1  20
ATOM     17  C   UNL     1       2.248  -2.174   1.190  0.00  0.00    +0.121 A 
ATOM     18  C   UNL     1       3.081  -3.226   1.542  0.00  0.00    +0.046 A 
ATOM     19  C   UNL     1       2.554  -4.489   1.733  0.00  0.00    +0.009 A 
ATOM     20  C   UNL     1       1.198  -4.705   1.571  0.00  0.00    -0.025 A 
ATOM     21  C   UNL     1       0.366  -3.658   1.219  0.00  0.00    +0.009 A 
ATOM     22  C   UNL     1       0.887  -2.392   1.034  0.00  0.00    +0.046 A 
BRANCH  17  23
ATOM     23  O   UNL     1       2.764  -0.931   1.003  0.00  0.00    -0.492 OA
BRANCH  23  25
ATOM     24  C   UNL     1       4.567   0.677   0.929  0.00  0.00    +0.048 C 
ATOM     25  C   UNL     1       4.174  -0.780   1.180  0.00  0.00    +0.225 C 
ENDBRANCH  23  25
ENDBRANCH  17  23
ENDBRANCH   1  20
BRANCH  14  26
ATOM     26  C   UNL     1       0.968  -5.773   5.550  0.00  0.00    +0.037 A 
ATOM     27  C   UNL     1       1.287  -7.070   5.960  0.00  0.00    +0.016 A 
ATOM     28  C   UNL     1       1.330  -7.376   7.301  0.00  0.00    +0.046 A 
ATOM     29  C   UNL     1       1.056  -6.396   8.248  0.00  0.00    +0.120 A 
ATOM     30  C   UNL     1       0.737  -5.104   7.845  0.00  0.00    +0.046 A 
ATOM     31  C   UNL     1       0.698  -4.790   6.505  0.00  0.00    +0.016 A 
BRANCH  29  32
ATOM     32  O   UNL     1       1.098  -6.701   9.570  0.00  0.00    -0.495 OA
ATOM     33  C   UNL     1       0.805  -5.646  10.489  0.00  0.00    +0.277 C 
ENDBRANCH  29  32
ENDBRANCH  14  26
TORSDOF 5
