REMARK  Name = ZINC13031597
REMARK  16 active torsions:
REMARK  status: ('A' for Active; 'I' for Inactive)
REMARK    1  A    between atoms: C_1  and  C_2
REMARK    2  A    between atoms: C_2  and  C_3
REMARK    3  A    between atoms: C_3  and  C_4
REMARK    4  A    between atoms: C_4  and  N_5
REMARK    5  A    between atoms: C_6  and  N_37
REMARK    6  A    between atoms: C_7  and  N_14
REMARK    7  A    between atoms: N_14  and  C_15
REMARK    8  A    between atoms: C_15  and  C_16
REMARK    9  A    between atoms: C_16  and  C_17
REMARK   10  A    between atoms: C_17  and  C_18
REMARK   11  A    between atoms: C_17  and  C_19
REMARK   12  A    between atoms: C_20  and  C_22
REMARK   13  A    between atoms: C_22  and  O_23
REMARK   14  A    between atoms: O_23  and  C_24
REMARK   15  A    between atoms: C_24  and  C_26
REMARK   16  A    between atoms: C_28  and  C_36
REMARK                            x       y       z     vdW  Elec       q    Type
REMARK                         _______ _______ _______ _____ _____    ______ ____
ROOT
ATOM      1  N   UNL     1      -8.250   2.461  -0.305  0.00  0.00    -0.261 N 
ATOM      2  C   UNL     1      -6.992   2.046  -0.049  0.00  0.00    +0.258 C 
ATOM      3  O   UNL     1      -6.321   1.557  -0.934  0.00  0.00    -0.272 OA
ENDROOT
BRANCH   1   6
ATOM      4  N   UNL     1      -8.875   2.555  -3.925  0.00  0.00    -0.280 N 
ATOM      5  C   UNL     1      -8.292   2.804  -2.704  0.00  0.00    +0.127 A 
ATOM      6  C   UNL     1      -8.825   2.225  -1.572  0.00  0.00    +0.140 A 
ATOM      7  C   UNL     1      -9.951   1.389  -1.702  0.00  0.00    +0.277 A 
ATOM      8  O   UNL     1     -10.440   0.860  -0.718  0.00  0.00    -0.266 OA
ATOM      9  N   UNL     1     -10.488   1.183  -2.920  0.00  0.00    -0.273 N 
ATOM     10  H   UNL     1     -11.292   0.596  -3.013  0.00  0.00    +0.173 HD
ATOM     11  C   UNL     1      -9.954   1.756  -4.013  0.00  0.00    +0.331 A 
ATOM     12  O   UNL     1     -10.455   1.549  -5.101  0.00  0.00    -0.246 OA
BRANCH   5  13
ATOM     13  N   UNL     1      -7.190   3.621  -2.614  0.00  0.00    -0.343 N 
ATOM     14  H   UNL     1      -6.759   3.762  -1.756  0.00  0.00    +0.144 HD
ATOM     15  H   UNL     1      -6.844   4.058  -3.408  0.00  0.00    +0.144 HD
ENDBRANCH   5  13
BRANCH   4  16
ATOM     16  C   UNL     1      -8.319   3.164  -5.136  0.00  0.00    +0.128 C 
BRANCH  16  17
ATOM     17  C   UNL     1      -7.264   2.232  -5.736  0.00  0.00    +0.021 C 
BRANCH  17  19
ATOM     18  C   UNL     1      -5.627   1.937  -7.601  0.00  0.00    +0.004 C 
ATOM     19  C   UNL     1      -6.682   2.868  -7.000  0.00  0.00    -0.002 C 
ENDBRANCH  17  19
ENDBRANCH  16  17
ENDBRANCH   4  16
ENDBRANCH   1   6
BRANCH   1  20
ATOM     20  C   UNL     1      -9.018   3.156   0.731  0.00  0.00    +0.114 C 
BRANCH  20  21
ATOM     21  C   UNL     1      -8.683   4.648   0.699  0.00  0.00    +0.022 C 
BRANCH  21  22
ATOM     22  C   UNL     1      -9.486   5.374   1.781  0.00  0.00    -0.016 C 
ATOM     23  C   UNL     1      -9.037   4.888   3.160  0.00  0.00    +0.007 C 
ATOM     24  C   UNL     1      -9.246   6.881   1.669  0.00  0.00    +0.007 C 
ENDBRANCH  21  22
ENDBRANCH  20  21
ENDBRANCH   1  20
BRANCH   2  25
ATOM     25  C   UNL     1      -6.419   2.192   1.338  0.00  0.00    +0.328 C 
BRANCH  25  26
ATOM     26  O   UNL     1      -5.061   1.677   1.357  0.00  0.00    -0.452 OA
BRANCH  26  27
ATOM     27  C   UNL     1      -4.402   1.733   2.530  0.00  0.00    +0.340 C 
ATOM     28  O   UNL     1      -4.947   2.199   3.511  0.00  0.00    -0.245 OA
BRANCH  27  29
ATOM     29  C   UNL     1      -3.017   1.227   2.625  0.00  0.00    +0.070 A 
ATOM     30  C   UNL     1      -2.413   0.583   1.552  0.00  0.00    +0.038 A 
ATOM     31  C   UNL     1      -1.107   0.115   1.678  0.00  0.00    +0.040 A 
ATOM     32  N   UNL     1      -0.419   0.273   2.781  0.00  0.00    -0.252 NA
ATOM     33  C   UNL     1      -0.932   0.887   3.850  0.00  0.00    +0.072 A 
ATOM     34  C   UNL     1      -2.256   1.390   3.811  0.00  0.00    +0.014 A 
ATOM     35  C   UNL     1      -2.788   2.034   4.935  0.00  0.00    +0.011 A 
ATOM     36  C   UNL     1      -2.026   2.171   6.057  0.00  0.00    +0.001 A 
ATOM     37  C   UNL     1      -0.724   1.678   6.100  0.00  0.00    +0.002 A 
ATOM     38  C   UNL     1      -0.176   1.048   5.026  0.00  0.00    +0.028 A 
ATOM     39  C   UNL     1      -0.466  -0.589   0.510  0.00  0.00    +0.065 C 
ENDBRANCH  27  29
ENDBRANCH  26  27
ENDBRANCH  25  26
ENDBRANCH   2  25
TORSDOF 12
