REMARK  Name = ZINC12462636
REMARK  4 active torsions:
REMARK  status: ('A' for Active; 'I' for Inactive)
REMARK    1  A    between atoms: C_1  and  C_2
REMARK    2  A    between atoms: N_10  and  N_11
REMARK    3  A    between atoms: N_11  and  C_12
REMARK    4  A    between atoms: C_15  and  N_18
REMARK                            x       y       z     vdW  Elec       q    Type
REMARK                         _______ _______ _______ _____ _____    ______ ____
ROOT
ATOM      1  C   UNL     1      -0.018   1.503   0.010  0.00  0.00    +0.045 C 
ATOM      2  C   UNL     1       0.002  -0.004   0.002  0.00  0.00    -0.036 A 
ATOM      3  C   UNL     1       0.006  -0.689  -1.201  0.00  0.00    +0.006 A 
ATOM      4  C   UNL     1       0.024  -2.069  -1.225  0.00  0.00    +0.024 A 
ATOM      5  C   UNL     1       0.039  -2.788  -0.035  0.00  0.00    +0.044 A 
ATOM      6  C   UNL     1       0.035  -2.092   1.181  0.00  0.00    +0.042 A 
ATOM      7  C   UNL     1       0.023  -0.700   1.195  0.00  0.00    +0.032 A 
ATOM      8 BR   UNL     1       0.026   0.233   2.839  0.00  0.00    -0.049 Br
ATOM      9  C   UNL     1       0.054  -3.117   2.250  0.00  0.00    +0.153 C 
ATOM     10  N   UNL     1       0.057  -2.918   3.549  0.00  0.00    -0.177 NA
ATOM     11  C   UNL     1       0.068  -4.407   1.540  0.00  0.00    +0.269 C 
ATOM     12  O   UNL     1       0.085  -5.509   2.058  0.00  0.00    -0.268 OA
ATOM     13  N   UNL     1       0.059  -4.154   0.220  0.00  0.00    -0.280 N 
ATOM     14  H   UNL     1       0.065  -4.838  -0.468  0.00  0.00    +0.155 HD
ENDROOT
BRANCH  10  15
ATOM     15  N   UNL     1       0.074  -3.925   4.355  0.00  0.00    -0.237 N 
ATOM     16  H   UNL     1       0.085  -4.829   4.003  0.00  0.00    +0.174 HD
BRANCH  15  17
ATOM     17  C   UNL     1       0.077  -3.714   5.734  0.00  0.00    +0.048 A 
ATOM     18  C   UNL     1       0.056  -2.420   6.242  0.00  0.00    +0.027 A 
ATOM     19  C   UNL     1       0.058  -2.216   7.607  0.00  0.00    +0.034 A 
ATOM     20  C   UNL     1       0.083  -3.296   8.470  0.00  0.00    +0.126 A 
ATOM     21  C   UNL     1       0.104  -4.585   7.969  0.00  0.00    +0.034 A 
ATOM     22  C   UNL     1       0.095  -4.798   6.605  0.00  0.00    +0.027 A 
BRANCH  20  23
ATOM     23  N   UNL     1       0.086  -3.073   9.933  0.00  0.00    +0.056 N 
ATOM     24  O   UNL     1       0.068  -1.947  10.373  0.00  0.00    -0.126 OA
ATOM     25  O   UNL     1       0.107  -4.016  10.689  0.00  0.00    -0.126 OA
ENDBRANCH  20  23
ENDBRANCH  15  17
ENDBRANCH  10  15
TORSDOF 3
