REMARK  Name = ZINC44857088
REMARK  8 active torsions:
REMARK  status: ('A' for Active; 'I' for Inactive)
REMARK    1  A    between atoms: C_1  and  C_2
REMARK    2  A    between atoms: C_2  and  C_4
REMARK    3  A    between atoms: C_2  and  N_14
REMARK    4  A    between atoms: C_7  and  S_10
REMARK    5  A    between atoms: S_10  and  C_13
REMARK    6  A    between atoms: C_15  and  C_17
REMARK    7  A    between atoms: N_22  and  C_24
REMARK    8  A    between atoms: C_24  and  C_25
REMARK                            x       y       z     vdW  Elec       q    Type
REMARK                         _______ _______ _______ _____ _____    ______ ____
ROOT
ATOM      1  N   UNL     1      -1.372  -0.511   0.012  0.00  0.00    -0.309 N 
ATOM      2  C   UNL     1      -2.029  -0.655   1.181  0.00  0.00    +0.215 C 
ATOM      3  O   UNL     1      -1.481  -0.365   2.224  0.00  0.00    -0.276 OA
ATOM      4  H   UNL     1      -1.810  -0.743  -0.822  0.00  0.00    +0.149 HD
ENDROOT
BRANCH   2   5
ATOM      5  C   UNL     1      -3.442  -1.177   1.191  0.00  0.00    +0.058 C 
ATOM      6  C   UNL     1      -3.475  -2.579   0.576  0.00  0.00    +0.009 C 
ATOM      7  C   UNL     1      -4.901  -3.131   0.663  0.00  0.00    -0.018 C 
ATOM      8  C   UNL     1      -5.355  -3.128   2.124  0.00  0.00    -0.078 C 
ATOM      9  N   UNL     1      -5.327  -1.757   2.647  0.00  0.00    +0.383 N 
ATOM     10  C   UNL     1      -3.951  -1.246   2.633  0.00  0.00    -0.066 C 
ATOM     11  H   UNL     1      -5.909  -1.167   2.071  0.00  0.00    -0.081 HD
BRANCH   9  12
ATOM     12  C   UNL     1      -5.837  -1.748   4.024  0.00  0.00    -0.043 C 
BRANCH  12  13
ATOM     13  C   UNL     1      -7.290  -2.146   4.024  0.00  0.00    -0.062 A 
ATOM     14  C   UNL     1      -8.271  -1.180   3.895  0.00  0.00    +0.003 A 
ATOM     15  C   UNL     1      -9.604  -1.543   3.895  0.00  0.00    +0.021 A 
ATOM     16  C   UNL     1      -9.959  -2.874   4.024  0.00  0.00    +0.059 A 
ATOM     17  C   UNL     1      -8.977  -3.842   4.152  0.00  0.00    +0.059 A 
ATOM     18  C   UNL     1      -7.643  -3.477   4.147  0.00  0.00    +0.023 A 
ATOM     19 CL   UNL     1      -9.420  -5.513   4.315  0.00  0.00    -0.082 Cl
ATOM     20 CL   UNL     1     -11.634  -3.331   4.024  0.00  0.00    -0.082 Cl
ENDBRANCH  12  13
ENDBRANCH   9  12
ENDBRANCH   2   5
BRANCH   1  22
ATOM     21  C   UNL     1      -0.019   1.526   0.010  0.00  0.00    +0.033 C 
ATOM     22  C   UNL     1       0.002  -0.004   0.002  0.00  0.00    +0.100 C 
BRANCH  22  23
ATOM     23  C   UNL     1       0.707  -0.490  -1.238  0.00  0.00    -0.027 A 
ATOM     24  C   UNL     1       0.038  -0.522  -2.447  0.00  0.00    +0.007 A 
ATOM     25  C   UNL     1       0.685  -0.967  -3.584  0.00  0.00    +0.027 A 
ATOM     26  C   UNL     1       2.002  -1.381  -3.513  0.00  0.00    +0.088 A 
ATOM     27  C   UNL     1       2.672  -1.349  -2.304  0.00  0.00    +0.027 A 
ATOM     28  C   UNL     1       2.026  -0.899  -1.167  0.00  0.00    +0.007 A 
BRANCH  26  29
ATOM     29  S   UNL     1       2.826  -1.951  -4.962  0.00  0.00    -0.006 S 
ATOM     30  O   UNL     1       3.837  -2.827  -4.484  0.00  0.00    -0.170 OA
ATOM     31  O   UNL     1       1.788  -2.434  -5.803  0.00  0.00    -0.170 OA
ATOM     32  C   UNL     1       3.576  -0.466  -5.685  0.00  0.00    +0.200 C 
ENDBRANCH  26  29
ENDBRANCH  22  23
ENDBRANCH   1  22
TORSDOF 6
