REMARK  Name = ZINC39711534
REMARK  11 active torsions:
REMARK  status: ('A' for Active; 'I' for Inactive)
REMARK    1  A    between atoms: C_1  and  C_2
REMARK    2  A    between atoms: C_2  and  O_3
REMARK    3  A    between atoms: O_3  and  C_4
REMARK    4  A    between atoms: C_11  and  C_16
REMARK    5  A    between atoms: C_16  and  C_18
REMARK    6  A    between atoms: C_16  and  N_29
REMARK    7  A    between atoms: N_23  and  C_24
REMARK    8  A    between atoms: N_29  and  C_30
REMARK    9  A    between atoms: N_29  and  C_37
REMARK   10  A    between atoms: C_30  and  C_31
REMARK   11  A    between atoms: C_37  and  C_38
REMARK                            x       y       z     vdW  Elec       q    Type
REMARK                         _______ _______ _______ _____ _____    ______ ____
ROOT
ATOM      1  C   UNL     1       2.031  -7.129   5.105  0.00  0.00    -0.008 C 
ENDROOT
BRANCH   1   9
ATOM      2  C   UNL     1       5.768  -6.547   0.658  0.00  0.00    +0.121 A 
ATOM      3  C   UNL     1       6.815  -7.100   1.405  0.00  0.00    +0.047 A 
ATOM      4  C   UNL     1       6.734  -7.294   2.746  0.00  0.00    +0.027 A 
ATOM      5  C   UNL     1       5.569  -6.939   3.451  0.00  0.00    +0.041 A 
ATOM      6  N   UNL     1       5.503  -7.135   4.768  0.00  0.00    -0.285 N 
ATOM      7  C   UNL     1       4.440  -6.825   5.492  0.00  0.00    +0.223 C 
ATOM      8  O   UNL     1       4.439  -7.027   6.692  0.00  0.00    -0.275 OA
ATOM      9  C   UNL     1       3.228  -6.218   4.823  0.00  0.00    +0.088 C 
ATOM     10  C   UNL     1       3.298  -5.993   3.325  0.00  0.00    -0.006 C 
ATOM     11  C   UNL     1       4.449  -6.354   2.692  0.00  0.00    -0.004 A 
ATOM     12  C   UNL     1       4.602  -6.166   1.249  0.00  0.00    +0.055 A 
ATOM     13  H   UNL     1       6.270  -7.524   5.216  0.00  0.00    +0.155 HD
BRANCH   2  14
ATOM     14  O   UNL     1       5.921  -6.382  -0.683  0.00  0.00    -0.492 OA
BRANCH  14  16
ATOM     15  C   UNL     1       7.149  -6.537  -2.758  0.00  0.00    +0.048 C 
ATOM     16  C   UNL     1       7.164  -6.799  -1.251  0.00  0.00    +0.225 C 
ENDBRANCH  14  16
ENDBRANCH   2  14
ENDBRANCH   1   9
BRANCH   1  17
ATOM     17  C   UNL     1       1.359  -6.699   6.410  0.00  0.00    +0.205 C 
ATOM     18  N   UNL     1       0.287  -7.638   6.769  0.00  0.00    -0.152 NA
ATOM     19  N   UNL     1      -0.784  -7.028   6.796  0.00  0.00    -0.070 NA
ATOM     20  N   UNL     1      -0.647  -5.676   6.486  0.00  0.00    -0.179 N 
ATOM     21  N   UNL     1       0.674  -5.401   6.234  0.00  0.00    -0.185 NA
ATOM     22  H   UNL     1      -1.371  -5.031   6.454  0.00  0.00    +0.191 HD
BRANCH  21  23
ATOM     23  C   UNL     1       0.856  -4.890   4.869  0.00  0.00    +0.080 C 
ATOM     24  C   UNL     1       0.415  -3.414   4.793  0.00  0.00    +0.021 C 
ATOM     25  C   UNL     1      -0.253  -3.288   3.401  0.00  0.00    +0.002 C 
ATOM     26  C   UNL     1      -0.998  -4.638   3.256  0.00  0.00    +0.002 C 
ATOM     27  C   UNL     1      -0.042  -5.668   3.892  0.00  0.00    +0.021 C 
ENDBRANCH  21  23
ENDBRANCH   1  17
BRANCH   1  28
ATOM     28  N   UNL     1       2.491  -8.519   5.226  0.00  0.00    +0.392 N 
ATOM     29  H   UNL     1       3.322  -8.549   5.798  0.00  0.00    -0.080 HD
BRANCH  28  30
ATOM     30  C   UNL     1       2.795  -9.052   3.892  0.00  0.00    -0.040 C 
BRANCH  30  31
ATOM     31  C   UNL     1       1.578  -8.929   3.012  0.00  0.00    -0.046 A 
ATOM     32  C   UNL     1       0.420  -9.631   3.313  0.00  0.00    +0.005 A 
ATOM     33  C   UNL     1      -0.675  -9.487   2.475  0.00  0.00    +0.020 A 
ATOM     34  C   UNL     1      -0.578  -8.654   1.377  0.00  0.00    +0.111 A 
ATOM     35  N   UNL     1       0.539  -8.002   1.121  0.00  0.00    -0.263 NA
ATOM     36  C   UNL     1       1.599  -8.110   1.899  0.00  0.00    +0.112 A 
ENDBRANCH  30  31
ENDBRANCH  28  30
BRANCH  28  37
ATOM     37  C   UNL     1       1.438  -9.331   5.850  0.00  0.00    -0.002 C 
BRANCH  37  38
ATOM     38  C   UNL     1       1.858 -10.778   5.859  0.00  0.00    +0.089 A 
ATOM     39  C   UNL     1       2.437 -11.423   6.888  0.00  0.00    +0.042 A 
ATOM     40  C   UNL     1       2.659 -12.753   6.464  0.00  0.00    +0.041 A 
ATOM     41  C   UNL     1       2.203 -12.842   5.202  0.00  0.00    +0.195 A 
ATOM     42  O   UNL     1       1.714 -11.644   4.842  0.00  0.00    -0.470 OA
ENDBRANCH  37  38
ENDBRANCH  28  37
ENDBRANCH   1  28
TORSDOF 10
