REMARK  Name = ZINC39655689
REMARK  10 active torsions:
REMARK  status: ('A' for Active; 'I' for Inactive)
REMARK    1  A    between atoms: C_1  and  C_2
REMARK    2  A    between atoms: C_2  and  C_3
REMARK    3  A    between atoms: C_2  and  C_4
REMARK    4  A    between atoms: C_4  and  C_6
REMARK    5  A    between atoms: C_4  and  N_21
REMARK    6  A    between atoms: C_6  and  O_8
REMARK    7  A    between atoms: O_8  and  C_9
REMARK    8  A    between atoms: C_9  and  C_10
REMARK    9  A    between atoms: N_12  and  C_13
REMARK   10  A    between atoms: C_13  and  C_19
REMARK                            x       y       z     vdW  Elec       q    Type
REMARK                         _______ _______ _______ _____ _____    ______ ____
ROOT
ATOM      1  C   UNL     1      -2.719  -0.038   0.504  0.00  0.00    +0.329 C 
ATOM      2  O   UNL     1      -3.405  -0.817   1.122  0.00  0.00    -0.249 OA
ENDROOT
BRANCH   1   3
ATOM      3  C   UNL     1      -1.618  -0.548  -0.391  0.00  0.00    +0.196 C 
BRANCH   3   4
ATOM      4  N   UNL     1      -1.585  -2.012  -0.338  0.00  0.00    -0.220 N 
ATOM      5  C   UNL     1      -1.779  -2.816  -1.398  0.00  0.00    +0.255 C 
ATOM      6  O   UNL     1      -2.006  -2.450  -2.533  0.00  0.00    -0.270 OA
ATOM      7  C   UNL     1      -1.668  -4.221  -0.950  0.00  0.00    +0.049 A 
ATOM      8  C   UNL     1      -1.772  -5.449  -1.583  0.00  0.00    +0.014 A 
ATOM      9  C   UNL     1      -1.610  -6.615  -0.851  0.00  0.00    +0.001 A 
ATOM     10  C   UNL     1      -1.346  -6.560   0.505  0.00  0.00    +0.001 A 
ATOM     11  C   UNL     1      -1.240  -5.338   1.151  0.00  0.00    +0.014 A 
ATOM     12  C   UNL     1      -1.399  -4.164   0.432  0.00  0.00    +0.049 A 
ATOM     13  C   UNL     1      -1.350  -2.728   0.777  0.00  0.00    +0.255 C 
ATOM     14  O   UNL     1      -1.136  -2.271   1.881  0.00  0.00    -0.270 OA
ENDBRANCH   3   4
BRANCH   3  16
ATOM     15  C   UNL     1       0.855  -0.606  -0.743  0.00  0.00    +0.009 C 
ATOM     16  C   UNL     1      -0.275   0.010   0.084  0.00  0.00    +0.015 C 
ATOM     17  C   UNL     1      -0.264   1.530  -0.090  0.00  0.00    +0.009 C 
ENDBRANCH   3  16
ENDBRANCH   1   3
BRANCH   1  18
ATOM     18  O   UNL     1      -2.937   1.282   0.614  0.00  0.00    -0.454 OA
BRANCH  18  19
ATOM     19  C   UNL     1      -3.996   1.695   1.479  0.00  0.00    +0.327 C 
BRANCH  19  20
ATOM     20  C   UNL     1      -4.091   3.199   1.476  0.00  0.00    +0.252 C 
ATOM     21  O   UNL     1      -3.326   3.853   0.798  0.00  0.00    -0.272 OA
ATOM     22  N   UNL     1      -5.025   3.817   2.225  0.00  0.00    -0.295 N 
ATOM     23  H   UNL     1      -5.637   3.294   2.766  0.00  0.00    +0.150 HD
BRANCH  22  24
ATOM     24  C   UNL     1      -5.117   5.279   2.221  0.00  0.00    +0.121 C 
ATOM     25  C   UNL     1      -5.400   5.769   0.799  0.00  0.00    +0.041 C 
ATOM     26  C   UNL     1      -5.496   7.296   0.796  0.00  0.00    +0.003 C 
ATOM     27  C   UNL     1      -6.631   7.737   1.722  0.00  0.00    +0.000 C 
ATOM     28  C   UNL     1      -6.348   7.248   3.144  0.00  0.00    +0.003 C 
ATOM     29  C   UNL     1      -6.252   5.721   3.148  0.00  0.00    +0.041 C 
BRANCH  24  30
ATOM     30  C   UNL     1      -3.846   5.852   2.694  0.00  0.00    +0.088 C 
ATOM     31  N   UNL     1      -2.866   6.294   3.058  0.00  0.00    -0.194 NA
ENDBRANCH  24  30
ENDBRANCH  22  24
ENDBRANCH  19  20
ENDBRANCH  18  19
ENDBRANCH   1  18
TORSDOF 8
