REMARK  Name = ZINC33118513
REMARK  8 active torsions:
REMARK  status: ('A' for Active; 'I' for Inactive)
REMARK    1  A    between atoms: C_1  and  C_2
REMARK    2  A    between atoms: C_2  and  C_4
REMARK    3  A    between atoms: C_2  and  N_15
REMARK    4  A    between atoms: C_16  and  C_18
REMARK    5  A    between atoms: C_19  and  C_20
REMARK    6  A    between atoms: N_22  and  C_30
REMARK    7  A    between atoms: C_24  and  C_25
REMARK    8  A    between atoms: C_30  and  C_31
REMARK                            x       y       z     vdW  Elec       q    Type
REMARK                         _______ _______ _______ _____ _____    ______ ____
ROOT
ATOM      1  C   UNL     1       6.318   1.621  -3.838  0.00  0.00    +0.068 C 
ATOM      2  C   UNL     1       5.182   0.993  -4.219  0.00  0.00    +0.016 C 
ENDROOT
BRANCH   2   3
ATOM      3  C   UNL     1       4.095   0.794  -3.255  0.00  0.00    +0.021 A 
ATOM      4  C   UNL     1       4.080   1.188  -1.929  0.00  0.00    +0.117 A 
ATOM      5  N   UNL     1       2.903   0.816  -1.402  0.00  0.00    -0.266 N 
ATOM      6  N   UNL     1       2.134   0.170  -2.373  0.00  0.00    -0.170 NA
ATOM      7  C   UNL     1       2.806   0.137  -3.504  0.00  0.00    +0.106 A 
BRANCH   7   8
ATOM      8  C   UNL     1       2.352  -0.453  -4.779  0.00  0.00    +0.040 A 
ATOM      9  C   UNL     1       1.575  -1.561  -4.990  0.00  0.00    +0.018 A 
ATOM     10  C   UNL     1       1.277  -1.924  -6.285  0.00  0.00    +0.008 A 
ATOM     11  C   UNL     1       1.760  -1.176  -7.310  0.00  0.00    +0.046 A 
ATOM     12  S   UNL     1       2.666   0.098  -6.448  0.00  0.00    -0.095 S 
ENDBRANCH   7   8
BRANCH   5  13
ATOM     13  C   UNL     1       2.490   1.048  -0.016  0.00  0.00    +0.178 C 
BRANCH  13  14
ATOM     14  C   UNL     1       1.175   1.783   0.000  0.00  0.00    -0.026 A 
ATOM     15  C   UNL     1      -0.013   1.076   0.008  0.00  0.00    +0.005 A 
ATOM     16  C   UNL     1      -1.219   1.751   0.017  0.00  0.00    +0.000 A 
ATOM     17  C   UNL     1      -1.238   3.133   0.029  0.00  0.00    +0.000 A 
ATOM     18  C   UNL     1      -0.050   3.840   0.022  0.00  0.00    +0.000 A 
ATOM     19  C   UNL     1       1.156   3.165   0.008  0.00  0.00    +0.005 A 
ENDBRANCH  13  14
ENDBRANCH   5  13
ENDBRANCH   2   3
BRANCH   1  21
ATOM     20  N   UNL     1       8.500   2.438  -4.390  0.00  0.00    -0.305 N 
ATOM     21  C   UNL     1       7.368   1.812  -4.770  0.00  0.00    +0.237 C 
ATOM     22  O   UNL     1       7.248   1.412  -5.914  0.00  0.00    -0.271 OA
ATOM     23  H   UNL     1       8.609   2.799  -3.357  0.00  0.00    +0.150 HD
BRANCH  20  25
ATOM     24  C   UNL     1      10.465   1.385  -5.395  0.00  0.00    +0.033 C 
ATOM     25  C   UNL     1       9.586   2.636  -5.353  0.00  0.00    +0.100 C 
BRANCH  25  26
ATOM     26  C   UNL     1      10.418   3.821  -4.936  0.00  0.00    -0.025 A 
ATOM     27  C   UNL     1      10.709   4.022  -3.599  0.00  0.00    +0.009 A 
ATOM     28  C   UNL     1      11.473   5.107  -3.207  0.00  0.00    +0.048 A 
ATOM     29  C   UNL     1      11.947   5.994  -4.157  0.00  0.00    +0.142 A 
ATOM     30  C   UNL     1      11.653   5.793  -5.504  0.00  0.00    +0.076 A 
ATOM     31  C   UNL     1      10.893   4.701  -5.891  0.00  0.00    +0.032 A 
ATOM     32  N   UNL     1      12.139   6.701  -6.455  0.00  0.00    -0.280 N 
ATOM     33  C   UNL     1      13.125   7.554  -6.102  0.00  0.00    +0.255 C 
ATOM     34  O   UNL     1      13.541   8.368  -6.900  0.00  0.00    -0.272 OA
ATOM     35  C   UNL     1      13.708   7.489  -4.713  0.00  0.00    +0.325 C 
ATOM     36  O   UNL     1      12.702   7.065  -3.790  0.00  0.00    -0.481 OA
ATOM     37  H   UNL     1      11.718   6.711  -7.471  0.00  0.00    +0.155 HD
ENDBRANCH  25  26
ENDBRANCH  20  25
ENDBRANCH   1  21
TORSDOF 7
