REMARK  Name = ZINC00664329
REMARK  6 active torsions:
REMARK  status: ('A' for Active; 'I' for Inactive)
REMARK    1  A    between atoms: C_5  and  C_7
REMARK    2  A    between atoms: C_7  and  O_8
REMARK    3  A    between atoms: O_8  and  C_9
REMARK    4  A    between atoms: C_12  and  C_15
REMARK    5  A    between atoms: C_24  and  N_28
REMARK    6  A    between atoms: C_25  and  C_26
REMARK                            x       y       z     vdW  Elec       q    Type
REMARK                         _______ _______ _______ _____ _____    ______ ____
ROOT
ATOM      1  C   UNL     1       2.483   1.030  -0.015  0.00  0.00    +0.098 C 
ATOM      2  C   UNL     1       1.178   1.782   0.000  0.00  0.00    +0.011 A 
ATOM      3  C   UNL     1      -0.013   1.076   0.008  0.00  0.00    +0.057 A 
ATOM      4  C   UNL     1      -1.222   1.749   0.017  0.00  0.00    +0.167 A 
ATOM      5  C   UNL     1      -1.240   3.142   0.032  0.00  0.00    +0.170 A 
ATOM      6  C   UNL     1      -0.049   3.846   0.024  0.00  0.00    +0.096 A 
ATOM      7  C   UNL     1       1.163   3.167   0.008  0.00  0.00    +0.138 A 
ATOM      8  O   UNL     1       2.320   3.875  -0.002  0.00  0.00    -0.441 OA
ATOM      9  C   UNL     1       3.462   3.289  -0.399  0.00  0.00    +0.199 C 
ATOM     10  C   UNL     1       3.604   1.942  -0.427  0.00  0.00    +0.098 C 
ATOM     11  O   UNL     1      -2.539   3.561   0.048  0.00  0.00    -0.452 OA
ATOM     12  C   UNL     1      -3.308   2.416   0.461  0.00  0.00    +0.466 C 
ATOM     13  O   UNL     1      -2.511   1.296   0.034  0.00  0.00    -0.453 OA
ENDROOT
BRANCH   1  17
ATOM     14  C   UNL     1       3.277  -0.508   3.893  0.00  0.00    +0.121 A 
ATOM     15  C   UNL     1       3.153  -1.375   2.817  0.00  0.00    +0.046 A 
ATOM     16  C   UNL     1       2.896  -0.875   1.555  0.00  0.00    +0.008 A 
ATOM     17  C   UNL     1       2.763   0.488   1.363  0.00  0.00    -0.034 A 
ATOM     18  C   UNL     1       2.891   1.354   2.433  0.00  0.00    +0.008 A 
ATOM     19  C   UNL     1       3.142   0.859   3.698  0.00  0.00    +0.046 A 
BRANCH  14  20
ATOM     20  O   UNL     1       3.530  -0.997   5.135  0.00  0.00    -0.487 OA
BRANCH  20  21
ATOM     21  C   UNL     1       3.644  -0.046   6.196  0.00  0.00    +0.267 C 
BRANCH  21  26
ATOM     22  C   UNL     1       4.285  -2.807   8.690  0.00  0.00    +0.001 A 
ATOM     23  C   UNL     1       4.436  -2.091   9.863  0.00  0.00    +0.003 A 
ATOM     24  C   UNL     1       4.332  -0.713   9.851  0.00  0.00    +0.039 A 
ATOM     25  C   UNL     1       4.076  -0.049   8.663  0.00  0.00    +0.130 A 
ATOM     26  C   UNL     1       3.924  -0.767   7.489  0.00  0.00    +0.025 A 
ATOM     27  C   UNL     1       4.023  -2.145   7.505  0.00  0.00    +0.010 A 
ATOM     28  F   UNL     1       3.973   1.298   8.650  0.00  0.00    -0.205 F 
ENDBRANCH  21  26
ENDBRANCH  20  21
ENDBRANCH  14  20
ENDBRANCH   1  17
BRANCH   9  29
ATOM     29  N   UNL     1       4.516   4.078  -0.786  0.00  0.00    -0.328 N 
ATOM     30  H   UNL     1       5.347   3.670  -1.075  0.00  0.00    +0.145 HD
ATOM     31  H   UNL     1       4.430   5.044  -0.771  0.00  0.00    +0.145 HD
ENDBRANCH   9  29
BRANCH  10  32
ATOM     32  C   UNL     1       4.846   1.377  -0.861  0.00  0.00    +0.101 C 
ATOM     33  N   UNL     1       5.831   0.928  -1.204  0.00  0.00    -0.191 NA
ENDBRANCH  10  32
TORSDOF 6
