REMARK  Name = ZINC65081029
REMARK  6 active torsions:
REMARK  status: ('A' for Active; 'I' for Inactive)
REMARK    1  A    between atoms: C_1  and  C_2
REMARK    2  A    between atoms: C_5  and  N_8
REMARK    3  A    between atoms: C_11  and  C_13
REMARK    4  A    between atoms: C_21  and  C_24
REMARK    5  A    between atoms: N_26  and  C_27
REMARK    6  A    between atoms: C_27  and  C_28
REMARK                            x       y       z     vdW  Elec       q    Type
REMARK                         _______ _______ _______ _____ _____    ______ ____
ROOT
ATOM      1  N   UNL     1       0.057  -4.171  -0.021  0.00  0.00    -0.213 N 
ATOM      2  C   UNL     1       0.714  -4.978   0.898  0.00  0.00    +0.173 A 
ATOM      3  C   UNL     1       0.442  -6.283   0.478  0.00  0.00    +0.082 A 
ATOM      4  C   UNL     1      -0.352  -6.243  -0.655  0.00  0.00    +0.076 A 
ATOM      5  N   UNL     1      -0.588  -4.990  -0.951  0.00  0.00    -0.169 NA
ATOM      6  C   UNL     1      -0.864  -7.439  -1.416  0.00  0.00    +0.069 C 
ATOM      7  S   UNL     1       1.307  -7.252   1.690  0.00  0.00    -0.049 S 
ATOM      8  C   UNL     1       1.954  -5.886   2.645  0.00  0.00    +0.164 A 
ATOM      9  N   UNL     1       1.477  -4.847   1.990  0.00  0.00    -0.205 NA
ATOM     10  N   UNL     1       2.747  -5.913   3.777  0.00  0.00    -0.309 N 
ATOM     11  C   UNL     1       3.171  -4.664   4.424  0.00  0.00    +0.107 C 
ATOM     12  C   UNL     1       2.783  -4.720   5.905  0.00  0.00    +0.020 C 
ATOM     13  C   UNL     1       3.371  -5.985   6.535  0.00  0.00    +0.016 C 
ATOM     14  C   UNL     1       2.794  -7.219   5.838  0.00  0.00    +0.092 C 
ATOM     15  C   UNL     1       3.176  -7.192   4.359  0.00  0.00    +0.119 C 
ENDROOT
BRANCH   1  20
ATOM     16  C   UNL     1      -0.018   1.503   0.010  0.00  0.00    +0.044 C 
ATOM     17  C   UNL     1       0.002  -0.004   0.002  0.00  0.00    -0.050 A 
ATOM     18  C   UNL     1       0.006  -0.687  -1.200  0.00  0.00    +0.005 A 
ATOM     19  C   UNL     1       0.024  -2.068  -1.211  0.00  0.00    +0.028 A 
ATOM     20  C   UNL     1       0.039  -2.771  -0.013  0.00  0.00    +0.068 A 
ATOM     21  C   UNL     1       0.036  -2.081   1.192  0.00  0.00    +0.028 A 
ATOM     22  C   UNL     1       0.023  -0.700   1.197  0.00  0.00    +0.005 A 
ENDBRANCH   1  20
BRANCH  14  23
ATOM     23  C   UNL     1       3.348  -8.464   6.480  0.00  0.00    +0.218 C 
ATOM     24  O   UNL     1       4.128  -8.374   7.405  0.00  0.00    -0.275 OA
ATOM     25  N   UNL     1       2.977  -9.678   6.028  0.00  0.00    -0.311 N 
ATOM     26  H   UNL     1       2.353  -9.750   5.288  0.00  0.00    +0.149 HD
BRANCH  25  27
ATOM     27  C   UNL     1       3.515 -10.889   6.652  0.00  0.00    +0.139 C 
BRANCH  27  28
ATOM     28  C   UNL     1       2.946 -12.104   5.966  0.00  0.00    -0.028 A 
ATOM     29  C   UNL     1       1.767 -12.666   6.420  0.00  0.00    +0.005 A 
ATOM     30  C   UNL     1       1.245 -13.781   5.792  0.00  0.00    +0.003 A 
ATOM     31  C   UNL     1       1.900 -14.335   4.708  0.00  0.00    +0.038 A 
ATOM     32  C   UNL     1       3.080 -13.773   4.252  0.00  0.00    +0.124 A 
ATOM     33  C   UNL     1       3.600 -12.653   4.879  0.00  0.00    +0.043 A 
ATOM     34  F   UNL     1       3.722 -14.314   3.194  0.00  0.00    -0.205 F 
ENDBRANCH  27  28
ENDBRANCH  25  27
ENDBRANCH  14  23
TORSDOF 4
