REMARK  Name = ZINC15070629
REMARK  7 active torsions:
REMARK  status: ('A' for Active; 'I' for Inactive)
REMARK    1  A    between atoms: C_1  and  N_2
REMARK    2  A    between atoms: N_2  and  C_3
REMARK    3  A    between atoms: C_3  and  C_5
REMARK    4  A    between atoms: C_3  and  C_12
REMARK    5  A    between atoms: C_5  and  C_6
REMARK    6  A    between atoms: C_17  and  N_64
REMARK    7  A    between atoms: C_26  and  C_28
REMARK                            x       y       z     vdW  Elec       q    Type
REMARK                         _______ _______ _______ _____ _____    ______ ____
ROOT
ATOM      1  C   UNL     1      -2.574   6.743   0.176  0.00  0.00    +0.083 C 
ENDROOT
BRANCH   1   2
ATOM      2  C   UNL     1      -2.477   7.697   1.369  0.00  0.00    +0.006 C 
ATOM      3  C   UNL     1      -1.233   8.577   1.220  0.00  0.00    -0.013 C 
ATOM      4  C   UNL     1      -1.108   9.486   2.445  0.00  0.00    -0.078 C 
ATOM      5  C   UNL     1      -2.209   7.846   3.847  0.00  0.00    -0.078 C 
ATOM      6  C   UNL     1      -2.368   6.888   2.664  0.00  0.00    -0.013 C 
ATOM      7  N   UNL     1      -0.982   8.647   3.655  0.00  0.00    +0.382 N 
ATOM      8  H   UNL     1      -0.184   8.011   3.537  0.00  0.00    -0.081 HD
BRANCH   7   9
ATOM      9  C   UNL     1      -0.745   9.499   4.838  0.00  0.00    -0.060 C 
ATOM     10  C   UNL     1       0.547  10.323   4.654  0.00  0.00    +0.020 C 
ATOM     11  C   UNL     1       1.175  10.382   6.033  0.00  0.00    -0.046 A 
ATOM     12  C   UNL     1       2.152  11.225   6.537  0.00  0.00    +0.004 A 
ATOM     13  C   UNL     1       2.574  11.095   7.846  0.00  0.00    +0.000 A 
ATOM     14  C   UNL     1       2.021  10.121   8.656  0.00  0.00    +0.000 A 
ATOM     15  C   UNL     1       1.047   9.280   8.155  0.00  0.00    +0.004 A 
ATOM     16  C   UNL     1       0.622   9.408   6.843  0.00  0.00    -0.046 A 
ATOM     17  C   UNL     1      -0.414   8.624   6.066  0.00  0.00    +0.020 C 
ENDBRANCH   7   9
ENDBRANCH   1   2
BRANCH   1  19
ATOM     18  C   UNL     1      -3.538   8.584  -1.279  0.00  0.00    +0.132 C 
ATOM     19  N   UNL     1      -2.559   7.515  -1.069  0.00  0.00    -0.297 N 
ATOM     20  C   UNL     1      -1.645   7.242  -2.020  0.00  0.00    +0.247 C 
ATOM     21  O   UNL     1      -0.878   6.308  -1.877  0.00  0.00    -0.270 OA
BRANCH  20  22
ATOM     22  C   UNL     1      -1.574   8.072  -3.233  0.00  0.00    +0.044 A 
ATOM     23  C   UNL     1      -0.317   8.353  -3.881  0.00  0.00    +0.020 A 
ATOM     24  C   UNL     1      -0.355   9.127  -4.983  0.00  0.00    +0.046 A 
ATOM     25  S   UNL     1      -2.091   9.478  -5.170  0.00  0.00    -0.104 S 
ATOM     26  C   UNL     1      -2.708   8.612  -3.804  0.00  0.00    +0.058 A 
ENDBRANCH  20  22
ENDBRANCH   1  19
BRANCH   1  27
ATOM     27  C   UNL     1      -3.877   5.946   0.266  0.00  0.00    +0.058 C 
BRANCH  27  28
ATOM     28  C   UNL     1      -3.915   4.921  -0.838  0.00  0.00    -0.046 A 
ATOM     29  C   UNL     1      -4.474   5.244  -2.061  0.00  0.00    +0.004 A 
ATOM     30  C   UNL     1      -4.505   4.305  -3.075  0.00  0.00    +0.000 A 
ATOM     31  C   UNL     1      -3.987   3.042  -2.865  0.00  0.00    +0.000 A 
ATOM     32  C   UNL     1      -3.433   2.717  -1.640  0.00  0.00    +0.000 A 
ATOM     33  C   UNL     1      -3.397   3.657  -0.627  0.00  0.00    +0.004 A 
ENDBRANCH  27  28
ENDBRANCH   1  27
TORSDOF 6
