REMARK  Name = ZINC13453679
REMARK  10 active torsions:
REMARK  status: ('A' for Active; 'I' for Inactive)
REMARK    1  A    between atoms: C_1  and  C_2
REMARK    2  A    between atoms: C_2  and  C_3
REMARK    3  A    between atoms: C_3  and  C_4
REMARK    4  A    between atoms: C_9  and  S_13
REMARK    5  A    between atoms: C_11  and  O_12
REMARK    6  A    between atoms: S_13  and  C_14
REMARK    7  A    between atoms: C_14  and  C_15
REMARK    8  A    between atoms: N_17  and  C_18
REMARK    9  A    between atoms: C_18  and  C_20
REMARK   10  A    between atoms: C_18  and  C_21
REMARK                            x       y       z     vdW  Elec       q    Type
REMARK                         _______ _______ _______ _____ _____    ______ ____
ROOT
ATOM      1  S   UNL     1      -0.860   1.669   1.497  0.00  0.00    -0.078 S 
ENDROOT
BRANCH   1   7
ATOM      2  C   UNL     1       1.771  -0.134   4.628  0.00  0.00    +0.078 A 
ATOM      3  C   UNL     1       0.661   0.629   5.009  0.00  0.00    +0.259 A 
ATOM      4  O   UNL     1       0.405   0.807   6.190  0.00  0.00    -0.267 OA
ATOM      5  N   UNL     1      -0.118   1.170   4.049  0.00  0.00    -0.302 N 
ATOM      6  H   UNL     1      -0.889   1.705   4.295  0.00  0.00    +0.171 HD
ATOM      7  C   UNL     1       0.174   0.961   2.735  0.00  0.00    +0.173 A 
ATOM      8  N   UNL     1       1.218   0.243   2.372  0.00  0.00    -0.189 NA
ATOM      9  C   UNL     1       2.027  -0.311   3.279  0.00  0.00    +0.223 A 
BRANCH   9  10
ATOM     10  O   UNL     1       3.093  -1.043   2.881  0.00  0.00    -0.492 OA
ATOM     11  H   UNL     1       3.188  -1.110   1.921  0.00  0.00    +0.294 HD
ENDBRANCH   9  10
BRANCH   2  12
ATOM     12  C   UNL     1       2.671  -0.751   5.668  0.00  0.00    +0.046 C 
BRANCH  12  14
ATOM     13  C   UNL     1       4.632  -0.354   7.164  0.00  0.00    +0.004 C 
ATOM     14  C   UNL     1       3.718   0.273   6.109  0.00  0.00    +0.002 C 
ENDBRANCH  12  14
ENDBRANCH   2  12
ENDBRANCH   1   7
BRANCH   1  15
ATOM     15  C   UNL     1      -0.013   1.086   0.008  0.00  0.00    +0.173 C 
BRANCH  15  16
ATOM     16  C   UNL     1      -0.742   1.585  -1.213  0.00  0.00    +0.224 C 
ATOM     17  O   UNL     1      -1.736   2.268  -1.088  0.00  0.00    -0.275 OA
ATOM     18  N   UNL     1      -0.288   1.272  -2.443  0.00  0.00    -0.308 N 
ATOM     19  H   UNL     1       0.507   0.726  -2.543  0.00  0.00    +0.149 HD
BRANCH  18  20
ATOM     20  C   UNL     1      -0.997   1.758  -3.630  0.00  0.00    +0.100 C 
ATOM     21  C   UNL     1      -0.514   3.169  -3.971  0.00  0.00    +0.033 C 
BRANCH  20  22
ATOM     22  C   UNL     1      -0.721   0.838  -4.791  0.00  0.00    -0.027 A 
ATOM     23  C   UNL     1       0.550   0.326  -4.980  0.00  0.00    +0.005 A 
ATOM     24  C   UNL     1       0.802  -0.521  -6.043  0.00  0.00    +0.000 A 
ATOM     25  C   UNL     1      -0.213  -0.849  -6.922  0.00  0.00    +0.000 A 
ATOM     26  C   UNL     1      -1.482  -0.333  -6.736  0.00  0.00    +0.000 A 
ATOM     27  C   UNL     1      -1.736   0.510  -5.671  0.00  0.00    +0.005 A 
ENDBRANCH  20  22
ENDBRANCH  18  20
ENDBRANCH  15  16
ENDBRANCH   1  15
TORSDOF 8
