REMARK  Name = ZINC32346315
REMARK  8 active torsions:
REMARK  status: ('A' for Active; 'I' for Inactive)
REMARK    1  A    between atoms: C_1  and  C_2
REMARK    2  A    between atoms: C_2  and  C_4
REMARK    3  A    between atoms: C_2  and  N_21
REMARK    4  A    between atoms: C_4  and  N_5
REMARK    5  A    between atoms: C_6  and  C_8
REMARK    6  A    between atoms: C_8  and  N_9
REMARK    7  A    between atoms: N_12  and  C_13
REMARK    8  A    between atoms: C_13  and  C_14
REMARK                            x       y       z     vdW  Elec       q    Type
REMARK                         _______ _______ _______ _____ _____    ______ ____
ROOT
ATOM      1  N   UNL     1       6.005   1.181  -0.207  0.00  0.00    -0.316 N 
ATOM      2  C   UNL     1       4.754   0.681  -0.242  0.00  0.00    +0.230 C 
ATOM      3  O   UNL     1       4.579  -0.518  -0.175  0.00  0.00    -0.274 OA
ATOM      4  H   UNL     1       6.164   2.268  -0.268  0.00  0.00    +0.149 HD
ENDROOT
BRANCH   1   5
ATOM      5  C   UNL     1       7.152   0.279  -0.089  0.00  0.00    +0.089 C 
BRANCH   5   7
ATOM      6  C   UNL     1       9.648   0.150  -0.075  0.00  0.00    -0.012 C 
ATOM      7  C   UNL     1       8.445   1.096  -0.073  0.00  0.00    -0.054 C 
BRANCH   7   8
ATOM      8  N   UNL     1       8.496   1.956  -1.263  0.00  0.00    +0.382 N 
ATOM      9  C   UNL     1       8.392   1.152  -2.502  0.00  0.00    -0.078 C 
ATOM     10  C   UNL     1       8.710   1.946  -3.740  0.00  0.00    -0.019 C 
ATOM     11  C   UNL     1      10.204   1.754  -4.074  0.00  0.00    -0.002 C 
ATOM     12  C   UNL     1      11.066   2.575  -3.230  0.00  0.00    -0.002 C 
ATOM     13  C   UNL     1      10.923   2.224  -1.734  0.00  0.00    -0.019 C 
ATOM     14  C   UNL     1       9.665   2.863  -1.213  0.00  0.00    -0.078 C 
ATOM     15  H   UNL     1       7.614   2.613  -1.265  0.00  0.00    -0.081 HD
ENDBRANCH   7   8
ENDBRANCH   5   7
ENDBRANCH   1   5
BRANCH   2  16
ATOM     16  C   UNL     1       3.574   1.609  -0.364  0.00  0.00    +0.201 C 
BRANCH  16  17
ATOM     17  N   UNL     1       2.336   0.826  -0.379  0.00  0.00    -0.291 N 
ATOM     18  C   UNL     1       1.145   1.450  -0.482  0.00  0.00    +0.300 C 
ATOM     19  O   UNL     1       1.099   2.662  -0.562  0.00  0.00    -0.253 OA
ATOM     20  N   UNL     1       0.006   0.729  -0.497  0.00  0.00    -0.295 N 
ATOM     21  H   UNL     1       2.378  -0.271  -0.307  0.00  0.00    +0.151 HD
ATOM     22  H   UNL     1       0.048  -0.367  -0.420  0.00  0.00    +0.151 HD
BRANCH  20  23
ATOM     23  C   UNL     1      -1.288   1.406  -0.614  0.00  0.00    +0.141 C 
BRANCH  23  24
ATOM     24  C   UNL     1      -2.393   0.382  -0.613  0.00  0.00    -0.030 A 
ATOM     25  C   UNL     1      -2.834  -0.159  -1.806  0.00  0.00    +0.008 A 
ATOM     26  C   UNL     1      -3.844  -1.102  -1.806  0.00  0.00    +0.038 A 
ATOM     27  C   UNL     1      -4.422  -1.497  -0.611  0.00  0.00    +0.123 A 
ATOM     28  C   UNL     1      -3.982  -0.951   0.583  0.00  0.00    +0.038 A 
ATOM     29  C   UNL     1      -2.968  -0.012   0.580  0.00  0.00    +0.008 A 
ATOM     30  F   UNL     1      -5.412  -2.416  -0.610  0.00  0.00    -0.205 F 
ENDBRANCH  23  24
ENDBRANCH  20  23
ENDBRANCH  16  17
ENDBRANCH   2  16
TORSDOF 7
