REMARK  Name = ZINC35033351
REMARK  10 active torsions:
REMARK  status: ('A' for Active; 'I' for Inactive)
REMARK    1  A    between atoms: C_1  and  C_2
REMARK    2  A    between atoms: N_5  and  C_20
REMARK    3  A    between atoms: C_9  and  C_11
REMARK    4  A    between atoms: C_14  and  N_17
REMARK    5  A    between atoms: C_20  and  C_22
REMARK    6  A    between atoms: C_20  and  C_23
REMARK    7  A    between atoms: N_33  and  C_34
REMARK    8  A    between atoms: C_34  and  C_35
REMARK    9  A    between atoms: C_35  and  O_36
REMARK   10  A    between atoms: O_36  and  C_37
REMARK                            x       y       z     vdW  Elec       q    Type
REMARK                         _______ _______ _______ _____ _____    ______ ____
ROOT
ATOM      1  C   UNL     1      -0.097   0.988  -0.888  0.00  0.00    +0.029 C 
ATOM      2  C   UNL     1      -0.667  -0.285  -0.258  0.00  0.00    +0.087 C 
ATOM      3  C   UNL     1      -0.477  -1.464  -1.218  0.00  0.00    +0.107 C 
ATOM      4  N   UNL     1      -0.884  -2.707  -0.549  0.00  0.00    -0.290 NA
ATOM      5  C   UNL     1      -0.034  -2.988   0.616  0.00  0.00    +0.104 C 
ATOM      6  C   UNL     1      -0.207  -1.871   1.651  0.00  0.00    +0.124 C 
ATOM      7  N   UNL     1       0.044  -0.578   0.995  0.00  0.00    -0.292 N 
ATOM      8  C   UNL     1       0.906   0.312   1.526  0.00  0.00    +0.247 C 
ATOM      9  O   UNL     1       1.030   1.412   1.023  0.00  0.00    -0.270 OA
ENDROOT
BRANCH   8  10
ATOM     10  C   UNL     1       1.700  -0.049   2.719  0.00  0.00    +0.037 A 
ATOM     11  C   UNL     1       2.152  -1.358   2.890  0.00  0.00    +0.015 A 
ATOM     12  C   UNL     1       2.893  -1.688   4.006  0.00  0.00    +0.033 A 
ATOM     13  C   UNL     1       3.188  -0.725   4.955  0.00  0.00    +0.126 A 
ATOM     14  C   UNL     1       2.743   0.575   4.791  0.00  0.00    +0.033 A 
ATOM     15  C   UNL     1       2.006   0.919   3.677  0.00  0.00    +0.015 A 
BRANCH  13  16
ATOM     16  N   UNL     1       3.983  -1.087   6.149  0.00  0.00    +0.056 N 
ATOM     17  O   UNL     1       4.373  -2.222   6.295  0.00  0.00    -0.126 OA
ATOM     18  O   UNL     1       4.242  -0.247   6.980  0.00  0.00    -0.126 OA
ENDBRANCH  13  16
ENDBRANCH   8  10
BRANCH   4  19
ATOM     19  C   UNL     1      -0.880  -3.836  -1.488  0.00  0.00    +0.120 C 
ATOM     20  C   UNL     1       0.563  -4.182  -1.863  0.00  0.00    +0.032 C 
BRANCH  19  21
ATOM     21  C   UNL     1      -1.531  -5.031  -0.840  0.00  0.00    +0.130 A 
ATOM     22  N   UNL     1      -0.775  -6.022  -0.476  0.00  0.00    -0.232 NA
ATOM     23  C   UNL     1      -1.290  -7.130   0.113  0.00  0.00    +0.078 A 
ATOM     24  C   UNL     1      -0.478  -8.196   0.505  0.00  0.00    +0.028 A 
ATOM     25  C   UNL     1      -1.044  -9.302   1.100  0.00  0.00    +0.002 A 
ATOM     26  C   UNL     1      -2.414  -9.370   1.316  0.00  0.00    +0.001 A 
ATOM     27  C   UNL     1      -3.236  -8.331   0.938  0.00  0.00    +0.015 A 
ATOM     28  C   UNL     1      -2.683  -7.203   0.334  0.00  0.00    +0.065 A 
ATOM     29  C   UNL     1      -3.510  -6.064  -0.090  0.00  0.00    +0.262 A 
ATOM     30  O   UNL     1      -4.717  -6.064   0.072  0.00  0.00    -0.267 OA
ATOM     31  N   UNL     1      -2.877  -5.013  -0.662  0.00  0.00    -0.293 N 
BRANCH  31  32
ATOM     32  C   UNL     1      -3.652  -3.849  -1.097  0.00  0.00    +0.154 C 
BRANCH  32  33
ATOM     33  C   UNL     1      -4.181  -4.088  -2.513  0.00  0.00    +0.181 C 
BRANCH  33  34
ATOM     34  O   UNL     1      -5.120  -5.166  -2.494  0.00  0.00    -0.381 OA
ATOM     35  C   UNL     1      -5.677  -5.473  -3.774  0.00  0.00    +0.194 C 
ENDBRANCH  33  34
ENDBRANCH  32  33
ENDBRANCH  31  32
ENDBRANCH  19  21
ENDBRANCH   4  19
TORSDOF 7
