REMARK  Name = ZINC04327715
REMARK  7 active torsions:
REMARK  status: ('A' for Active; 'I' for Inactive)
REMARK    1  A    between atoms: C_4  and  N_6
REMARK    2  A    between atoms: C_10  and  C_12
REMARK    3  A    between atoms: C_12  and  O_13
REMARK    4  A    between atoms: O_13  and  C_14
REMARK    5  A    between atoms: C_14  and  C_16
REMARK    6  A    between atoms: C_16  and  N_17
REMARK    7  A    between atoms: C_18  and  C_20
REMARK                            x       y       z     vdW  Elec       q    Type
REMARK                         _______ _______ _______ _____ _____    ______ ____
ROOT
ATOM      1  C   UNL     1       0.040  -7.648  -4.704  0.00  0.00    +0.325 C 
ATOM      2  O   UNL     1      -0.018  -7.242  -5.841  0.00  0.00    -0.249 OA
ENDROOT
BRANCH   1   3
ATOM      3  O   UNL     1       0.246  -6.788  -3.695  0.00  0.00    -0.454 OA
BRANCH   3   4
ATOM      4  C   UNL     1       0.389  -5.408  -4.036  0.00  0.00    +0.328 C 
BRANCH   4   9
ATOM      5  N   UNL     1       1.136  -1.207  -1.821  0.00  0.00    -0.296 N 
ATOM      6  C   UNL     1       0.974  -2.543  -1.742  0.00  0.00    +0.306 C 
ATOM      7  O   UNL     1       1.008  -3.096  -0.661  0.00  0.00    -0.252 OA
ATOM      8  N   UNL     1       0.774  -3.265  -2.863  0.00  0.00    -0.237 N 
ATOM      9  C   UNL     1       0.612  -4.600  -2.784  0.00  0.00    +0.258 C 
ATOM     10  O   UNL     1       0.646  -5.152  -1.705  0.00  0.00    -0.272 OA
ATOM     11  H   UNL     1       1.109  -0.765  -2.685  0.00  0.00    +0.151 HD
ATOM     12  H   UNL     1       0.747  -2.823  -3.726  0.00  0.00    +0.159 HD
BRANCH   5  16
ATOM     13  C   UNL     1      -0.019   1.538   0.011  0.00  0.00    +0.002 C 
ATOM     14  C   UNL     1       1.477   1.939  -0.002  0.00  0.00    +0.002 C 
ATOM     15  C   UNL     1       2.107   0.881  -0.942  0.00  0.00    +0.022 C 
ATOM     16  C   UNL     1       1.353  -0.422  -0.604  0.00  0.00    +0.074 C 
ATOM     17  C   UNL     1       0.002  -0.004   0.002  0.00  0.00    +0.022 C 
ENDBRANCH   5  16
ENDBRANCH   4   9
ENDBRANCH   3   4
ENDBRANCH   1   3
BRANCH   1  18
ATOM     18  C   UNL     1      -0.120  -9.119  -4.420  0.00  0.00    +0.224 C 
BRANCH  18  19
ATOM     19  N   UNL     1      -0.333  -9.839  -5.679  0.00  0.00    -0.304 N 
ATOM     20  C   UNL     1      -0.501 -11.176  -5.670  0.00  0.00    +0.220 C 
ATOM     21  O   UNL     1      -0.477 -11.783  -4.620  0.00  0.00    -0.275 OA
ATOM     22  H   UNL     1      -0.352  -9.353  -6.518  0.00  0.00    +0.149 HD
BRANCH  20  23
ATOM     23  C   UNL     1      -0.721 -11.916  -6.964  0.00  0.00    +0.048 C 
ATOM     24  C   UNL     1      -1.984 -11.389  -7.646  0.00  0.00    +0.019 C 
ATOM     25  C   UNL     1      -2.207 -12.140  -8.960  0.00  0.00    -0.009 C 
ATOM     26  C   UNL     1      -2.369 -13.634  -8.672  0.00  0.00    +0.007 C 
ATOM     27  C   UNL     1      -1.105 -14.162  -7.990  0.00  0.00    -0.009 C 
ATOM     28  C   UNL     1      -0.882 -13.410  -6.676  0.00  0.00    +0.019 C 
ATOM     29  C   UNL     1       0.099 -13.948  -8.910  0.00  0.00    +0.007 C 
ATOM     30  C   UNL     1       0.261 -12.454  -9.198  0.00  0.00    -0.009 C 
ATOM     31  C   UNL     1      -1.003 -11.926  -9.880  0.00  0.00    +0.007 C 
ATOM     32  C   UNL     1       0.483 -11.702  -7.884  0.00  0.00    +0.019 C 
ENDBRANCH  20  23
ENDBRANCH  18  19
ENDBRANCH   1  18
TORSDOF 7
