REMARK  Name = ZINC09348681
REMARK  5 active torsions:
REMARK  status: ('A' for Active; 'I' for Inactive)
REMARK    1  A    between atoms: C_2  and  C_3
REMARK    2  A    between atoms: C_3  and  N_4
REMARK    3  A    between atoms: C_11  and  N_31
REMARK    4  A    between atoms: C_21  and  C_22
REMARK    5  A    between atoms: C_21  and  N_63
REMARK                            x       y       z     vdW  Elec       q    Type
REMARK                         _______ _______ _______ _____ _____    ______ ____
ROOT
ATOM      1  N   UNL     1      -2.146   1.365  -1.112  0.00  0.00    -0.221 N 
ATOM      2  C   UNL     1      -2.975   0.325  -0.944  0.00  0.00    +0.240 C 
ATOM      3  O   UNL     1      -3.027  -0.219   0.139  0.00  0.00    -0.274 OA
ATOM      4  C   UNL     1      -3.842  -0.187  -2.059  0.00  0.00    +0.144 C 
ATOM      5  C   UNL     1      -5.314  -0.109  -1.644  0.00  0.00    +0.064 C 
ATOM      6  C   UNL     1      -5.611  -1.166  -0.611  0.00  0.00    -0.023 A 
ATOM      7  C   UNL     1      -6.785  -1.054   0.118  0.00  0.00    +0.038 A 
ATOM      8  C   UNL     1      -7.109  -1.998   1.072  0.00  0.00    +0.127 A 
ATOM      9  C   UNL     1      -6.259  -3.064   1.304  0.00  0.00    +0.034 A 
ATOM     10  C   UNL     1      -5.089  -3.181   0.585  0.00  0.00    +0.025 A 
ATOM     11  C   UNL     1      -4.754  -2.228  -0.379  0.00  0.00    +0.033 A 
ATOM     12  N   UNL     1      -3.555  -2.393  -1.066  0.00  0.00    -0.329 N 
ATOM     13  C   UNL     1      -3.508  -1.658  -2.332  0.00  0.00    +0.081 C 
ATOM     14  C   UNL     1      -2.105  -1.765  -2.932  0.00  0.00    -0.054 C 
ATOM     15  C   UNL     1      -1.824  -3.922  -1.864  0.00  0.00    -0.059 C 
ATOM     16  C   UNL     1      -3.228  -3.810  -1.264  0.00  0.00    +0.087 C 
ATOM     17  C   UNL     1      -3.628   0.616  -3.310  0.00  0.00    +0.238 C 
ATOM     18  O   UNL     1      -4.253   0.329  -4.308  0.00  0.00    -0.274 OA
ATOM     19  N   UNL     1      -2.767   1.642  -3.354  0.00  0.00    -0.239 N 
ATOM     20  C   UNL     1      -2.048   2.012  -2.283  0.00  0.00    +0.315 C 
ATOM     21  O   UNL     1      -1.285   2.953  -2.377  0.00  0.00    -0.252 OA
ATOM     22  H   UNL     1      -2.662   2.134  -4.183  0.00  0.00    +0.159 HD
ATOM     23  N   UNL     1      -1.792  -3.195  -3.151  0.00  0.00    +0.385 N 
ATOM     24  H   UNL     1      -2.497  -3.598  -3.779  0.00  0.00    -0.081 HD
ENDROOT
BRANCH   8  25
ATOM     25  N   UNL     1      -8.364  -1.869   1.846  0.00  0.00    +0.056 N 
ATOM     26  O   UNL     1      -8.649  -2.702   2.688  0.00  0.00    -0.126 OA
ATOM     27  O   UNL     1      -9.112  -0.930   1.641  0.00  0.00    -0.126 OA
ENDBRANCH   8  25
BRANCH   1  28
ATOM     28  C   UNL     1      -1.328   1.812   0.018  0.00  0.00    +0.144 C 
BRANCH  28  30
ATOM     29  C   UNL     1       1.113   1.746   0.001  0.00  0.00    +0.005 C 
ATOM     30  C   UNL     1      -0.013   1.076   0.008  0.00  0.00    -0.015 C 
ENDBRANCH  28  30
ENDBRANCH   1  28
BRANCH  23  31
ATOM     31  C   UNL     1      -0.460  -3.331  -3.775  0.00  0.00    -0.043 C 
BRANCH  31  32
ATOM     32  C   UNL     1      -0.044  -4.779  -3.743  0.00  0.00    -0.060 A 
ATOM     33  C   UNL     1      -0.391  -5.619  -4.785  0.00  0.00    +0.005 A 
ATOM     34  C   UNL     1      -0.012  -6.948  -4.760  0.00  0.00    +0.050 A 
ATOM     35  C   UNL     1       0.717  -7.442  -3.690  0.00  0.00    +0.166 A 
ATOM     36  C   UNL     1       1.066  -6.596  -2.641  0.00  0.00    +0.166 A 
ATOM     37  C   UNL     1       0.688  -5.263  -2.675  0.00  0.00    +0.051 A 
ATOM     38  O   UNL     1       1.774  -7.312  -1.719  0.00  0.00    -0.453 OA
ATOM     39  C   UNL     1       2.205  -8.502  -2.406  0.00  0.00    +0.466 C 
ATOM     40  O   UNL     1       1.206  -8.689  -3.426  0.00  0.00    -0.453 OA
ENDBRANCH  31  32
ENDBRANCH  23  31
TORSDOF 5
