REMARK  Name = ZINC10751722
REMARK  8 active torsions:
REMARK  status: ('A' for Active; 'I' for Inactive)
REMARK    1  A    between atoms: C_1  and  N_57
REMARK    2  A    between atoms: C_2  and  N_57
REMARK    3  A    between atoms: C_3  and  C_4
REMARK    4  A    between atoms: C_3  and  N_57
REMARK    5  A    between atoms: C_4  and  N_5
REMARK    6  A    between atoms: C_16  and  C_18
REMARK    7  A    between atoms: N_23  and  S_25
REMARK    8  A    between atoms: S_25  and  C_28
REMARK                            x       y       z     vdW  Elec       q    Type
REMARK                         _______ _______ _______ _____ _____    ______ ____
ROOT
ATOM      1  N   UNL     1      -0.388   6.007   5.573  0.00  0.00    -0.252 N 
ATOM      2  C   UNL     1      -0.068   6.983   6.504  0.00  0.00    +0.168 A 
ATOM      3  N   UNL     1      -0.078   8.288   6.364  0.00  0.00    -0.221 NA
ATOM      4  C   UNL     1       0.261   9.128   7.367  0.00  0.00    +0.115 A 
ATOM      5  C   UNL     1       0.293  10.543   7.348  0.00  0.00    +0.150 A 
ATOM      6  C   UNL     1       0.664  11.250   8.464  0.00  0.00    +0.040 A 
ATOM      7  C   UNL     1       1.019  10.609   9.643  0.00  0.00    +0.004 A 
ATOM      8  C   UNL     1       0.999   9.228   9.696  0.00  0.00    +0.017 A 
ATOM      9  C   UNL     1       0.628   8.512   8.584  0.00  0.00    +0.044 A 
ATOM     10  S   UNL     1       0.454   6.785   8.201  0.00  0.00    -0.052 S 
ATOM     11  F   UNL     1      -0.045  11.205   6.220  0.00  0.00    -0.203 F 
ATOM     12  C   UNL     1      -0.684   6.356   4.305  0.00  0.00    +0.226 C 
ATOM     13  O   UNL     1      -1.038   5.511   3.511  0.00  0.00    -0.275 OA
ENDROOT
BRANCH  12  14
ATOM     14  C   UNL     1      -0.574   7.796   3.875  0.00  0.00    +0.091 C 
ATOM     15  C   UNL     1       0.883   8.251   3.980  0.00  0.00    +0.015 C 
ATOM     16  C   UNL     1       0.990   9.723   3.574  0.00  0.00    +0.018 C 
ATOM     17  C   UNL     1       0.539   9.880   2.114  0.00  0.00    +0.109 C 
ATOM     18  N   UNL     1      -0.810   9.313   1.978  0.00  0.00    -0.175 NA
ATOM     19  C   UNL     1      -1.045   7.933   2.423  0.00  0.00    +0.122 C 
BRANCH  18  20
ATOM     20  S   UNL     1      -2.041  10.212   1.330  0.00  0.00    +0.067 S 
ATOM     21  O   UNL     1      -2.992   9.288   0.818  0.00  0.00    -0.152 OA
ATOM     22  O   UNL     1      -1.433  11.208   0.519  0.00  0.00    -0.152 OA
BRANCH  20  23
ATOM     23  C   UNL     1      -2.826  11.057   2.662  0.00  0.00    +0.143 A 
ATOM     24  C   UNL     1      -2.552  12.281   3.177  0.00  0.00    +0.036 A 
ATOM     25  C   UNL     1      -3.306  12.746   4.238  0.00  0.00    +0.010 A 
ATOM     26  C   UNL     1      -4.305  11.970   4.725  0.00  0.00    +0.047 A 
ATOM     27  S   UNL     1      -4.196  10.528   3.678  0.00  0.00    -0.077 S 
ENDBRANCH  20  23
ENDBRANCH  18  20
ENDBRANCH  12  14
BRANCH   1  28
ATOM     28  C   UNL     1      -0.405   4.597   5.968  0.00  0.00    +0.097 C 
BRANCH  28  29
ATOM     29  C   UNL     1       0.934   3.950   5.607  0.00  0.00    -0.060 C 
BRANCH  29  32
ATOM     30  C   UNL     1      -0.061   1.779   5.210  0.00  0.00    -0.097 C 
ATOM     31  C   UNL     1       2.256   1.942   5.893  0.00  0.00    -0.097 C 
ATOM     32  N   UNL     1       0.909   2.534   6.030  0.00  0.00    +0.377 N 
ATOM     33  H   UNL     1       0.623   2.486   7.015  0.00  0.00    -0.083 HD
ENDBRANCH  29  32
ENDBRANCH  28  29
ENDBRANCH   1  28
TORSDOF 6
