REMARK  Name = ZINC04222162
REMARK  11 active torsions:
REMARK  status: ('A' for Active; 'I' for Inactive)
REMARK    1  A    between atoms: C_1  and  C_2
REMARK    2  A    between atoms: C_2  and  C_4
REMARK    3  A    between atoms: C_2  and  N_10
REMARK    4  A    between atoms: C_11  and  C_13
REMARK    5  A    between atoms: C_13  and  C_14
REMARK    6  A    between atoms: C_22  and  C_24
REMARK    7  A    between atoms: C_32  and  C_42
REMARK    8  A    between atoms: C_35  and  O_41
REMARK    9  A    between atoms: C_37  and  C_38
REMARK   10  A    between atoms: C_37  and  C_39
REMARK   11  A    between atoms: C_39  and  O_40
REMARK                            x       y       z     vdW  Elec       q    Type
REMARK                         _______ _______ _______ _____ _____    ______ ____
ROOT
ATOM      1  C   UNL     1      -1.739   9.300  -2.319  0.00  0.00    +0.054 C 
ATOM      2  C   UNL     1      -1.865  10.370  -1.246  0.00  0.00    +0.058 A 
ATOM      3  C   UNL     1      -2.452  11.560  -1.537  0.00  0.00    +0.015 A 
ATOM      4  S   UNL     1      -2.350  12.431   0.004  0.00  0.00    -0.057 S 
ATOM      5  C   UNL     1      -1.553  11.177   0.905  0.00  0.00    +0.165 A 
ATOM      6  N   UNL     1      -1.427  10.226   0.002  0.00  0.00    -0.229 NA
ATOM      7  N   UNL     1      -1.151  11.177   2.234  0.00  0.00    -0.260 N 
ATOM      8  C   UNL     1      -1.372  12.261   3.004  0.00  0.00    +0.256 C 
ATOM      9  O   UNL     1      -1.923  13.239   2.535  0.00  0.00    -0.269 OA
ATOM     10  C   UNL     1      -3.030  11.996  -2.837  0.00  0.00    +0.049 C 
ATOM     11  C   UNL     1      -2.555  11.034  -3.944  0.00  0.00    +0.011 C 
ATOM     12  C   UNL     1      -2.725   9.594  -3.457  0.00  0.00    -0.019 C 
ATOM     13  C   UNL     1      -2.418   8.614  -4.595  0.00  0.00    +0.010 C 
ATOM     14  C   UNL     1      -3.333   8.881  -5.788  0.00  0.00    +0.032 C 
ATOM     15  C   UNL     1      -3.086  10.307  -6.288  0.00  0.00    +0.123 C 
ATOM     16  C   UNL     1      -3.437  11.287  -5.171  0.00  0.00    +0.021 C 
ATOM     17  C   UNL     1      -3.220  12.718  -5.665  0.00  0.00    +0.016 C 
ATOM     18  C   UNL     1      -4.157   9.385  -2.962  0.00  0.00    +0.012 C 
ATOM     19  H   UNL     1      -0.711  10.398   2.608  0.00  0.00    +0.157 HD
ENDROOT
BRANCH   8  20
ATOM     20  C   UNL     1      -0.948  12.261   4.407  0.00  0.00    +0.074 A 
ATOM     21  C   UNL     1      -1.073  13.263   5.357  0.00  0.00    +0.021 A 
ATOM     22  C   UNL     1      -0.587  12.997   6.614  0.00  0.00    +0.008 A 
ATOM     23  C   UNL     1      -0.008  11.792   6.859  0.00  0.00    +0.046 A 
ATOM     24  S   UNL     1      -0.128  10.976   5.335  0.00  0.00    -0.092 S 
ENDBRANCH   8  20
BRANCH  15  25
ATOM     25  O   UNL     1      -3.909  10.565  -7.428  0.00  0.00    -0.391 OA
ATOM     26  H   UNL     1      -3.747   9.970  -8.173  0.00  0.00    +0.210 HD
ENDBRANCH  15  25
BRANCH   1  27
ATOM     27  C   UNL     1      -2.054   7.931  -1.712  0.00  0.00    +0.106 C 
BRANCH  27  29
ATOM     28  N   UNL     1      -1.042   6.384  -0.069  0.00  0.00    -0.309 N 
ATOM     29  C   UNL     1      -0.974   7.556  -0.730  0.00  0.00    +0.214 C 
ATOM     30  O   UNL     1      -0.044   8.309  -0.535  0.00  0.00    -0.276 OA
ATOM     31  H   UNL     1      -1.786   5.781  -0.225  0.00  0.00    +0.149 HD
BRANCH  28  33
ATOM     32  C   UNL     1      -0.306   6.638   2.249  0.00  0.00    +0.033 C 
ATOM     33  C   UNL     1       0.007   6.019   0.886  0.00  0.00    +0.100 C 
BRANCH  33  34
ATOM     34  C   UNL     1       0.068   4.519   1.018  0.00  0.00    -0.027 A 
ATOM     35  C   UNL     1       1.291   3.882   1.110  0.00  0.00    +0.005 A 
ATOM     36  C   UNL     1       1.347   2.506   1.230  0.00  0.00    +0.000 A 
ATOM     37  C   UNL     1       0.179   1.767   1.260  0.00  0.00    +0.000 A 
ATOM     38  C   UNL     1      -1.044   2.404   1.163  0.00  0.00    +0.000 A 
ATOM     39  C   UNL     1      -1.100   3.780   1.046  0.00  0.00    +0.005 A 
ENDBRANCH  33  34
ENDBRANCH  28  33
ENDBRANCH  27  29
ENDBRANCH   1  27
BRANCH  16  40
ATOM     40  C   UNL     1      -4.906  11.106  -4.784  0.00  0.00    +0.165 C 
BRANCH  40  41
ATOM     41  O   UNL     1      -5.738  11.496  -5.879  0.00  0.00    -0.394 OA
ATOM     42  H   UNL     1      -6.685  11.408  -5.704  0.00  0.00    +0.209 HD
ENDBRANCH  40  41
ENDBRANCH  16  40
TORSDOF 8
