REMARK  Name = ZINC64046740
REMARK  7 active torsions:
REMARK  status: ('A' for Active; 'I' for Inactive)
REMARK    1  A    between atoms: C_7  and  C_10
REMARK    2  A    between atoms: C_10  and  C_11
REMARK    3  A    between atoms: C_11  and  C_13
REMARK    4  A    between atoms: C_11  and  N_23
REMARK    5  A    between atoms: N_15  and  C_16
REMARK    6  A    between atoms: C_21  and  O_22
REMARK    7  A    between atoms: C_24  and  C_26
REMARK                            x       y       z     vdW  Elec       q    Type
REMARK                         _______ _______ _______ _____ _____    ______ ____
ROOT
ATOM      1  C   UNL     1       0.459  -3.656  -1.481  0.00  0.00    +0.163 C 
ENDROOT
BRANCH   1   2
ATOM      2  C   UNL     1      -0.384  -4.905  -1.460  0.00  0.00    +0.238 C 
ATOM      3  O   UNL     1      -1.574  -4.837  -1.683  0.00  0.00    -0.273 OA
ATOM      4  N   UNL     1       0.185  -6.097  -1.193  0.00  0.00    -0.281 N 
ATOM      5  H   UNL     1       1.146  -6.161  -1.078  0.00  0.00    +0.155 HD
BRANCH   4   6
ATOM      6  C   UNL     1      -0.612  -7.244  -1.080  0.00  0.00    +0.075 A 
ATOM      7  C   UNL     1      -1.741  -7.387  -1.874  0.00  0.00    +0.027 A 
ATOM      8  C   UNL     1      -2.526  -8.519  -1.762  0.00  0.00    +0.002 A 
ATOM      9  C   UNL     1      -2.188  -9.512  -0.860  0.00  0.00    +0.004 A 
ATOM     10  C   UNL     1      -1.064  -9.377  -0.066  0.00  0.00    +0.047 A 
ATOM     11  C   UNL     1      -0.270  -8.247  -0.176  0.00  0.00    +0.138 A 
BRANCH  11  12
ATOM     12  O   UNL     1       0.839  -8.115   0.600  0.00  0.00    -0.505 OA
ATOM     13  H   UNL     1       0.676  -7.680   1.448  0.00  0.00    +0.292 HD
ENDBRANCH  11  12
ENDBRANCH   4   6
ENDBRANCH   1   2
BRANCH   1  14
ATOM     14  N   UNL     1      -0.237  -2.610  -2.235  0.00  0.00    -0.300 N 
ATOM     15  C   UNL     1      -1.448  -2.179  -1.830  0.00  0.00    +0.246 C 
ATOM     16  O   UNL     1      -1.962  -2.658  -0.838  0.00  0.00    -0.270 OA
ATOM     17  H   UNL     1       0.174  -2.228  -3.027  0.00  0.00    +0.150 HD
BRANCH  15  18
ATOM     18  C   UNL     1      -2.149  -1.124  -2.590  0.00  0.00    +0.055 A 
ATOM     19  C   UNL     1      -1.564  -0.576  -3.733  0.00  0.00    +0.014 A 
ATOM     20  C   UNL     1      -2.224   0.408  -4.439  0.00  0.00    +0.001 A 
ATOM     21  C   UNL     1      -3.465   0.853  -4.017  0.00  0.00    +0.001 A 
ATOM     22  C   UNL     1      -4.052   0.316  -2.886  0.00  0.00    +0.021 A 
ATOM     23  C   UNL     1      -3.404  -0.675  -2.173  0.00  0.00    +0.053 A 
ATOM     24 CL   UNL     1      -4.145  -1.354  -0.757  0.00  0.00    -0.083 Cl
ENDBRANCH  15  18
ENDBRANCH   1  14
BRANCH   1  25
ATOM     25  C   UNL     1       0.698  -3.177  -0.048  0.00  0.00    +0.065 C 
BRANCH  25  32
ATOM     26  C   UNL     1      -0.002   1.357  -0.047  0.00  0.00    +0.001 A 
ATOM     27  C   UNL     1       1.181   2.109  -0.063  0.00  0.00    +0.002 A 
ATOM     28  C   UNL     1       2.405   1.541  -0.078  0.00  0.00    +0.026 A 
ATOM     29  C   UNL     1       2.541   0.125  -0.077  0.00  0.00    +0.043 A 
ATOM     30  N   UNL     1       3.598  -0.650  -0.089  0.00  0.00    -0.380 N 
ATOM     31  C   UNL     1       3.152  -2.048  -0.081  0.00  0.00    +0.144 C 
ATOM     32  C   UNL     1       1.641  -2.002  -0.061  0.00  0.00    -0.039 C 
ATOM     33  C   UNL     1       1.306  -0.691  -0.059  0.00  0.00    -0.001 A 
ATOM     34  C   UNL     1       0.014   0.005  -0.044  0.00  0.00    +0.010 A 
ATOM     35  H   UNL     1       4.520  -0.350  -0.102  0.00  0.00    +0.160 HD
ENDBRANCH  25  32
ENDBRANCH   1  25
TORSDOF 7
