REMARK  Name = ZINC39639158
REMARK  15 active torsions:
REMARK  status: ('A' for Active; 'I' for Inactive)
REMARK    1  A    between atoms: C_1  and  C_2
REMARK    2  A    between atoms: C_2  and  C_3
REMARK    3  A    between atoms: C_3  and  C_4
REMARK    4  A    between atoms: C_4  and  C_5
REMARK    5  A    between atoms: C_5  and  C_7
REMARK    6  A    between atoms: C_5  and  C_8
REMARK    7  A    between atoms: C_12  and  C_21
REMARK    8  A    between atoms: N_23  and  C_24
REMARK    9  A    between atoms: C_24  and  C_25
REMARK   10  A    between atoms: C_26  and  O_35
REMARK   11  A    between atoms: C_28  and  O_33
REMARK   12  A    between atoms: C_30  and  O_31
REMARK   13  A    between atoms: O_31  and  C_32
REMARK   14  A    between atoms: O_33  and  C_34
REMARK   15  A    between atoms: O_35  and  C_36
REMARK                            x       y       z     vdW  Elec       q    Type
REMARK                         _______ _______ _______ _____ _____    ______ ____
ROOT
ATOM      1  C   UNL     1       1.597  -3.793   2.569  0.00  0.00    +0.218 C 
ATOM      2  O   UNL     1       1.013  -4.315   1.643  0.00  0.00    -0.275 OA
ATOM      3  N   UNL     1       2.111  -4.554   3.556  0.00  0.00    -0.300 N 
ATOM      4  C   UNL     1       2.844  -4.104   4.762  0.00  0.00    +0.121 C 
ATOM      5  C   UNL     1       2.333  -5.022   5.896  0.00  0.00    +0.100 C 
ATOM      6  C   UNL     1       1.827  -6.285   5.179  0.00  0.00    -0.004 C 
ATOM      7  C   UNL     1       2.063  -6.031   3.683  0.00  0.00    +0.115 C 
ATOM      8  C   UNL     1       0.338  -6.483   5.446  0.00  0.00    -0.010 C 
ATOM      9  C   UNL     1      -0.129  -7.776   4.771  0.00  0.00    -0.082 C 
ATOM     10  N   UNL     1       0.639  -8.911   5.298  0.00  0.00    +0.379 N 
ATOM     11  C   UNL     1       2.058  -8.758   4.957  0.00  0.00    -0.082 C 
ATOM     12  C   UNL     1       2.617  -7.506   5.639  0.00  0.00    -0.010 C 
ATOM     13  H   UNL     1       0.537  -8.946   6.302  0.00  0.00    -0.086 HD
ATOM     14  H   UNL     1       0.288  -9.768   4.898  0.00  0.00    -0.086 HD
ENDROOT
BRANCH   5  15
ATOM     15  C   UNL     1       1.208  -4.354   6.644  0.00  0.00    +0.218 C 
ATOM     16  O   UNL     1       0.476  -3.575   6.071  0.00  0.00    -0.275 OA
ATOM     17  N   UNL     1       1.016  -4.623   7.951  0.00  0.00    -0.311 N 
ATOM     18  H   UNL     1       1.601  -5.246   8.409  0.00  0.00    +0.149 HD
BRANCH  17  19
ATOM     19  C   UNL     1      -0.078  -3.974   8.678  0.00  0.00    +0.147 C 
BRANCH  19  20
ATOM     20  C   UNL     1      -0.075  -4.442  10.111  0.00  0.00    +0.053 A 
ATOM     21  C   UNL     1      -0.802  -5.565  10.475  0.00  0.00    +0.132 A 
ATOM     22  C   UNL     1      -0.799  -5.996  11.793  0.00  0.00    +0.091 A 
ATOM     23  C   UNL     1      -0.069  -5.303  12.747  0.00  0.00    +0.127 A 
ATOM     24  C   UNL     1       0.658  -4.180  12.383  0.00  0.00    +0.091 A 
ATOM     25  C   UNL     1       0.659  -3.752  11.064  0.00  0.00    +0.132 A 
BRANCH  25  26
ATOM     26  O   UNL     1       1.376  -2.655  10.707  0.00  0.00    -0.495 OA
ATOM     27  C   UNL     1       2.109  -1.993  11.740  0.00  0.00    +0.277 C 
ENDBRANCH  25  26
BRANCH  23  28
ATOM     28  O   UNL     1      -0.068  -5.724  14.039  0.00  0.00    -0.495 OA
ATOM     29  C   UNL     1       0.706  -4.963  14.969  0.00  0.00    +0.277 C 
ENDBRANCH  23  28
BRANCH  21  30
ATOM     30  O   UNL     1      -1.517  -6.244   9.540  0.00  0.00    -0.495 OA
ATOM     31  C   UNL     1      -2.242  -7.392   9.985  0.00  0.00    +0.277 C 
ENDBRANCH  21  30
ENDBRANCH  19  20
ENDBRANCH  17  19
ENDBRANCH   5  15
BRANCH   1  32
ATOM     32  C   UNL     1       1.749  -2.295   2.617  0.00  0.00    +0.072 C 
ATOM     33  C   UNL     1       3.235  -1.933   2.628  0.00  0.00    +0.017 C 
BRANCH  32  34
ATOM     34  C   UNL     1       1.082  -1.675   1.387  0.00  0.00    +0.012 C 
BRANCH  34  35
ATOM     35  C   UNL     1       1.126  -0.150   1.497  0.00  0.00    +0.000 C 
BRANCH  35  37
ATOM     36  C   UNL     1       0.504   1.995   0.377  0.00  0.00    +0.004 C 
ATOM     37  C   UNL     1       0.460   0.470   0.267  0.00  0.00    -0.003 C 
ENDBRANCH  35  37
ENDBRANCH  34  35
ENDBRANCH  32  34
ENDBRANCH   1  32
TORSDOF 10
