REMARK  Name = ZINC38256095
REMARK  6 active torsions:
REMARK  status: ('A' for Active; 'I' for Inactive)
REMARK    1  A    between atoms: C_1  and  C_2
REMARK    2  A    between atoms: C_7  and  C_12
REMARK    3  A    between atoms: C_12  and  C_13
REMARK    4  A    between atoms: C_14  and  C_27
REMARK    5  A    between atoms: N_16  and  C_21
REMARK    6  A    between atoms: C_21  and  C_22
REMARK                            x       y       z     vdW  Elec       q    Type
REMARK                         _______ _______ _______ _____ _____    ______ ____
ROOT
ATOM      1  C   UNL     1      -2.146  -6.423   3.351  0.00  0.00    +0.076 C 
ATOM      2  C   UNL     1      -0.751  -6.335   3.924  0.00  0.00    +0.145 C 
ATOM      3  N   UNL     1      -0.488  -7.630   4.562  0.00  0.00    -0.276 N 
ATOM      4  C   UNL     1      -1.579  -8.400   4.398  0.00  0.00    +0.288 C 
ATOM      5  O   UNL     1      -1.697  -9.539   4.807  0.00  0.00    -0.266 OA
ATOM      6  C   UNL     1      -2.615  -7.656   3.652  0.00  0.00    +0.249 C 
ATOM      7  O   UNL     1      -3.837  -8.133   3.320  0.00  0.00    -0.282 OA
ENDROOT
BRANCH   2   8
ATOM      8  C   UNL     1      -0.679  -5.229   4.946  0.00  0.00    -0.022 A 
ATOM      9  C   UNL     1      -1.315  -5.373   6.165  0.00  0.00    +0.006 A 
ATOM     10  C   UNL     1      -1.250  -4.359   7.103  0.00  0.00    +0.000 A 
ATOM     11  C   UNL     1      -0.548  -3.202   6.821  0.00  0.00    +0.000 A 
ATOM     12  C   UNL     1       0.089  -3.059   5.603  0.00  0.00    +0.000 A 
ATOM     13  C   UNL     1       0.027  -4.074   4.667  0.00  0.00    +0.006 A 
ENDBRANCH   2   8
BRANCH   1  14
ATOM     14  C   UNL     1      -2.857  -5.372   2.616  0.00  0.00    +0.195 C 
ATOM     15  O   UNL     1      -3.847  -4.855   3.099  0.00  0.00    -0.287 OA
BRANCH  14  21
ATOM     16  C   UNL     1      -2.030  -1.744  -3.787  0.00  0.00    +0.052 C 
ATOM     17  C   UNL     1      -2.367  -2.990  -2.966  0.00  0.00    +0.175 C 
ATOM     18  C   UNL     1      -3.169  -2.612  -1.698  0.00  0.00    +0.083 C 
ATOM     19  C   UNL     1      -2.627  -3.596  -0.679  0.00  0.00    -0.002 A 
ATOM     20  C   UNL     1      -3.086  -3.990   0.553  0.00  0.00    +0.019 A 
ATOM     21  C   UNL     1      -2.373  -4.942   1.290  0.00  0.00    +0.023 A 
ATOM     22  C   UNL     1      -1.196  -5.482   0.760  0.00  0.00    +0.015 A 
ATOM     23  C   UNL     1      -0.745  -5.077  -0.473  0.00  0.00    +0.046 A 
ATOM     24  C   UNL     1      -1.453  -4.125  -1.209  0.00  0.00    +0.124 A 
ATOM     25  O   UNL     1      -1.173  -3.583  -2.427  0.00  0.00    -0.488 OA
ENDBRANCH  14  21
ENDBRANCH   1  14
BRANCH   3  26
ATOM     26  C   UNL     1       0.743  -8.016   5.256  0.00  0.00    +0.183 C 
BRANCH  26  27
ATOM     27  C   UNL     1       0.633  -7.654   6.715  0.00  0.00    +0.122 A 
ATOM     28  C   UNL     1       0.154  -8.450   7.688  0.00  0.00    +0.046 A 
ATOM     29  C   UNL     1       0.233  -7.715   8.893  0.00  0.00    +0.041 A 
ATOM     30  C   UNL     1       0.755  -6.514   8.584  0.00  0.00    +0.195 A 
ATOM     31  O   UNL     1       1.001  -6.486   7.264  0.00  0.00    -0.466 OA
ENDBRANCH  26  27
ENDBRANCH   3  26
TORSDOF 5
