REMARK  Name = ZINC66766915
REMARK  7 active torsions:
REMARK  status: ('A' for Active; 'I' for Inactive)
REMARK    1  A    between atoms: C_1  and  C_2
REMARK    2  A    between atoms: C_2  and  C_3
REMARK    3  A    between atoms: C_3  and  C_5
REMARK    4  A    between atoms: C_3  and  N_15
REMARK    5  A    between atoms: C_16  and  C_18
REMARK    6  A    between atoms: C_21  and  S_23
REMARK    7  A    between atoms: S_23  and  N_26
REMARK                            x       y       z     vdW  Elec       q    Type
REMARK                         _______ _______ _______ _____ _____    ______ ____
ROOT
ATOM      1  N   UNL     1      -2.105  -0.148  -1.230  0.00  0.00    -0.299 N 
ATOM      2  C   UNL     1      -2.690   1.062  -1.334  0.00  0.00    +0.280 C 
ATOM      3  O   UNL     1      -2.659   1.834  -0.394  0.00  0.00    -0.267 OA
ATOM      4  H   UNL     1      -2.130  -0.764  -1.980  0.00  0.00    +0.150 HD
ENDROOT
BRANCH   2   5
ATOM      5  C   UNL     1      -3.363   1.448  -2.578  0.00  0.00    +0.192 A 
ATOM      6  C   UNL     1      -3.987   2.638  -2.817  0.00  0.00    +0.057 A 
ATOM      7  C   UNL     1      -4.486   2.576  -4.128  0.00  0.00    +0.072 A 
ATOM      8  C   UNL     1      -4.150   1.365  -4.625  0.00  0.00    +0.258 A 
ATOM      9  O   UNL     1      -3.469   0.690  -3.690  0.00  0.00    -0.432 OA
BRANCH   8  10
ATOM     10  S   UNL     1      -4.539   0.774  -6.238  0.00  0.00    +0.089 S 
ATOM     11  O   UNL     1      -4.522  -0.644  -6.166  0.00  0.00    -0.150 OA
ATOM     12  O   UNL     1      -5.679   1.502  -6.673  0.00  0.00    -0.150 OA
BRANCH  10  13
ATOM     13  N   UNL     1      -3.290   1.212  -7.234  0.00  0.00    -0.201 NA
ATOM     14  H   UNL     1      -3.067   0.663  -8.002  0.00  0.00    +0.144 HD
ATOM     15  H   UNL     1      -2.781   2.017  -7.049  0.00  0.00    +0.144 HD
ENDBRANCH  10  13
ENDBRANCH   8  10
ENDBRANCH   2   5
BRANCH   1  16
ATOM     16  C   UNL     1      -1.433  -0.534   0.013  0.00  0.00    +0.139 C 
BRANCH  16  17
ATOM     17  C   UNL     1      -1.414  -2.036   0.129  0.00  0.00    +0.129 A 
ATOM     18  N   UNL     1      -2.066  -2.753   1.083  0.00  0.00    -0.340 N 
ATOM     19  H   UNL     1      -2.616  -2.393   1.796  0.00  0.00    +0.167 HD
ATOM     20  C   UNL     1      -1.800  -4.087   0.848  0.00  0.00    +0.066 A 
ATOM     21  C   UNL     1      -2.174  -5.271   1.469  0.00  0.00    +0.028 A 
ATOM     22  C   UNL     1      -1.723  -6.475   0.970  0.00  0.00    +0.002 A 
ATOM     23  C   UNL     1      -0.899  -6.510  -0.146  0.00  0.00    +0.002 A 
ATOM     24  C   UNL     1      -0.521  -5.355  -0.769  0.00  0.00    +0.030 A 
ATOM     25  C   UNL     1      -0.966  -4.123  -0.282  0.00  0.00    +0.089 A 
ATOM     26  N   UNL     1      -0.775  -2.837  -0.673  0.00  0.00    -0.231 NA
ENDBRANCH  16  17
BRANCH  16  28
ATOM     27  C   UNL     1      -0.019   1.526   0.010  0.00  0.00    +0.006 C 
ATOM     28  C   UNL     1       0.002  -0.004   0.002  0.00  0.00    +0.027 C 
ENDBRANCH  16  28
ENDBRANCH   1  16
TORSDOF 6
