REMARK  Name = ZINC09944583
REMARK  14 active torsions:
REMARK  status: ('A' for Active; 'I' for Inactive)
REMARK    1  A    between atoms: C_1  and  C_2
REMARK    2  A    between atoms: C_2  and  C_3
REMARK    3  A    between atoms: C_2  and  C_4
REMARK    4  A    between atoms: C_2  and  C_5
REMARK    5  A    between atoms: C_12  and  C_14
REMARK    6  A    between atoms: C_17  and  S_22
REMARK    7  A    between atoms: N_18  and  C_19
REMARK    8  A    between atoms: C_19  and  C_20
REMARK    9  A    between atoms: S_22  and  C_23
REMARK   10  A    between atoms: C_23  and  C_24
REMARK   11  A    between atoms: N_29  and  C_30
REMARK   12  A    between atoms: C_30  and  C_31
REMARK   13  A    between atoms: C_31  and  O_32
REMARK   14  A    between atoms: O_32  and  C_33
REMARK                            x       y       z     vdW  Elec       q    Type
REMARK                         _______ _______ _______ _____ _____    ______ ____
ROOT
ATOM      1  C   UNL     1      -3.333   3.965  -1.106  0.00  0.00    +0.172 A 
ATOM      2  N   UNL     1      -3.640   4.379  -2.315  0.00  0.00    -0.128 NA
ATOM      3  N   UNL     1      -2.588   4.396  -3.053  0.00  0.00    -0.122 NA
ATOM      4  C   UNL     1      -1.544   4.000  -2.362  0.00  0.00    +0.193 A 
ATOM      5  N   UNL     1      -1.980   3.706  -1.100  0.00  0.00    -0.298 N 
ENDROOT
BRANCH   1  12
ATOM      6  C   UNL     1      -7.948   4.471   3.089  0.00  0.00    -0.001 C 
ATOM      7  C   UNL     1      -7.655   3.065   3.621  0.00  0.00    +0.009 C 
ATOM      8  C   UNL     1      -6.135   2.841   3.613  0.00  0.00    +0.043 C 
ATOM      9  C   UNL     1      -5.604   3.273   2.285  0.00  0.00    -0.006 A 
ATOM     10  C   UNL     1      -6.238   4.028   1.343  0.00  0.00    -0.036 A 
ATOM     11  C   UNL     1      -5.527   4.302   0.180  0.00  0.00    +0.023 A 
ATOM     12  C   UNL     1      -4.259   3.808   0.027  0.00  0.00    +0.057 A 
ATOM     13  S   UNL     1      -4.020   2.931   1.565  0.00  0.00    -0.090 S 
ATOM     14  C   UNL     1      -7.656   4.535   1.590  0.00  0.00    +0.040 C 
BRANCH   6  16
ATOM     15  C   UNL     1     -10.305   3.804   2.599  0.00  0.00    +0.011 C 
ATOM     16  C   UNL     1      -9.419   4.811   3.335  0.00  0.00    -0.035 C 
ATOM     17  C   UNL     1      -9.713   4.747   4.835  0.00  0.00    +0.011 C 
ATOM     18  C   UNL     1      -9.710   6.221   2.818  0.00  0.00    +0.011 C 
ENDBRANCH   6  16
ENDBRANCH   1  12
BRANCH   5  19
ATOM     19  C   UNL     1      -1.176   3.222   0.025  0.00  0.00    +0.152 C 
BRANCH  19  20
ATOM     20  C   UNL     1      -1.156   1.715   0.017  0.00  0.00    -0.013 C 
ATOM     21  C   UNL     1      -0.013   1.076   0.008  0.00  0.00    +0.005 C 
ENDBRANCH  19  20
ENDBRANCH   5  19
BRANCH   4  22
ATOM     22  S   UNL     1       0.111   3.868  -2.952  0.00  0.00    -0.077 S 
BRANCH  22  23
ATOM     23  C   UNL     1      -0.120   4.419  -4.661  0.00  0.00    +0.173 C 
BRANCH  23  24
ATOM     24  C   UNL     1       1.203   4.388  -5.382  0.00  0.00    +0.231 C 
ATOM     25  O   UNL     1       2.203   4.028  -4.798  0.00  0.00    -0.274 OA
ATOM     26  N   UNL     1       1.275   4.759  -6.675  0.00  0.00    -0.240 N 
ATOM     27  C   UNL     1       2.458   4.731  -7.320  0.00  0.00    +0.306 C 
ATOM     28  O   UNL     1       3.461   4.371  -6.735  0.00  0.00    -0.252 OA
ATOM     29  N   UNL     1       2.530   5.102  -8.614  0.00  0.00    -0.297 N 
ATOM     30  H   UNL     1       0.475   5.046  -7.142  0.00  0.00    +0.159 HD
ATOM     31  H   UNL     1       1.729   5.389  -9.081  0.00  0.00    +0.150 HD
BRANCH  29  32
ATOM     32  C   UNL     1       3.816   5.072  -9.314  0.00  0.00    +0.133 C 
BRANCH  32  33
ATOM     33  C   UNL     1       3.620   5.537 -10.759  0.00  0.00    +0.178 C 
BRANCH  33  34
ATOM     34  O   UNL     1       3.218   6.908 -10.767  0.00  0.00    -0.381 OA
ATOM     35  C   UNL     1       3.007   7.444 -12.075  0.00  0.00    +0.194 C 
ENDBRANCH  33  34
ENDBRANCH  32  33
ENDBRANCH  29  32
ENDBRANCH  23  24
ENDBRANCH  22  23
ENDBRANCH   4  22
TORSDOF 10
