REMARK  Name = ZINC20774656
REMARK  6 active torsions:
REMARK  status: ('A' for Active; 'I' for Inactive)
REMARK    1  A    between atoms: C_1  and  C_2
REMARK    2  A    between atoms: C_2  and  C_3
REMARK    3  A    between atoms: C_6  and  C_10
REMARK    4  A    between atoms: C_7  and  C_9
REMARK    5  A    between atoms: C_10  and  N_11
REMARK    6  A    between atoms: C_24  and  C_26
REMARK                            x       y       z     vdW  Elec       q    Type
REMARK                         _______ _______ _______ _____ _____    ______ ____
ROOT
ATOM      1  N   UNL     1       2.714  -4.518   0.168  0.00  0.00    -0.284 NA
ATOM      2  C   UNL     1       1.566  -4.635  -0.742  0.00  0.00    +0.090 C 
ATOM      3  C   UNL     1       0.615  -3.451  -0.518  0.00  0.00    +0.053 C 
ATOM      4  C   UNL     1       1.438  -2.188  -0.527  0.00  0.00    -0.016 A 
ATOM      5  C   UNL     1       0.990  -0.809  -0.667  0.00  0.00    +0.003 A 
ATOM      6  C   UNL     1      -0.254  -0.195  -0.827  0.00  0.00    +0.010 A 
ATOM      7  C   UNL     1      -0.334   1.164  -0.933  0.00  0.00    +0.001 A 
ATOM      8  C   UNL     1       0.813   1.944  -0.883  0.00  0.00    +0.002 A 
ATOM      9  C   UNL     1       2.051   1.362  -0.725  0.00  0.00    +0.026 A 
ATOM     10  C   UNL     1       2.157  -0.020  -0.615  0.00  0.00    +0.047 A 
ATOM     11  N   UNL     1       3.224  -0.878  -0.453  0.00  0.00    -0.356 N 
ATOM     12  H   UNL     1       4.246  -0.478  -0.386  0.00  0.00    +0.166 HD
ATOM     13  C   UNL     1       2.780  -2.167  -0.402  0.00  0.00    +0.042 A 
ATOM     14  C   UNL     1       3.609  -3.420  -0.232  0.00  0.00    +0.137 C 
ENDROOT
BRANCH  14  15
ATOM     15  C   UNL     1       4.650  -3.198   0.835  0.00  0.00    +0.011 A 
ATOM     16  C   UNL     1       4.440  -3.674   2.115  0.00  0.00    +0.008 A 
ATOM     17  C   UNL     1       5.397  -3.477   3.092  0.00  0.00    +0.000 A 
ATOM     18  C   UNL     1       6.561  -2.792   2.793  0.00  0.00    +0.003 A 
ATOM     19  C   UNL     1       6.771  -2.311   1.515  0.00  0.00    +0.039 A 
ATOM     20  C   UNL     1       5.815  -2.513   0.534  0.00  0.00    +0.128 A 
ATOM     21  F   UNL     1       6.019  -2.043  -0.716  0.00  0.00    -0.205 F 
ENDBRANCH  14  15
BRANCH   1  22
ATOM     22  C   UNL     1       3.447  -5.788   0.256  0.00  0.00    +0.140 C 
BRANCH  22  26
ATOM     23  C   UNL     1       1.159  -8.636   0.366  0.00  0.00    +0.084 A 
ATOM     24  N   UNL     1       1.983  -7.819  -0.324  0.00  0.00    -0.346 N 
ATOM     25  H   UNL     1       2.136  -7.975  -1.402  0.00  0.00    +0.167 HD
ATOM     26  C   UNL     1       2.482  -6.904   0.564  0.00  0.00    +0.051 A 
ATOM     27  C   UNL     1       1.950  -7.197   1.766  0.00  0.00    +0.035 A 
ATOM     28  N   UNL     1       1.141  -8.256   1.615  0.00  0.00    -0.347 N 
ATOM     29  C   UNL     1       2.214  -6.461   3.054  0.00  0.00    +0.065 C 
ATOM     30  H   UNL     1       0.521  -8.796   2.345  0.00  0.00    +0.167 HD
BRANCH  23  32
ATOM     31  C   UNL     1       0.715 -11.067   0.574  0.00  0.00    +0.012 C 
ATOM     32  C   UNL     1       0.386  -9.795  -0.210  0.00  0.00    +0.069 C 
ENDBRANCH  23  32
ENDBRANCH  22  26
ENDBRANCH   1  22
TORSDOF 4
