REMARK  Name = ZINC32074506
REMARK  9 active torsions:
REMARK  status: ('A' for Active; 'I' for Inactive)
REMARK    1  A    between atoms: C_1  and  C_2
REMARK    2  A    between atoms: C_2  and  O_3
REMARK    3  A    between atoms: O_3  and  C_4
REMARK    4  A    between atoms: C_6  and  C_14
REMARK    5  A    between atoms: C_9  and  O_10
REMARK    6  A    between atoms: O_10  and  C_11
REMARK    7  A    between atoms: C_11  and  C_12
REMARK    8  A    between atoms: C_17  and  O_32
REMARK    9  A    between atoms: C_21  and  C_31
REMARK                            x       y       z     vdW  Elec       q    Type
REMARK                         _______ _______ _______ _____ _____    ______ ____
ROOT
ATOM      1  C   UNL     1       0.654  -4.954  -0.018  0.00  0.00    +0.063 C 
ATOM      2  C   UNL     1       0.622  -5.853  -1.260  0.00  0.00    +0.108 C 
ATOM      3  C   UNL     1      -0.353  -6.983  -1.096  0.00  0.00    +0.190 C 
ATOM      4  N   UNL     1      -0.598  -7.559   0.043  0.00  0.00    -0.197 NA
ATOM      5  C   UNL     1       0.017  -7.095   1.168  0.00  0.00    +0.165 A 
ATOM      6  C   UNL     1       0.634  -5.849   1.195  0.00  0.00    +0.027 A 
ATOM      7  C   UNL     1       1.161  -5.660   2.459  0.00  0.00    +0.066 A 
ATOM      8  N   UNL     1       0.881  -6.717   3.188  0.00  0.00    -0.168 NA
ATOM      9  N   UNL     1       0.153  -7.631   2.403  0.00  0.00    -0.194 N 
ATOM     10  C   UNL     1      -0.341  -8.870   2.822  0.00  0.00    +0.178 A 
ATOM     11  C   UNL     1       0.261  -9.538   3.886  0.00  0.00    +0.053 A 
ATOM     12  C   UNL     1      -0.265 -10.764   4.265  0.00  0.00    +0.045 A 
ATOM     13  C   UNL     1      -1.360 -11.249   3.560  0.00  0.00    +0.152 A 
ATOM     14  N   UNL     1      -1.866 -10.547   2.564  0.00  0.00    -0.136 NA
ATOM     15  N   UNL     1      -1.385  -9.409   2.214  0.00  0.00    -0.128 NA
ATOM     16 CL   UNL     1      -2.061 -12.778   3.989  0.00  0.00    -0.060 Cl
ATOM     17  C   UNL     1       1.926  -4.448   2.923  0.00  0.00    +0.068 C 
ENDROOT
BRANCH   1  20
ATOM     18  C   UNL     1      -1.498  -1.849   0.006  0.00  0.00    +0.162 A 
ATOM     19  C   UNL     1      -0.389  -2.680  -0.003  0.00  0.00    +0.053 A 
ATOM     20  C   UNL     1      -0.553  -4.052  -0.008  0.00  0.00    -0.036 A 
ATOM     21  C   UNL     1      -1.823  -4.600  -0.005  0.00  0.00    +0.008 A 
ATOM     22  C   UNL     1      -2.934  -3.777   0.004  0.00  0.00    +0.050 A 
ATOM     23  C   UNL     1      -2.776  -2.400   0.016  0.00  0.00    +0.163 A 
BRANCH  18  24
ATOM     24  O   UNL     1      -1.339  -0.499   0.012  0.00  0.00    -0.489 OA
BRANCH  24  26
ATOM     25  C   UNL     1      -0.019   1.526   0.010  0.00  0.00    +0.048 C 
ATOM     26  C   UNL     1       0.002  -0.004   0.002  0.00  0.00    +0.226 C 
ENDBRANCH  24  26
ENDBRANCH  18  24
BRANCH  23  27
ATOM     27  O   UNL     1      -3.868  -1.589   0.030  0.00  0.00    -0.476 OA
BRANCH  27  28
ATOM     28  C   UNL     1      -5.148  -2.225   0.039  0.00  0.00    +0.317 C 
BRANCH  28  29
ATOM     29  C   UNL     1      -6.204  -1.200   0.055  0.00  0.00    -0.065 C 
ATOM     30  C   UNL     1      -7.047  -0.382   0.067  0.00  0.00    +0.007 C 
ENDBRANCH  28  29
ENDBRANCH  27  28
ENDBRANCH  23  27
ENDBRANCH   1  20
BRANCH   3  31
ATOM     31  O   UNL     1      -1.010  -7.423  -2.188  0.00  0.00    -0.495 OA
ATOM     32  H   UNL     1      -1.621  -8.152  -2.013  0.00  0.00    +0.293 HD
ENDBRANCH   3  31
TORSDOF 7
