REMARK  Name = ZINC13988338
REMARK  11 active torsions:
REMARK  status: ('A' for Active; 'I' for Inactive)
REMARK    1  A    between atoms: C_1  and  C_2
REMARK    2  A    between atoms: C_7  and  O_8
REMARK    3  A    between atoms: O_8  and  C_9
REMARK    4  A    between atoms: C_9  and  C_10
REMARK    5  A    between atoms: N_12  and  N_13
REMARK    6  A    between atoms: N_13  and  C_14
REMARK    7  A    between atoms: C_14  and  N_16
REMARK    8  A    between atoms: C_17  and  C_19
REMARK    9  A    between atoms: C_19  and  C_20
REMARK   10  A    between atoms: C_19  and  C_21
REMARK   11  A    between atoms: C_19  and  C_22
REMARK                            x       y       z     vdW  Elec       q    Type
REMARK                         _______ _______ _______ _____ _____    ______ ____
ROOT
ATOM      1  C   UNL     1       1.030   3.512   0.011  0.00  0.00    +0.267 C 
ATOM      2  O   UNL     1      -0.097   3.960   0.024  0.00  0.00    -0.271 OA
ATOM      3  N   UNL     1       2.088   4.348   0.005  0.00  0.00    -0.232 N 
ATOM      4  H   UNL     1       2.989   3.989  -0.005  0.00  0.00    +0.173 HD
ENDROOT
BRANCH   3   5
ATOM      5  N   UNL     1       1.885   5.734   0.015  0.00  0.00    -0.245 N 
ATOM      6  H   UNL     1       0.984   6.092   0.025  0.00  0.00    +0.172 HD
BRANCH   5   7
ATOM      7  C   UNL     1       2.943   6.569   0.009  0.00  0.00    +0.153 C 
ATOM      8  S   UNL     1       2.696   8.263   0.021  0.00  0.00    -0.017 S 
BRANCH   7   9
ATOM      9  N   UNL     1       4.195   6.071  -0.005  0.00  0.00    -0.266 N 
ATOM     10  C   UNL     1       5.253   6.907  -0.011  0.00  0.00    +0.224 C 
ATOM     11  O   UNL     1       5.078   8.106  -0.003  0.00  0.00    -0.275 OA
ATOM     12  H   UNL     1       4.335   5.111  -0.012  0.00  0.00    +0.157 HD
BRANCH  10  13
ATOM     13  C   UNL     1       6.653   6.350  -0.027  0.00  0.00    +0.039 C 
ATOM     14  C   UNL     1       7.660   7.502  -0.031  0.00  0.00    +0.020 C 
ATOM     15  C   UNL     1       6.872   5.484   1.215  0.00  0.00    +0.020 C 
ATOM     16  C   UNL     1       6.848   5.498  -1.283  0.00  0.00    +0.020 C 
ENDBRANCH  10  13
ENDBRANCH   7   9
ENDBRANCH   5   7
ENDBRANCH   3   5
BRANCH   1  17
ATOM     17  C   UNL     1       1.248   2.021   0.001  0.00  0.00    +0.326 C 
BRANCH  17  18
ATOM     18  O   UNL     1      -0.016   1.355   0.009  0.00  0.00    -0.482 OA
BRANCH  18  25
ATOM     19  C   UNL     1      -2.505   0.019   0.038  0.00  0.00    +0.047 C 
ATOM     20  C   UNL     1      -1.189  -0.715   0.015  0.00  0.00    -0.007 A 
ATOM     21  C   UNL     1      -1.168  -2.096   0.003  0.00  0.00    +0.027 A 
ATOM     22  C   UNL     1       0.040  -2.771  -0.012  0.00  0.00    +0.041 A 
ATOM     23  C   UNL     1       1.229  -2.063  -0.020  0.00  0.00    +0.023 A 
ATOM     24  C   UNL     1       1.212  -0.682  -0.013  0.00  0.00    +0.047 A 
ATOM     25  C   UNL     1       0.002  -0.004   0.002  0.00  0.00    +0.124 A 
ATOM     26 CL   UNL     1       0.063  -4.506  -0.021  0.00  0.00    -0.084 Cl
ENDBRANCH  18  25
ENDBRANCH  17  18
ENDBRANCH   1  17
TORSDOF 7
