REMARK  Name = ZINC64111631
REMARK  7 active torsions:
REMARK  status: ('A' for Active; 'I' for Inactive)
REMARK    1  A    between atoms: C_1  and  C_2
REMARK    2  A    between atoms: C_3  and  C_8
REMARK    3  A    between atoms: C_4  and  C_7
REMARK    4  A    between atoms: C_8  and  N_9
REMARK    5  A    between atoms: N_12  and  C_15
REMARK    6  A    between atoms: C_15  and  N_16
REMARK    7  A    between atoms: N_22  and  C_25
REMARK                            x       y       z     vdW  Elec       q    Type
REMARK                         _______ _______ _______ _____ _____    ______ ____
ROOT
ATOM      1  C   UNL     1       4.917   1.419  -4.704  0.00  0.00    +0.205 C 
ENDROOT
BRANCH   1   2
ATOM      2  N   UNL     1       4.916   2.208  -5.939  0.00  0.00    -0.211 N 
ATOM      3  C   UNL     1       4.824   1.678  -7.177  0.00  0.00    +0.247 C 
ATOM      4  O   UNL     1       4.730   0.504  -7.468  0.00  0.00    -0.273 OA
ATOM      5  C   UNL     1       4.862   2.855  -8.123  0.00  0.00    +0.109 C 
ATOM      6  C   UNL     1       6.071   2.758  -9.048  0.00  0.00    +0.017 C 
ATOM      7  C   UNL     1       6.057   3.938 -10.024  0.00  0.00    -0.077 C 
ATOM      8  N   UNL     1       4.814   3.915 -10.805  0.00  0.00    +0.378 N 
ATOM      9  C   UNL     1       3.661   4.102  -9.916  0.00  0.00    -0.077 C 
ATOM     10  C   UNL     1       3.573   2.929  -8.936  0.00  0.00    +0.017 C 
ATOM     11  C   UNL     1       4.843   4.995 -11.800  0.00  0.00    -0.096 C 
ATOM     12  N   UNL     1       4.982   4.021  -7.239  0.00  0.00    -0.285 N 
ATOM     13  C   UNL     1       5.000   3.543  -5.980  0.00  0.00    +0.310 C 
ATOM     14  O   UNL     1       5.087   4.245  -4.991  0.00  0.00    -0.252 OA
ATOM     15  H   UNL     1       5.034   4.951  -7.508  0.00  0.00    +0.151 HD
ATOM     16  H   UNL     1       4.732   3.027 -11.278  0.00  0.00    -0.082 HD
ENDBRANCH   1   2
BRANCH   1  20
ATOM     17  N   UNL     1       1.375  -0.174  -3.042  0.00  0.00    -0.296 NA
ATOM     18  C   UNL     1       2.045   0.917  -2.320  0.00  0.00    +0.100 C 
ATOM     19  C   UNL     1       3.500   1.013  -2.782  0.00  0.00    +0.101 C 
ATOM     20  N   UNL     1       3.536   1.246  -4.233  0.00  0.00    -0.284 NA
ATOM     21  C   UNL     1       2.867   0.155  -4.955  0.00  0.00    +0.101 C 
ATOM     22  C   UNL     1       1.411   0.058  -4.492  0.00  0.00    +0.100 C 
BRANCH  17  23
ATOM     23  C   UNL     1      -0.005  -0.348  -2.571  0.00  0.00    +0.125 C 
BRANCH  23  26
ATOM     24  C   UNL     1      -0.018   1.503   0.010  0.00  0.00    +0.069 C 
ATOM     25  C   UNL     1       0.002  -0.004   0.002  0.00  0.00    +0.085 A 
ATOM     26  C   UNL     1       0.008  -0.824  -1.141  0.00  0.00    +0.031 A 
ATOM     27  C   UNL     1       0.027  -2.108  -0.735  0.00  0.00    +0.139 A 
ATOM     28  O   UNL     1       0.034  -2.119   0.606  0.00  0.00    -0.359 OA
ATOM     29  N   UNL     1       0.023  -0.775   1.052  0.00  0.00    -0.083 NA
ATOM     30  C   UNL     1       0.039  -3.320  -1.631  0.00  0.00    +0.089 C 
ENDBRANCH  23  26
ENDBRANCH  17  23
ENDBRANCH   1  20
TORSDOF 4
