REMARK  Name = ZINC09137499
REMARK  6 active torsions:
REMARK  status: ('A' for Active; 'I' for Inactive)
REMARK    1  A    between atoms: C_1  and  N_2
REMARK    2  A    between atoms: C_11  and  S_12
REMARK    3  A    between atoms: S_12  and  C_13
REMARK    4  A    between atoms: C_13  and  C_14
REMARK    5  A    between atoms: N_16  and  C_17
REMARK    6  A    between atoms: C_18  and  C_26
REMARK                            x       y       z     vdW  Elec       q    Type
REMARK                         _______ _______ _______ _____ _____    ______ ____
ROOT
ATOM      1  C   UNL     1      -5.566   1.716  -0.926  0.00  0.00    +0.228 C 
ATOM      2  O   UNL     1      -5.158   1.327  -2.001  0.00  0.00    -0.275 OA
ATOM      3  N   UNL     1      -6.877   1.981  -0.759  0.00  0.00    -0.279 N 
ATOM      4  H   UNL     1      -7.203   2.292   0.100  0.00  0.00    +0.155 HD
ENDROOT
BRANCH   3   5
ATOM      5  C   UNL     1      -7.759   1.810  -1.815  0.00  0.00    +0.084 A 
ATOM      6  C   UNL     1      -9.130   2.022  -1.836  0.00  0.00    +0.068 A 
ATOM      7  C   UNL     1      -9.830   1.768  -3.084  0.00  0.00    -0.023 A 
ATOM      8  C   UNL     1      -9.053   1.336  -4.101  0.00  0.00    -0.004 A 
ATOM      9  S   UNL     1      -7.418   1.271  -3.426  0.00  0.00    -0.077 S 
ATOM     10  C   UNL     1      -9.494   0.991  -5.490  0.00  0.00    +0.043 C 
ATOM     11  C   UNL     1     -11.023   0.841  -5.489  0.00  0.00    +0.005 C 
ATOM     12  C   UNL     1     -11.636   2.043  -4.765  0.00  0.00    +0.005 C 
ATOM     13  C   UNL     1     -11.330   1.959  -3.268  0.00  0.00    +0.037 C 
BRANCH   6  14
ATOM     14  C   UNL     1      -9.845   2.490  -0.644  0.00  0.00    +0.244 C 
ATOM     15  O   UNL     1      -9.983   3.683  -0.446  0.00  0.00    -0.270 OA
ATOM     16  N   UNL     1     -10.350   1.598   0.231  0.00  0.00    -0.325 N 
ATOM     17  H   UNL     1     -10.240   0.647   0.073  0.00  0.00    +0.145 HD
ATOM     18  H   UNL     1     -10.823   1.907   1.020  0.00  0.00    +0.145 HD
ENDBRANCH   6  14
ENDBRANCH   3   5
BRANCH   1  19
ATOM     19  C   UNL     1      -4.607   1.902   0.221  0.00  0.00    +0.173 C 
BRANCH  19  20
ATOM     20  S   UNL     1      -2.933   1.467  -0.315  0.00  0.00    -0.078 S 
BRANCH  20  31
ATOM     21  C   UNL     1      -0.013   1.086   0.008  0.00  0.00    +0.154 C 
ATOM     22  N   UNL     1      -0.698   1.558   1.213  0.00  0.00    -0.290 N 
ATOM     23  C   UNL     1       0.014   1.782   2.334  0.00  0.00    +0.263 A 
ATOM     24  O   UNL     1       1.218   1.593   2.350  0.00  0.00    -0.267 OA
ATOM     25  C   UNL     1      -0.665   2.244   3.505  0.00  0.00    +0.076 A 
ATOM     26  C   UNL     1      -0.088   2.549   4.825  0.00  0.00    -0.023 A 
ATOM     27  C   UNL     1      -0.937   2.973   5.775  0.00  0.00    -0.004 A 
ATOM     28  S   UNL     1      -2.533   2.992   4.992  0.00  0.00    -0.073 S 
ATOM     29  C   UNL     1      -2.050   2.429   3.381  0.00  0.00    +0.117 A 
ATOM     30  N   UNL     1      -2.695   2.189   2.245  0.00  0.00    -0.216 NA
ATOM     31  C   UNL     1      -2.046   1.769   1.178  0.00  0.00    +0.173 A 
ATOM     32  C   UNL     1      -0.236   3.257   7.076  0.00  0.00    +0.043 C 
ATOM     33  C   UNL     1       1.257   3.363   6.698  0.00  0.00    +0.010 C 
ATOM     34  C   UNL     1       1.320   2.497   5.425  0.00  0.00    +0.037 C 
ENDBRANCH  20  31
ENDBRANCH  19  20
ENDBRANCH   1  19
TORSDOF 5
