REMARK  Name = ZINC58436269
REMARK  7 active torsions:
REMARK  status: ('A' for Active; 'I' for Inactive)
REMARK    1  A    between atoms: C_1  and  C_2
REMARK    2  A    between atoms: C_2  and  C_3
REMARK    3  A    between atoms: C_2  and  C_4
REMARK    4  A    between atoms: C_4  and  C_6
REMARK    5  A    between atoms: C_4  and  N_19
REMARK    6  A    between atoms: N_8  and  C_9
REMARK    7  A    between atoms: C_20  and  C_22
REMARK                            x       y       z     vdW  Elec       q    Type
REMARK                         _______ _______ _______ _____ _____    ______ ____
ROOT
ATOM      1  C   UNL     1      -1.199  -0.537  -0.016  0.00  0.00    +0.162 C 
ENDROOT
BRANCH   1   2
ATOM      2  C   UNL     1      -1.174  -2.041   0.077  0.00  0.00    +0.234 C 
ATOM      3  O   UNL     1      -1.618  -2.712  -0.831  0.00  0.00    -0.274 OA
ATOM      4  N   UNL     1      -0.658  -2.641   1.168  0.00  0.00    -0.307 N 
ATOM      5  H   UNL     1      -0.237  -2.108   1.861  0.00  0.00    +0.149 HD
BRANCH   4   6
ATOM      6  C   UNL     1      -0.734  -4.097   1.308  0.00  0.00    +0.104 C 
ATOM      7  C   UNL     1       0.374  -4.602   2.256  0.00  0.00    +0.032 C 
ATOM      8  C   UNL     1      -0.316  -5.782   2.973  0.00  0.00    +0.037 C 
ATOM      9  C   UNL     1      -1.794  -5.462   2.930  0.00  0.00    -0.042 A 
ATOM     10  C   UNL     1      -2.036  -4.494   1.970  0.00  0.00    -0.024 A 
ATOM     11  C   UNL     1      -3.327  -4.044   1.752  0.00  0.00    +0.006 A 
ATOM     12  C   UNL     1      -4.377  -4.559   2.489  0.00  0.00    +0.000 A 
ATOM     13  C   UNL     1      -4.138  -5.527   3.446  0.00  0.00    +0.000 A 
ATOM     14  C   UNL     1      -2.846  -5.977   3.668  0.00  0.00    +0.004 A 
ENDBRANCH   4   6
ENDBRANCH   1   2
BRANCH   1  15
ATOM     15  N   UNL     1      -2.253  -0.122  -0.944  0.00  0.00    -0.300 N 
ATOM     16  C   UNL     1      -2.810   1.100  -0.830  0.00  0.00    +0.245 C 
ATOM     17  O   UNL     1      -2.437   1.858   0.044  0.00  0.00    -0.270 OA
ATOM     18  H   UNL     1      -2.551  -0.727  -1.641  0.00  0.00    +0.150 HD
BRANCH  16  19
ATOM     19  C   UNL     1      -3.873   1.518  -1.766  0.00  0.00    +0.037 A 
ATOM     20  C   UNL     1      -4.308   0.647  -2.767  0.00  0.00    +0.016 A 
ATOM     21  C   UNL     1      -5.300   1.043  -3.638  0.00  0.00    +0.039 A 
ATOM     22  C   UNL     1      -5.867   2.303  -3.522  0.00  0.00    +0.123 A 
ATOM     23  C   UNL     1      -5.439   3.172  -2.530  0.00  0.00    +0.039 A 
ATOM     24  C   UNL     1      -4.451   2.784  -1.649  0.00  0.00    +0.016 A 
ATOM     25  F   UNL     1      -6.838   2.686  -4.379  0.00  0.00    -0.205 F 
ENDBRANCH  16  19
ENDBRANCH   1  15
BRANCH   1  27
ATOM     26  C   UNL     1       0.368  -0.510  -1.962  0.00  0.00    +0.009 C 
ATOM     27  C   UNL     1       0.154  -0.034  -0.523  0.00  0.00    +0.012 C 
ATOM     28  C   UNL     1       0.178   1.495  -0.482  0.00  0.00    +0.009 C 
ENDBRANCH   1  27
TORSDOF 5
