REMARK  Name = ZINC03647443
REMARK  5 active torsions:
REMARK  status: ('A' for Active; 'I' for Inactive)
REMARK    1  A    between atoms: C_1  and  C_2
REMARK    2  A    between atoms: C_14  and  C_17
REMARK    3  A    between atoms: C_19  and  O_25
REMARK    4  A    between atoms: C_20  and  O_24
REMARK    5  A    between atoms: O_25  and  C_26
REMARK                            x       y       z     vdW  Elec       q    Type
REMARK                         _______ _______ _______ _____ _____    ______ ____
ROOT
ATOM      1  C   UNL     1      -1.759  -3.372   0.087  0.00  0.00    +0.008 C 
ATOM      2  C   UNL     1      -0.663  -2.343   0.372  0.00  0.00    -0.009 C 
ATOM      3  C   UNL     1       0.571  -2.659  -0.479  0.00  0.00    +0.008 C 
ATOM      4  C   UNL     1       1.749  -1.796  -0.026  0.00  0.00    +0.037 C 
ATOM      5  C   UNL     1       1.312  -0.335  -0.012  0.00  0.00    -0.023 A 
ATOM      6  C   UNL     1       0.002  -0.004   0.002  0.00  0.00    -0.004 A 
ATOM      7  S   UNL     1      -0.022   1.769   0.012  0.00  0.00    -0.078 S 
ATOM      8  C   UNL     1       1.665   2.060  -0.003  0.00  0.00    +0.080 A 
ATOM      9  C   UNL     1       2.243   0.782  -0.012  0.00  0.00    +0.068 A 
ATOM     10  C   UNL     1       3.722   0.700  -0.030  0.00  0.00    +0.248 C 
ATOM     11  O   UNL     1       4.296  -0.365  -0.162  0.00  0.00    -0.270 OA
ATOM     12  N   UNL     1       4.407   1.855   0.106  0.00  0.00    -0.289 N 
ATOM     13  C   UNL     1       3.787   3.117   0.497  0.00  0.00    +0.190 C 
ATOM     14  N   UNL     1       2.406   3.214  -0.010  0.00  0.00    -0.316 N 
ATOM     15  C   UNL     1      -1.167  -0.939   0.009  0.00  0.00    +0.046 C 
ATOM     16  H   UNL     1       5.487   1.812  -0.096  0.00  0.00    +0.151 HD
ATOM     17  H   UNL     1       2.018   4.179  -0.370  0.00  0.00    +0.149 HD
ENDROOT
BRANCH  13  18
ATOM     18  C   UNL     1       3.767   3.212   2.001  0.00  0.00    -0.005 A 
ATOM     19  C   UNL     1       4.753   2.590   2.744  0.00  0.00    +0.056 A 
ATOM     20  C   UNL     1       4.740   2.681   4.126  0.00  0.00    +0.163 A 
ATOM     21  C   UNL     1       3.727   3.390   4.765  0.00  0.00    +0.173 A 
ATOM     22  C   UNL     1       2.738   4.006   4.014  0.00  0.00    +0.063 A 
ATOM     23  C   UNL     1       2.760   3.916   2.634  0.00  0.00    +0.026 A 
ATOM     24 BR   UNL     1       1.359   4.971   4.877  0.00  0.00    -0.046 Br
BRANCH  21  25
ATOM     25  O   UNL     1       3.706   3.477   6.122  0.00  0.00    -0.503 OA
ATOM     26  H   UNL     1       2.905   4.037   6.625  0.00  0.00    +0.292 HD
ENDBRANCH  21  25
BRANCH  20  27
ATOM     27  O   UNL     1       5.713   2.075   4.859  0.00  0.00    -0.491 OA
ATOM     28  C   UNL     1       6.721   1.365   4.136  0.00  0.00    +0.277 C 
ENDBRANCH  20  27
ENDBRANCH  13  18
TORSDOF 3
