REMARK  Name = ZINC02983070
REMARK  8 active torsions:
REMARK  status: ('A' for Active; 'I' for Inactive)
REMARK    1  A    between atoms: C_5  and  C_7
REMARK    2  A    between atoms: N_9  and  C_10
REMARK    3  A    between atoms: C_10  and  C_21
REMARK    4  A    between atoms: C_11  and  C_12
REMARK    5  A    between atoms: C_16  and  N_18
REMARK    6  A    between atoms: N_23  and  CA_24
REMARK    7  A    between atoms: CA_24  and  C_25
REMARK    8  A    between atoms: C_25  and  O_26
REMARK                            x       y       z     vdW  Elec       q    Type
REMARK                         _______ _______ _______ _____ _____    ______ ____
ROOT
ATOM      1  C   UNK A   1       1.443   1.969   0.350  0.00  0.00    +0.097 C 
ATOM      2  C   UNK A   1       2.777   1.756   0.416  0.00  0.00    +0.036 C 
ENDROOT
BRANCH   2   3
ATOM      3  C   UNK A   1       3.693   2.889   0.617  0.00  0.00    -0.021 A 
ATOM      4  C   UNK A   1       4.851   2.729   1.386  0.00  0.00    +0.008 A 
ATOM      5  C   UNK A   1       5.705   3.796   1.570  0.00  0.00    +0.003 A 
ATOM      6  C   UNK A   1       5.420   5.022   0.995  0.00  0.00    +0.033 A 
ATOM      7  C   UNK A   1       4.277   5.189   0.233  0.00  0.00    +0.127 A 
ATOM      8  C   UNK A   1       3.415   4.130   0.036  0.00  0.00    +0.040 A 
BRANCH   7   9
ATOM      9  N   UNK A   1       3.982   6.504  -0.378  0.00  0.00    +0.056 N 
ATOM     10  O   UNK A   1       4.744   7.439  -0.209  0.00  0.00    -0.126 OA
ATOM     11  O   UNK A   1       2.976   6.652  -1.049  0.00  0.00    -0.126 OA
ENDBRANCH   7   9
ENDBRANCH   2   3
BRANCH   1  14
ATOM     12  C   UNK A   0      -0.754   1.097   0.085  0.00  0.00    +0.250 C 
ATOM     13  O   UNK A   0      -1.207   2.204   0.301  0.00  0.00    -0.270 OA
ATOM     14  N   UNK A   1       0.581   0.911   0.046  0.00  0.00    -0.277 N 
ATOM     15  H   UNK A   1       0.943   0.045  -0.197  0.00  0.00    +0.155 HD
BRANCH  12  20
ATOM     16  C   UNK A   0      -2.004  -2.379  -0.587  0.00  0.00    +0.001 A 
ATOM     17  C   UNK A   0      -3.374  -2.186  -0.546  0.00  0.00    +0.001 A 
ATOM     18  C   UNK A   0      -3.895  -0.929  -0.300  0.00  0.00    +0.021 A 
ATOM     19  C   UNK A   0      -3.049   0.144  -0.094  0.00  0.00    +0.053 A 
ATOM     20  C   UNK A   0      -1.665  -0.045  -0.134  0.00  0.00    +0.055 A 
ATOM     21  C   UNK A   0      -1.148  -1.317  -0.388  0.00  0.00    +0.014 A 
ATOM     22 CL   UNK A   0      -3.704   1.722   0.214  0.00  0.00    -0.083 Cl
ENDBRANCH  12  20
ENDBRANCH   1  14
BRANCH   1  23
ATOM     23  C   UNK A   1       0.899   3.312   0.598  0.00  0.00    +0.258 C 
ATOM     24  O   UNK A   1       0.428   3.957  -0.321  0.00  0.00    -0.269 OA
ATOM     25  N   GLY A   2       0.923   3.830   1.842  0.00  0.00    -0.308 N 
ATOM     26  H   GLY A   2       1.354   3.343   2.561  0.00  0.00    +0.149 HD
BRANCH  25  27
ATOM     27  CA  GLY A   2       0.296   5.127   2.107  0.00  0.00    +0.132 C 
BRANCH  27  28
ATOM     28  C   GLY A   2       0.563   5.535   3.558  0.00  0.00    +0.174 C 
BRANCH  28  29
ATOM     29  O   GLY A   2       1.964   5.748   3.742  0.00  0.00    -0.393 OA
ATOM     30  H   GLY A   2       2.216   5.936   4.657  0.00  0.00    +0.209 HD
ENDBRANCH  28  29
ENDBRANCH  27  28
ENDBRANCH  25  27
ENDBRANCH   1  23
TORSDOF 8
