REMARK  Name = ZINC04601342
REMARK  9 active torsions:
REMARK  status: ('A' for Active; 'I' for Inactive)
REMARK    1  A    between atoms: C_1  and  C_2
REMARK    2  A    between atoms: C_2  and  C_3
REMARK    3  A    between atoms: C_3  and  O_4
REMARK    4  A    between atoms: O_4  and  C_5
REMARK    5  A    between atoms: C_5  and  C_7
REMARK    6  A    between atoms: C_8  and  C_24
REMARK    7  A    between atoms: C_13  and  C_15
REMARK    8  A    between atoms: C_18  and  O_22
REMARK    9  A    between atoms: O_22  and  C_23
REMARK                            x       y       z     vdW  Elec       q    Type
REMARK                         _______ _______ _______ _____ _____    ______ ____
ROOT
ATOM      1  C   UNL     1      -3.194   4.857   1.443  0.00  0.00    +0.078 C 
ATOM      2  C   UNL     1      -4.277   4.096   1.712  0.00  0.00    +0.021 C 
ATOM      3  N   UNL     1      -4.897   3.380   0.728  0.00  0.00    -0.273 N 
ATOM      4  C   UNL     1      -4.496   3.372  -0.550  0.00  0.00    +0.304 C 
ATOM      5  O   UNL     1      -5.113   2.702  -1.355  0.00  0.00    -0.252 OA
ATOM      6  N   UNL     1      -3.431   4.082  -0.972  0.00  0.00    -0.288 N 
ATOM      7  C   UNL     1      -2.692   4.889   0.014  0.00  0.00    +0.144 C 
ATOM      8  C   UNL     1      -4.809   4.035   3.120  0.00  0.00    +0.061 C 
ATOM      9  H   UNL     1      -5.672   2.848   0.968  0.00  0.00    +0.156 HD
ATOM     10  H   UNL     1      -3.158   4.062  -1.902  0.00  0.00    +0.151 HD
ENDROOT
BRANCH   7  11
ATOM     11  C   UNL     1      -1.259   4.423   0.014  0.00  0.00    -0.021 A 
ATOM     12  C   UNL     1      -0.232   5.348  -0.040  0.00  0.00    +0.009 A 
ATOM     13  C   UNL     1       1.083   4.924  -0.038  0.00  0.00    +0.047 A 
ATOM     14  C   UNL     1       1.373   3.568   0.017  0.00  0.00    +0.134 A 
ATOM     15  C   UNL     1       0.341   2.642   0.070  0.00  0.00    +0.060 A 
ATOM     16  C   UNL     1      -0.973   3.071   0.064  0.00  0.00    +0.024 A 
ATOM     17 BR   UNL     1       0.733   0.793   0.145  0.00  0.00    -0.047 Br
BRANCH  14  18
ATOM     18  O   UNL     1       2.666   3.149   0.018  0.00  0.00    -0.494 OA
ATOM     19  C   UNL     1       3.676   4.159  -0.039  0.00  0.00    +0.277 C 
ENDBRANCH  14  18
ENDBRANCH   7  11
BRANCH   1  20
ATOM     20  C   UNL     1      -2.551   5.599   2.461  0.00  0.00    +0.339 C 
ATOM     21  O   UNL     1      -3.036   5.650   3.576  0.00  0.00    -0.245 OA
BRANCH  20  22
ATOM     22  O   UNL     1      -1.399   6.251   2.196  0.00  0.00    -0.461 OA
BRANCH  22  23
ATOM     23  C   UNL     1      -0.805   6.981   3.271  0.00  0.00    +0.232 C 
BRANCH  23  25
ATOM     24  C   UNL     1       1.120   8.429   3.934  0.00  0.00    +0.007 C 
ATOM     25  C   UNL     1       0.483   7.648   2.783  0.00  0.00    +0.038 C 
ENDBRANCH  23  25
ENDBRANCH  22  23
ENDBRANCH  20  22
ENDBRANCH   1  20
TORSDOF 6
