REMARK  Name = ZINC14991293
REMARK  12 active torsions:
REMARK  status: ('A' for Active; 'I' for Inactive)
REMARK    1  A    between atoms: C_1  and  C_2
REMARK    2  A    between atoms: C_4  and  C_37
REMARK    3  A    between atoms: N_5  and  C_7
REMARK    4  A    between atoms: C_7  and  C_8
REMARK    5  A    between atoms: C_12  and  C_14
REMARK    6  A    between atoms: C_19  and  O_22
REMARK    7  A    between atoms: O_22  and  C_23
REMARK    8  A    between atoms: C_27  and  C_29
REMARK    9  A    between atoms: C_29  and  N_74
REMARK   10  A    between atoms: C_30  and  N_74
REMARK   11  A    between atoms: C_31  and  C_32
REMARK   12  A    between atoms: C_31  and  N_74
REMARK                            x       y       z     vdW  Elec       q    Type
REMARK                         _______ _______ _______ _____ _____    ______ ____
ROOT
ATOM      1  C   UNL     1       8.666   6.854  -9.151  0.00  0.00    +0.247 C 
ATOM      2  O   UNL     1       9.755   6.562  -9.605  0.00  0.00    -0.270 OA
ATOM      3  N   UNL     1       8.143   6.133  -8.139  0.00  0.00    -0.297 N 
ATOM      4  C   UNL     1       6.810   6.447  -7.608  0.00  0.00    +0.111 C 
ATOM      5  C   UNL     1       6.916   6.641  -6.092  0.00  0.00    +0.063 C 
ATOM      6  C   UNL     1       7.566   5.403  -5.468  0.00  0.00    +0.176 C 
ATOM      7  C   UNL     1       8.977   5.227  -6.033  0.00  0.00    +0.063 C 
ATOM      8  C   UNL     1       8.894   5.017  -7.548  0.00  0.00    +0.111 C 
ENDROOT
BRANCH   1  13
ATOM      9  C   UNL     1       7.894  10.178 -10.719  0.00  0.00    -0.025 A 
ATOM     10  C   UNL     1       6.511  10.146 -10.750  0.00  0.00    +0.005 A 
ATOM     11  C   UNL     1       5.827   9.047 -10.262  0.00  0.00    +0.001 A 
ATOM     12  C   UNL     1       6.521   7.972  -9.746  0.00  0.00    +0.013 A 
ATOM     13  C   UNL     1       7.916   8.000  -9.707  0.00  0.00    +0.037 A 
ATOM     14  C   UNL     1       8.600   9.112 -10.201  0.00  0.00    +0.018 A 
BRANCH   9  15
ATOM     15  C   UNL     1       8.631  11.379 -11.253  0.00  0.00    +0.178 C 
BRANCH  15  20
ATOM     16  C   UNL     1       8.124  11.459 -16.246  0.00  0.00    +0.067 C 
ATOM     17  C   UNL     1       8.669  11.232 -14.859  0.00  0.00    +0.060 A 
ATOM     18  C   UNL     1       9.890  10.626 -14.547  0.00  0.00    +0.047 A 
ATOM     19  C   UNL     1      10.017  10.616 -13.200  0.00  0.00    +0.037 A 
ATOM     20  N   UNL     1       8.911  11.187 -12.678  0.00  0.00    -0.264 N 
ATOM     21  N   UNL     1       8.081  11.569 -13.740  0.00  0.00    -0.176 NA
ATOM     22  C   UNL     1      11.182  10.062 -12.421  0.00  0.00    +0.065 C 
ENDBRANCH  15  20
ENDBRANCH   9  15
ENDBRANCH   1  13
BRANCH   6  23
ATOM     23  O   UNL     1       7.638   5.567  -4.050  0.00  0.00    -0.489 OA
BRANCH  23  24
ATOM     24  C   UNL     1       7.721   4.436  -3.302  0.00  0.00    +0.121 A 
ATOM     25  C   UNL     1       7.654   3.192  -3.913  0.00  0.00    +0.045 A 
ATOM     26  C   UNL     1       7.738   2.043  -3.150  0.00  0.00    +0.004 A 
ATOM     27  C   UNL     1       7.895   2.133  -1.779  0.00  0.00    +0.002 A 
ATOM     28  C   UNL     1       7.957   3.371  -1.167  0.00  0.00    -0.060 A 
ATOM     29  C   UNL     1       7.873   4.522  -1.926  0.00  0.00    +0.047 A 
BRANCH  28  30
ATOM     30  C   UNL     1       8.122   3.464   0.328  0.00  0.00    -0.043 C 
BRANCH  30  32
ATOM     31  C   UNL     1       6.092   2.222   0.771  0.00  0.00    -0.095 C 
ATOM     32  N   UNL     1       6.784   3.515   0.953  0.00  0.00    +0.383 N 
ATOM     33  H   UNL     1       6.233   4.255   0.501  0.00  0.00    -0.081 HD
BRANCH  32  34
ATOM     34  C   UNL     1       6.911   3.822   2.393  0.00  0.00    -0.040 C 
BRANCH  34  35
ATOM     35  C   UNL     1       5.538   4.086   2.957  0.00  0.00    -0.026 A 
ATOM     36  C   UNL     1       4.667   3.133   3.532  0.00  0.00    +0.043 A 
ATOM     37  C   UNL     1       3.555   3.794   3.901  0.00  0.00    +0.195 A 
ATOM     38  O   UNL     1       3.706   5.090   3.581  0.00  0.00    -0.471 OA
ATOM     39  C   UNL     1       4.907   5.272   3.008  0.00  0.00    +0.196 A 
ENDBRANCH  34  35
ENDBRANCH  32  34
ENDBRANCH  30  32
ENDBRANCH  28  30
ENDBRANCH  23  24
ENDBRANCH   6  23
TORSDOF 9
