REMARK  Name = ZINC13064449
REMARK  11 active torsions:
REMARK  status: ('A' for Active; 'I' for Inactive)
REMARK    1  A    between atoms: C_1  and  C_2
REMARK    2  A    between atoms: C_2  and  C_3
REMARK    3  A    between atoms: C_3  and  C_5
REMARK    4  A    between atoms: C_3  and  N_66
REMARK    5  A    between atoms: N_9  and  C_10
REMARK    6  A    between atoms: C_15  and  C_16
REMARK    7  A    between atoms: C_15  and  N_66
REMARK    8  A    between atoms: C_16  and  C_17
REMARK    9  A    between atoms: C_17  and  O_18
REMARK   10  A    between atoms: C_19  and  C_20
REMARK   11  A    between atoms: C_19  and  N_66
REMARK                            x       y       z     vdW  Elec       q    Type
REMARK                         _______ _______ _______ _____ _____    ______ ____
ROOT
ATOM      1  N   UNL     1      -5.510   4.069  -1.656  0.00  0.00    +0.389 N 
ATOM      2  H   UNL     1      -4.917   4.499  -2.375  0.00  0.00    -0.080 HD
ENDROOT
BRANCH   1   3
ATOM      3  C   UNL     1      -6.803   4.784  -1.609  0.00  0.00    +0.003 C 
BRANCH   3   4
ATOM      4  C   UNL     1      -6.557   6.242  -1.905  0.00  0.00    +0.138 A 
ATOM      5  N   UNL     1      -5.573   6.978  -1.448  0.00  0.00    -0.115 NA
ATOM      6  N   UNL     1      -5.710   8.166  -1.927  0.00  0.00    -0.023 NA
ATOM      7  N   UNL     1      -6.755   8.207  -2.678  0.00  0.00    -0.044 NA
ATOM      8  N   UNL     1      -7.302   7.038  -2.694  0.00  0.00    -0.228 N 
BRANCH   8   9
ATOM      9  C   UNL     1      -8.509   6.652  -3.429  0.00  0.00    +0.111 C 
ATOM     10  C   UNL     1      -8.316   6.916  -4.937  0.00  0.00    +0.027 C 
ATOM     11  C   UNL     1      -9.705   7.408  -5.416  0.00  0.00    +0.002 C 
ATOM     12  C   UNL     1     -10.189   8.277  -4.229  0.00  0.00    +0.002 C 
ATOM     13  C   UNL     1      -9.699   7.516  -2.979  0.00  0.00    +0.027 C 
ENDBRANCH   8   9
ENDBRANCH   3   4
BRANCH   3  15
ATOM     14  C   UNL     1      -7.820   3.183   0.017  0.00  0.00    +0.002 C 
ATOM     15  C   UNL     1      -7.441   4.645  -0.225  0.00  0.00    -0.011 C 
ENDBRANCH   3  15
ENDBRANCH   1   3
BRANCH   1  16
ATOM     16  C   UNL     1      -5.731   2.649  -2.002  0.00  0.00    -0.075 C 
BRANCH  16  17
ATOM     17  C   UNL     1      -6.230   2.565  -3.445  0.00  0.00    +0.009 C 
BRANCH  17  18
ATOM     18  C   UNL     1      -6.324   1.097  -3.867  0.00  0.00    +0.154 C 
BRANCH  18  19
ATOM     19  O   UNL     1      -6.790   1.018  -5.216  0.00  0.00    -0.395 OA
ATOM     20  H   UNL     1      -6.874   0.115  -5.551  0.00  0.00    +0.209 HD
ENDBRANCH  18  19
ENDBRANCH  17  18
ENDBRANCH  16  17
ENDBRANCH   1  16
BRANCH   1  21
ATOM     21  C   UNL     1      -4.829   4.171  -0.348  0.00  0.00    -0.037 C 
BRANCH  21  22
ATOM     22  C   UNL     1      -3.396   3.736  -0.513  0.00  0.00    +0.001 A 
ATOM     23  C   UNL     1      -2.430   4.663  -0.738  0.00  0.00    +0.017 A 
ATOM     24  C   UNL     1      -1.049   4.208  -0.900  0.00  0.00    +0.002 A 
ATOM     25  C   UNL     1      -0.014   5.117  -1.153  0.00  0.00    +0.059 A 
ATOM     26  C   UNL     1       1.278   4.659  -1.303  0.00  0.00    +0.163 A 
ATOM     27  C   UNL     1       1.556   3.293  -1.202  0.00  0.00    +0.164 A 
ATOM     28  C   UNL     1       0.539   2.388  -0.952  0.00  0.00    +0.075 A 
ATOM     29  C   UNL     1      -0.768   2.832  -0.805  0.00  0.00    +0.053 A 
ATOM     30  N   UNL     1      -1.795   1.942  -0.563  0.00  0.00    -0.322 N 
ATOM     31  H   UNL     1      -1.600   0.994  -0.494  0.00  0.00    +0.169 HD
ATOM     32  C   UNL     1      -3.062   2.370  -0.421  0.00  0.00    +0.251 A 
ATOM     33  O   UNL     1      -3.944   1.555  -0.209  0.00  0.00    -0.268 OA
ATOM     34  O   UNL     1       2.829   2.833  -1.345  0.00  0.00    -0.485 OA
ATOM     35  C   UNL     1       3.767   3.718  -1.966  0.00  0.00    +0.270 C 
ATOM     36  C   UNL     1       3.614   5.106  -1.330  0.00  0.00    +0.270 C 
ATOM     37  O   UNL     1       2.273   5.555  -1.553  0.00  0.00    -0.485 OA
ENDBRANCH  21  22
ENDBRANCH   1  21
TORSDOF 10
