REMARK  Name = ZINC34747099
REMARK  6 active torsions:
REMARK  status: ('A' for Active; 'I' for Inactive)
REMARK    1  A    between atoms: C_1  and  C_2
REMARK    2  A    between atoms: C_2  and  N_3
REMARK    3  A    between atoms: N_22  and  C_23
REMARK    4  A    between atoms: C_23  and  C_24
REMARK    5  A    between atoms: C_24  and  C_25
REMARK    6  A    between atoms: C_24  and  C_26
REMARK                            x       y       z     vdW  Elec       q    Type
REMARK                         _______ _______ _______ _____ _____    ______ ____
ROOT
ATOM      1  N   UNL     1      -2.479   0.240   0.735  0.00  0.00    +0.382 N 
ATOM      2  C   UNL     1      -3.891  -0.089   0.963  0.00  0.00    -0.060 C 
ATOM      3  C   UNL     1      -4.096  -1.599   0.802  0.00  0.00    +0.089 C 
ATOM      4  N   UNL     1      -3.584  -2.001  -0.518  0.00  0.00    -0.304 N 
ATOM      5  C   UNL     1      -2.229  -1.571  -0.896  0.00  0.00    +0.089 C 
ATOM      6  C   UNL     1      -2.112  -0.062  -0.655  0.00  0.00    -0.060 C 
ATOM      7  C   UNL     1      -4.349  -2.756  -1.371  0.00  0.00    +0.202 A 
ATOM      8  N   UNL     1      -5.128  -2.156  -2.247  0.00  0.00    -0.208 NA
ATOM      9  C   UNL     1      -5.879  -2.862  -3.085  0.00  0.00    +0.117 A 
ATOM     10  C   UNL     1      -5.882  -4.266  -3.083  0.00  0.00    +0.076 A 
ATOM     11  C   UNL     1      -6.761  -4.905  -4.064  0.00  0.00    -0.023 A 
ATOM     12  C   UNL     1      -7.476  -4.091  -4.867  0.00  0.00    -0.004 A 
ATOM     13  S   UNL     1      -7.028  -2.449  -4.374  0.00  0.00    -0.073 S 
ATOM     14  C   UNL     1      -8.438  -4.494  -5.943  0.00  0.00    +0.043 C 
ATOM     15  C   UNL     1      -8.222  -5.981  -6.255  0.00  0.00    +0.005 C 
ATOM     16  C   UNL     1      -8.169  -6.758  -4.936  0.00  0.00    +0.005 C 
ATOM     17  C   UNL     1      -6.878  -6.422  -4.188  0.00  0.00    +0.037 C 
ATOM     18  C   UNL     1      -5.025  -4.890  -2.122  0.00  0.00    +0.264 A 
ATOM     19  O   UNL     1      -4.962  -6.105  -2.046  0.00  0.00    -0.267 OA
ATOM     20  N   UNL     1      -4.287  -4.116  -1.305  0.00  0.00    -0.280 N 
ATOM     21  H   UNL     1      -1.904  -0.306   1.359  0.00  0.00    -0.082 HD
ENDROOT
BRANCH   1  23
ATOM     22  C   UNL     1      -2.523   1.963   2.475  0.00  0.00    -0.017 C 
ATOM     23  C   UNL     1      -2.262   1.669   0.996  0.00  0.00    -0.082 C 
ENDBRANCH   1  23
BRANCH  20  24
ATOM     24  C   UNL     1      -3.403  -4.748  -0.322  0.00  0.00    +0.131 C 
BRANCH  24  25
ATOM     25  C   UNL     1      -1.996  -4.874  -0.907  0.00  0.00    +0.003 C 
ATOM     26  C   UNL     1      -1.037  -5.380   0.173  0.00  0.00    +0.009 C 
ATOM     27  C   UNL     1      -2.015  -5.862  -2.075  0.00  0.00    +0.009 C 
ENDBRANCH  24  25
ENDBRANCH  20  24
TORSDOF 3
