REMARK  Name = ZINC05352484
REMARK  6 active torsions:
REMARK  status: ('A' for Active; 'I' for Inactive)
REMARK    1  A    between atoms: C_1  and  C_2
REMARK    2  A    between atoms: C_4  and  O_30
REMARK    3  A    between atoms: C_6  and  N_48
REMARK    4  A    between atoms: C_9  and  O_12
REMARK    5  A    between atoms: O_12  and  C_13
REMARK    6  A    between atoms: C_13  and  C_14
REMARK                            x       y       z     vdW  Elec       q    Type
REMARK                         _______ _______ _______ _____ _____    ______ ____
ROOT
ATOM      1  C   UNL     1      -2.566   8.120   0.071  0.00  0.00    -0.021 A 
ATOM      2  C   UNL     1      -3.757   7.417   0.078  0.00  0.00    +0.006 A 
ATOM      3  C   UNL     1      -3.754   6.033   0.070  0.00  0.00    +0.013 A 
ATOM      4  C   UNL     1      -2.545   5.342   0.055  0.00  0.00    +0.033 A 
ATOM      5  C   UNL     1      -1.335   6.057   0.047  0.00  0.00    +0.033 A 
ATOM      6  C   UNL     1      -1.356   7.449   0.056  0.00  0.00    +0.018 A 
ATOM      7  C   UNL     1      -0.047   5.332   0.032  0.00  0.00    +0.195 C 
ATOM      8  O   UNL     1       0.999   5.950   0.026  0.00  0.00    -0.287 OA
ATOM      9  C   UNL     1      -0.034   3.854   0.024  0.00  0.00    +0.033 A 
ATOM     10  C   UNL     1       1.175   3.163   0.008  0.00  0.00    +0.012 A 
ATOM     11  C   UNL     1       1.178   1.779   0.000  0.00  0.00    +0.001 A 
ATOM     12  C   UNL     1      -0.013   1.076   0.008  0.00  0.00    +0.001 A 
ATOM     13  C   UNL     1      -1.223   1.747   0.017  0.00  0.00    +0.012 A 
ATOM     14  C   UNL     1      -1.244   3.139   0.031  0.00  0.00    +0.033 A 
ATOM     15  C   UNL     1      -2.532   3.864   0.046  0.00  0.00    +0.195 C 
ATOM     16  O   UNL     1      -3.578   3.246   0.052  0.00  0.00    -0.287 OA
ENDROOT
BRANCH   1  17
ATOM     17  C   UNL     1      -2.587   9.627   0.080  0.00  0.00    +0.198 C 
BRANCH  17  18
ATOM     18  O   UNL     1      -2.606  10.111  -1.265  0.00  0.00    -0.347 OA
BRANCH  18  24
ATOM     19  C   UNL     1      -5.293  13.880  -0.228  0.00  0.00    +0.040 C 
ATOM     20  C   UNL     1      -3.963  13.460  -0.857  0.00  0.00    +0.145 C 
ATOM     21  C   UNL     1      -3.910  13.943  -2.309  0.00  0.00    +0.129 C 
ATOM     22  C   UNL     1      -2.603  13.467  -2.950  0.00  0.00    -0.039 C 
ATOM     23  C   UNL     1      -2.520  11.941  -2.841  0.00  0.00    +0.048 C 
ATOM     24  C   UNL     1      -2.626  11.536  -1.369  0.00  0.00    +0.249 C 
ATOM     25  O   UNL     1      -3.850  12.036  -0.826  0.00  0.00    -0.346 OA
BRANCH  22  28
ATOM     26  H   UNL     1      -1.724  13.552  -4.810  0.00  0.00    -0.090 HD
ATOM     27  H   UNL     1      -3.386  13.512  -4.854  0.00  0.00    -0.090 HD
ATOM     28  N   UNL     1      -2.576  13.886  -4.362  0.00  0.00    +0.382 N 
ATOM     29  H   UNL     1      -2.599  14.912  -4.411  0.00  0.00    -0.090 HD
ENDBRANCH  22  28
BRANCH  21  30
ATOM     30  O   UNL     1      -3.965  15.371  -2.340  0.00  0.00    -0.391 OA
ATOM     31  H   UNL     1      -4.768  15.742  -1.949  0.00  0.00    +0.210 HD
ENDBRANCH  21  30
ENDBRANCH  18  24
ENDBRANCH  17  18
ENDBRANCH   1  17
TORSDOF 5
