REMARK  Name = ZINC14980848
REMARK  11 active torsions:
REMARK  status: ('A' for Active; 'I' for Inactive)
REMARK    1  A    between atoms: C_1  and  O_2
REMARK    2  A    between atoms: O_2  and  C_3
REMARK    3  A    between atoms: C_6  and  S_9
REMARK    4  A    between atoms: S_9  and  C_10
REMARK    5  A    between atoms: C_13  and  C_27
REMARK    6  A    between atoms: C_16  and  C_17
REMARK    7  A    between atoms: C_16  and  N_67
REMARK    8  A    between atoms: C_22  and  O_23
REMARK    9  A    between atoms: O_23  and  C_24
REMARK   10  A    between atoms: C_24  and  C_25
REMARK   11  A    between atoms: N_29  and  C_30
REMARK                            x       y       z     vdW  Elec       q    Type
REMARK                         _______ _______ _______ _____ _____    ______ ____
ROOT
ATOM      1  C   UNL     1      -0.584   8.072   0.530  0.00  0.00    +0.034 C 
ATOM      2  C   UNL     1      -0.433   9.609   0.593  0.00  0.00    +0.006 C 
ATOM      3  C   UNL     1      -0.603  10.089  -0.861  0.00  0.00    +0.021 C 
ATOM      4  C   UNL     1      -1.371   7.854  -0.786  0.00  0.00    -0.063 C 
ATOM      5  N   UNL     1      -0.801   8.879  -1.667  0.00  0.00    +0.391 N 
ATOM      6  H   UNL     1       0.101   8.556  -2.036  0.00  0.00    -0.080 HD
ENDROOT
BRANCH   3   7
ATOM      7  C   UNL     1       0.637  10.820  -1.308  0.00  0.00    +0.200 C 
ATOM      8  O   UNL     1       1.285  10.398  -2.242  0.00  0.00    -0.278 OA
ATOM      9  N   UNL     1       1.025  11.942  -0.671  0.00  0.00    -0.312 N 
ATOM     10  H   UNL     1       0.506  12.279   0.076  0.00  0.00    +0.149 HD
BRANCH   9  11
ATOM     11  C   UNL     1       2.230  12.652  -1.106  0.00  0.00    +0.095 C 
ATOM     12  C   UNL     1       1.870  13.615  -2.250  0.00  0.00    +0.046 C 
ATOM     13  C   UNL     1       3.077  14.569  -2.478  0.00  0.00    +0.168 C 
ATOM     14  S   UNL     1       3.570  14.910  -0.736  0.00  0.00    -0.029 S 
ATOM     15  O   UNL     1       2.906  16.084  -0.289  0.00  0.00    -0.174 OA
ATOM     16  O   UNL     1       4.984  14.823  -0.629  0.00  0.00    -0.174 OA
ATOM     17  C   UNL     1       2.816  13.447   0.086  0.00  0.00    +0.188 C 
ENDBRANCH   9  11
ENDBRANCH   3   7
BRANCH   1  18
ATOM     18  S   UNL     1      -1.530   7.462   1.953  0.00  0.00    -0.124 S 
BRANCH  18  22
ATOM     19  C   UNL     1      -1.369   2.954   1.525  0.00  0.00    +0.120 A 
ATOM     20  C   UNL     1      -0.733   3.762   0.594  0.00  0.00    +0.047 A 
ATOM     21  C   UNL     1      -0.786   5.136   0.720  0.00  0.00    +0.018 A 
ATOM     22  C   UNL     1      -1.468   5.709   1.786  0.00  0.00    +0.008 A 
ATOM     23  C   UNL     1      -2.101   4.899   2.721  0.00  0.00    +0.018 A 
ATOM     24  C   UNL     1      -2.051   3.525   2.589  0.00  0.00    +0.047 A 
BRANCH  19  26
ATOM     25  C   UNL     1      -0.601   1.081   0.277  0.00  0.00    +0.277 C 
ATOM     26  O   UNL     1      -1.320   1.601   1.397  0.00  0.00    -0.495 OA
ENDBRANCH  19  26
ENDBRANCH  18  22
ENDBRANCH   1  18
BRANCH   5  27
ATOM     27  C   UNL     1      -1.722   9.164  -2.808  0.00  0.00    -0.038 C 
BRANCH  27  28
ATOM     28  C   UNL     1      -1.988   7.892  -3.571  0.00  0.00    -0.022 A 
ATOM     29  C   UNL     1      -3.202   7.245  -3.435  0.00  0.00    +0.005 A 
ATOM     30  C   UNL     1      -3.448   6.080  -4.138  0.00  0.00    +0.000 A 
ATOM     31  C   UNL     1      -2.477   5.554  -4.971  0.00  0.00    +0.004 A 
ATOM     32  C   UNL     1      -1.261   6.194  -5.106  0.00  0.00    +0.046 A 
ATOM     33  C   UNL     1      -1.013   7.366  -4.406  0.00  0.00    +0.122 A 
BRANCH  33  34
ATOM     34  O   UNL     1       0.183   7.998  -4.537  0.00  0.00    -0.488 OA
BRANCH  34  35
ATOM     35  C   UNL     1       1.140   7.399  -5.414  0.00  0.00    +0.256 C 
BRANCH  35  36
ATOM     36  C   UNL     1       2.395   8.233  -5.432  0.00  0.00    +0.006 C 
ATOM     37  C   UNL     1       3.567   7.655  -5.346  0.00  0.00    +0.007 C 
ENDBRANCH  35  36
ENDBRANCH  34  35
ENDBRANCH  33  34
ENDBRANCH  27  28
ENDBRANCH   5  27
TORSDOF 10
