REMARK  Name = ZINC14959888
REMARK  9 active torsions:
REMARK  status: ('A' for Active; 'I' for Inactive)
REMARK    1  A    between atoms: C_1  and  O_2
REMARK    2  A    between atoms: O_2  and  C_3
REMARK    3  A    between atoms: C_8  and  C_9
REMARK    4  A    between atoms: C_10  and  C_11
REMARK    5  A    between atoms: C_11  and  N_67
REMARK    6  A    between atoms: C_17  and  C_21
REMARK    7  A    between atoms: C_21  and  C_22
REMARK    8  A    between atoms: C_22  and  N_23
REMARK    9  A    between atoms: C_24  and  C_26
REMARK                            x       y       z     vdW  Elec       q    Type
REMARK                         _______ _______ _______ _____ _____    ______ ____
ROOT
ATOM      1  C   UNL     1       1.207  -0.056  -2.112  0.00  0.00    -0.071 C 
ATOM      2  C   UNL     1       2.400   0.022  -1.154  0.00  0.00    +0.058 C 
ATOM      3  C   UNL     1       2.432   1.391  -0.525  0.00  0.00    +0.132 A 
ATOM      4  N   UNL     1       3.459   2.176  -0.376  0.00  0.00    -0.134 NA
ATOM      5  N   UNL     1       3.094   3.251   0.231  0.00  0.00    -0.134 NA
ATOM      6  C   UNL     1       1.813   3.200   0.488  0.00  0.00    +0.135 A 
ATOM      7  N   UNL     1       1.356   2.028   0.000  0.00  0.00    -0.317 N 
ATOM      8  C   UNL     1      -0.019   1.527   0.010  0.00  0.00    +0.106 C 
ATOM      9  C   UNL     1       0.002  -0.004   0.002  0.00  0.00    -0.056 C 
ATOM     10  N   UNL     1      -0.016  -0.485  -1.398  0.00  0.00    +0.383 N 
ATOM     11  H   UNL     1      -0.834  -0.085  -1.874  0.00  0.00    -0.081 HD
ENDROOT
BRANCH  10  12
ATOM     12  C   UNL     1      -0.121  -1.955  -1.424  0.00  0.00    -0.051 C 
BRANCH  12  14
ATOM     13  C   UNL     1       0.450  -3.301  -3.396  0.00  0.00    +0.005 C 
ATOM     14  C   UNL     1      -0.349  -2.396  -2.847  0.00  0.00    -0.045 C 
BRANCH  13  20
ATOM     15  C   UNL     1       1.071  -4.685  -5.376  0.00  0.00    +0.127 A 
ATOM     16  C   UNL     1       0.850  -5.088  -6.683  0.00  0.00    +0.046 A 
ATOM     17  C   UNL     1      -0.193  -4.545  -7.409  0.00  0.00    +0.004 A 
ATOM     18  C   UNL     1      -1.027  -3.601  -6.835  0.00  0.00    +0.001 A 
ATOM     19  C   UNL     1      -0.824  -3.193  -5.533  0.00  0.00    +0.011 A 
ATOM     20  C   UNL     1       0.226  -3.734  -4.791  0.00  0.00    +0.016 A 
BRANCH  15  22
ATOM     21  C   UNL     1       2.919  -6.179  -5.327  0.00  0.00    +0.277 C 
ATOM     22  O   UNL     1       2.099  -5.214  -4.664  0.00  0.00    -0.495 OA
ENDBRANCH  15  22
ENDBRANCH  13  20
ENDBRANCH  12  14
ENDBRANCH  10  12
BRANCH   6  23
ATOM     23  C   UNL     1       0.999   4.253   1.195  0.00  0.00    +0.095 C 
BRANCH  23  24
ATOM     24  C   UNL     1       0.446   5.245   0.170  0.00  0.00    +0.112 C 
BRANCH  24  25
ATOM     25  N   UNL     1      -0.345   6.268   0.858  0.00  0.00    -0.315 N 
ATOM     26  C   UNL     1      -0.934   7.253   0.150  0.00  0.00    +0.216 C 
ATOM     27  O   UNL     1      -0.809   7.292  -1.055  0.00  0.00    -0.276 OA
ATOM     28  H   UNL     1      -0.445   6.237   1.822  0.00  0.00    +0.149 HD
BRANCH  26  29
ATOM     29  C   UNL     1      -1.748   8.306   0.858  0.00  0.00    +0.075 C 
ATOM     30  C   UNL     1      -2.907   7.640   1.601  0.00  0.00    +0.013 C 
ATOM     31  C   UNL     1      -3.733   8.709   2.320  0.00  0.00    +0.001 C 
ATOM     32  C   UNL     1      -4.287   9.700   1.294  0.00  0.00    +0.000 C 
ATOM     33  C   UNL     1      -3.127  10.366   0.551  0.00  0.00    +0.001 C 
ATOM     34  C   UNL     1      -2.301   9.297  -0.168  0.00  0.00    +0.013 C 
ENDBRANCH  26  29
ENDBRANCH  24  25
ENDBRANCH  23  24
ENDBRANCH   6  23
TORSDOF 8
