REMARK  Name = ZINC04729256
REMARK  11 active torsions:
REMARK  status: ('A' for Active; 'I' for Inactive)
REMARK    1  A    between atoms: C_1  and  C_2
REMARK    2  A    between atoms: C_2  and  O_3
REMARK    3  A    between atoms: O_3  and  C_4
REMARK    4  A    between atoms: C_8  and  C_11
REMARK    5  A    between atoms: C_9  and  O_10
REMARK    6  A    between atoms: C_14  and  C_22
REMARK    7  A    between atoms: C_16  and  C_18
REMARK    8  A    between atoms: C_18  and  C_19
REMARK    9  A    between atoms: C_19  and  C_20
REMARK   10  A    between atoms: C_19  and  C_21
REMARK   11  A    between atoms: C_25  and  C_28
REMARK                            x       y       z     vdW  Elec       q    Type
REMARK                         _______ _______ _______ _____ _____    ______ ____
ROOT
ATOM      1  C   UNL     1       0.038   0.043   0.294  0.00  0.00    -0.028 C 
ATOM      2  C   UNL     1       0.347  -0.365  -1.150  0.00  0.00    +0.044 C 
ATOM      3  C   UNL     1       0.059  -1.830  -1.330  0.00  0.00    +0.040 C 
ATOM      4  N   UNL     1      -0.638  -2.511  -0.502  0.00  0.00    -0.303 NA
ATOM      5  C   UNL     1      -1.228  -1.966   0.715  0.00  0.00    +0.050 C 
ATOM      6  N   UNL     1      -1.287  -0.498   0.653  0.00  0.00    +0.399 N 
ATOM      7  H   UNL     1      -1.974  -0.214  -0.055  0.00  0.00    -0.082 HD
ATOM      8  H   UNL     1      -1.568  -0.130   1.570  0.00  0.00    -0.082 HD
ENDROOT
BRANCH   3   9
ATOM      9  C   UNL     1       0.606  -2.513  -2.519  0.00  0.00    -0.004 A 
ATOM     10  C   UNL     1       1.367  -1.802  -3.449  0.00  0.00    +0.010 A 
ATOM     11  C   UNL     1       1.879  -2.448  -4.555  0.00  0.00    +0.004 A 
ATOM     12  C   UNL     1       1.631  -3.795  -4.749  0.00  0.00    -0.050 A 
ATOM     13  C   UNL     1       0.874  -4.505  -3.834  0.00  0.00    +0.004 A 
ATOM     14  C   UNL     1       0.360  -3.873  -2.721  0.00  0.00    +0.010 A 
ATOM     15  C   UNL     1       2.190  -4.493  -5.962  0.00  0.00    +0.044 C 
ENDBRANCH   3   9
BRANCH   1  20
ATOM     16  C   UNL     1       1.182   3.638   0.601  0.00  0.00    +0.162 A 
ATOM     17  C   UNL     1      -0.030   4.309   0.607  0.00  0.00    +0.049 A 
ATOM     18  C   UNL     1      -1.213   3.600   0.511  0.00  0.00    +0.004 A 
ATOM     19  C   UNL     1      -1.189   2.221   0.404  0.00  0.00    +0.006 A 
ATOM     20  C   UNL     1       0.017   1.546   0.404  0.00  0.00    -0.016 A 
ATOM     21  C   UNL     1       1.206   2.251   0.499  0.00  0.00    +0.160 A 
BRANCH  21  22
ATOM     22  O   UNL     1       2.393   1.588   0.493  0.00  0.00    -0.503 OA
ATOM     23  H   UNL     1       2.768   1.462  -0.389  0.00  0.00    +0.292 HD
ENDBRANCH  21  22
BRANCH  16  24
ATOM     24  O   UNL     1       2.347   4.335   0.695  0.00  0.00    -0.489 OA
BRANCH  24  26
ATOM     25  C   UNL     1       3.648   6.361   0.893  0.00  0.00    +0.048 C 
ATOM     26  C   UNL     1       2.246   5.756   0.797  0.00  0.00    +0.226 C 
ENDBRANCH  24  26
ENDBRANCH  16  24
ENDBRANCH   1  20
BRANCH   5  27
ATOM     27  C   UNL     1      -2.646  -2.518   0.878  0.00  0.00    +0.010 C 
BRANCH  27  28
ATOM     28  C   UNL     1      -2.584  -4.033   1.079  0.00  0.00    -0.017 C 
ATOM     29  C   UNL     1      -1.894  -4.344   2.409  0.00  0.00    +0.007 C 
ATOM     30  C   UNL     1      -4.003  -4.604   1.095  0.00  0.00    +0.007 C 
ENDBRANCH  27  28
ENDBRANCH   5  27
TORSDOF 7
