REMARK  Name = ZINC09460763
REMARK  13 active torsions:
REMARK  status: ('A' for Active; 'I' for Inactive)
REMARK    1  A    between atoms: C_1  and  N_66
REMARK    2  A    between atoms: C_2  and  N_66
REMARK    3  A    between atoms: C_3  and  C_4
REMARK    4  A    between atoms: C_3  and  N_66
REMARK    5  A    between atoms: C_4  and  C_5
REMARK    6  A    between atoms: C_5  and  N_6
REMARK    7  A    between atoms: C_7  and  C_30
REMARK    8  A    between atoms: C_10  and  C_11
REMARK    9  A    between atoms: C_10  and  O_25
REMARK   10  A    between atoms: C_14  and  O_17
REMARK   11  A    between atoms: O_17  and  C_18
REMARK   12  A    between atoms: C_18  and  C_19
REMARK   13  A    between atoms: C_33  and  O_36
REMARK                            x       y       z     vdW  Elec       q    Type
REMARK                         _______ _______ _______ _____ _____    ______ ____
ROOT
ATOM      1  N   UNL     1      11.554  -4.740   0.242  0.00  0.00    -0.284 N 
ATOM      2  C   UNL     1      11.120  -4.591  -1.149  0.00  0.00    +0.144 C 
ATOM      3  C   UNL     1       9.747  -3.962  -1.109  0.00  0.00    +0.071 C 
ATOM      4  C   UNL     1       8.951  -3.636  -2.190  0.00  0.00    +0.133 C 
ATOM      5  C   UNL     1       9.445  -3.770   0.247  0.00  0.00    +0.249 C 
ATOM      6  O   UNL     1       8.421  -3.280   0.689  0.00  0.00    -0.282 OA
ATOM      7  C   UNL     1      10.591  -4.272   1.053  0.00  0.00    +0.288 C 
ATOM      8  O   UNL     1      10.649  -4.256   2.266  0.00  0.00    -0.266 OA
ENDROOT
BRANCH   4   9
ATOM      9  C   UNL     1       7.585  -3.135  -1.974  0.00  0.00    +0.017 A 
ATOM     10  C   UNL     1       7.171  -1.942  -2.577  0.00  0.00    +0.015 A 
ATOM     11  C   UNL     1       5.892  -1.477  -2.371  0.00  0.00    +0.046 A 
ATOM     12  C   UNL     1       5.011  -2.191  -1.565  0.00  0.00    +0.121 A 
ATOM     13  C   UNL     1       5.420  -3.374  -0.959  0.00  0.00    +0.046 A 
ATOM     14  C   UNL     1       6.695  -3.851  -1.163  0.00  0.00    +0.015 A 
BRANCH  12  15
ATOM     15  O   UNL     1       3.752  -1.728  -1.364  0.00  0.00    -0.487 OA
BRANCH  15  16
ATOM     16  C   UNL     1       2.899  -2.510  -0.525  0.00  0.00    +0.264 C 
BRANCH  16  17
ATOM     17  C   UNL     1       1.551  -1.845  -0.420  0.00  0.00    -0.010 A 
ATOM     18  C   UNL     1       0.555  -2.154  -1.327  0.00  0.00    +0.007 A 
ATOM     19  C   UNL     1      -0.681  -1.544  -1.231  0.00  0.00    +0.000 A 
ATOM     20  C   UNL     1      -0.922  -0.625  -0.227  0.00  0.00    +0.000 A 
ATOM     21  C   UNL     1       0.074  -0.317   0.681  0.00  0.00    +0.000 A 
ATOM     22  C   UNL     1       1.310  -0.926   0.584  0.00  0.00    +0.007 A 
ENDBRANCH  16  17
ENDBRANCH  15  16
ENDBRANCH  12  15
ENDBRANCH   4   9
BRANCH   2  23
ATOM     23  C   UNL     1      12.076  -3.695  -1.895  0.00  0.00    -0.022 A 
ATOM     24  C   UNL     1      12.611  -2.584  -1.269  0.00  0.00    +0.009 A 
ATOM     25  C   UNL     1      13.492  -1.765  -1.948  0.00  0.00    +0.046 A 
ATOM     26  C   UNL     1      13.831  -2.051  -3.263  0.00  0.00    +0.117 A 
ATOM     27  C   UNL     1      13.288  -3.163  -3.890  0.00  0.00    +0.046 A 
ATOM     28  C   UNL     1      12.412  -3.982  -3.205  0.00  0.00    +0.009 A 
BRANCH  26  29
ATOM     29  O   UNL     1      14.693  -1.243  -3.934  0.00  0.00    -0.507 OA
ATOM     30  H   UNL     1      14.264  -0.519  -4.411  0.00  0.00    +0.292 HD
ENDBRANCH  26  29
ENDBRANCH   2  23
BRANCH   4  31
ATOM     31  O   UNL     1       9.427  -3.778  -3.446  0.00  0.00    -0.506 OA
ATOM     32  H   UNL     1       8.725  -3.499  -4.102  0.00  0.00    +0.292 HD
ENDBRANCH   4  31
BRANCH   1  33
ATOM     33  C   UNL     1      12.832  -5.309   0.679  0.00  0.00    +0.107 C 
BRANCH  33  34
ATOM     34  C   UNL     1      13.876  -4.196   0.785  0.00  0.00    +0.000 C 
BRANCH  34  35
ATOM     35  C   UNL     1      15.210  -4.790   1.241  0.00  0.00    -0.078 C 
BRANCH  35  38
ATOM     36  C   UNL     1      17.434  -4.207   2.001  0.00  0.00    -0.097 C 
ATOM     37  C   UNL     1      16.516  -3.156   0.021  0.00  0.00    -0.097 C 
ATOM     38  N   UNL     1      16.202  -3.701   1.359  0.00  0.00    +0.376 N 
ATOM     39  H   UNL     1      15.807  -2.952   1.940  0.00  0.00    -0.083 HD
ENDBRANCH  35  38
ENDBRANCH  34  35
ENDBRANCH  33  34
ENDBRANCH   1  33
TORSDOF 11
