REMARK  Name = ZINC15546051
REMARK  5 active torsions:
REMARK  status: ('A' for Active; 'I' for Inactive)
REMARK    1  A    between atoms: C_2  and  C_3
REMARK    2  A    between atoms: C_3  and  N_4
REMARK    3  A    between atoms: C_8  and  C_10
REMARK    4  A    between atoms: C_10  and  N_11
REMARK    5  A    between atoms: C_13  and  C_22
REMARK                            x       y       z     vdW  Elec       q    Type
REMARK                         _______ _______ _______ _____ _____    ______ ____
ROOT
ATOM      1  N   UNL     1      -0.023   1.455   0.010  0.00  0.00    -0.314 N 
ATOM      2  C   UNL     1      -0.034  -0.012  -0.008  0.00  0.00    +0.160 C 
ATOM      3  C   UNL     1       0.888  -0.495  -1.135  0.00  0.00    +0.276 C 
ATOM      4  O   UNL     1       2.220  -0.069  -0.827  0.00  0.00    -0.476 OA
ATOM      5  C   UNL     1       2.367   1.217  -0.404  0.00  0.00    +0.143 A 
ATOM      6  C   UNL     1       1.276   1.972   0.011  0.00  0.00    +0.073 A 
ATOM      7  C   UNL     1       1.472   3.280   0.442  0.00  0.00    +0.027 A 
ATOM      8  C   UNL     1       2.740   3.827   0.453  0.00  0.00    +0.002 A 
ATOM      9  C   UNL     1       3.823   3.076   0.035  0.00  0.00    +0.004 A 
ATOM     10  C   UNL     1       3.638   1.774  -0.393  0.00  0.00    +0.047 A 
ENDROOT
BRANCH   3  11
ATOM     11  C   UNL     1       0.842  -1.998  -1.224  0.00  0.00    +0.258 C 
ATOM     12  O   UNL     1       1.835  -2.651  -0.980  0.00  0.00    -0.271 OA
ATOM     13  N   UNL     1      -0.303  -2.618  -1.574  0.00  0.00    -0.298 N 
ATOM     14  C   UNL     1      -1.515  -1.841  -1.867  0.00  0.00    +0.108 C 
ATOM     15  C   UNL     1      -2.036  -2.252  -3.252  0.00  0.00    +0.019 C 
ATOM     16  C   UNL     1      -2.239  -3.769  -3.285  0.00  0.00    +0.003 C 
ATOM     17  C   UNL     1      -0.899  -4.469  -3.047  0.00  0.00    +0.019 C 
ATOM     18  C   UNL     1      -0.363  -4.083  -1.665  0.00  0.00    +0.108 C 
ENDBRANCH   3  11
BRANCH   1  19
ATOM     19  C   UNL     1      -0.796   1.973   1.147  0.00  0.00    +0.201 C 
BRANCH  19  24
ATOM     20  N   UNL     1      -0.674   1.806   5.950  0.00  0.00    -0.296 N 
ATOM     21  C   UNL     1      -0.087   1.531   4.768  0.00  0.00    +0.306 C 
ATOM     22  O   UNL     1       0.995   0.978   4.742  0.00  0.00    -0.252 OA
ATOM     23  N   UNL     1      -0.699   1.870   3.616  0.00  0.00    -0.239 N 
ATOM     24  C   UNL     1      -0.112   1.595   2.435  0.00  0.00    +0.238 C 
ATOM     25  O   UNL     1       0.967   1.043   2.408  0.00  0.00    -0.274 OA
ATOM     26  H   UNL     1      -1.538   2.248   5.971  0.00  0.00    +0.151 HD
ATOM     27  H   UNL     1      -1.563   2.311   3.637  0.00  0.00    +0.159 HD
BRANCH  20  28
ATOM     28  C   UNL     1      -0.009   1.439   7.202  0.00  0.00    +0.132 C 
BRANCH  28  30
ATOM     29  C   UNL     1      -1.220   0.970   9.269  0.00  0.00    +0.005 C 
ATOM     30  C   UNL     1      -0.868   1.853   8.368  0.00  0.00    -0.016 C 
ENDBRANCH  28  30
ENDBRANCH  20  28
ENDBRANCH  19  24
ENDBRANCH   1  19
TORSDOF 5
