REMARK  Name = ZINC39666774
REMARK  11 active torsions:
REMARK  status: ('A' for Active; 'I' for Inactive)
REMARK    1  A    between atoms: C_1  and  C_2
REMARK    2  A    between atoms: C_2  and  C_3
REMARK    3  A    between atoms: C_3  and  C_4
REMARK    4  A    between atoms: C_3  and  C_6
REMARK    5  A    between atoms: C_4  and  C_5
REMARK    6  A    between atoms: C_6  and  N_7
REMARK    7  A    between atoms: C_8  and  C_10
REMARK    8  A    between atoms: C_21  and  C_23
REMARK    9  A    between atoms: C_23  and  C_25
REMARK   10  A    between atoms: C_23  and  O_26
REMARK   11  A    between atoms: O_26  and  C_27
REMARK                            x       y       z     vdW  Elec       q    Type
REMARK                         _______ _______ _______ _____ _____    ______ ____
ROOT
ATOM      1  C   UNL     1       3.717  -2.619   4.201  0.00  0.00    +0.100 C 
ATOM      2  C   UNL     1       3.095  -1.992   5.468  0.00  0.00    +0.121 C 
ATOM      3  N   UNL     1       2.515  -3.138   6.207  0.00  0.00    -0.297 N 
ATOM      4  C   UNL     1       3.506  -4.227   6.035  0.00  0.00    +0.115 C 
ATOM      5  C   UNL     1       3.988  -4.085   4.578  0.00  0.00    -0.004 C 
ATOM      6  C   UNL     1       3.197  -5.020   3.668  0.00  0.00    -0.010 C 
ATOM      7  C   UNL     1       3.527  -6.472   4.025  0.00  0.00    -0.082 C 
ATOM      8  N   UNL     1       4.967  -6.702   3.863  0.00  0.00    +0.379 N 
ATOM      9  C   UNL     1       5.718  -5.866   4.808  0.00  0.00    -0.082 C 
ATOM     10  C   UNL     1       5.480  -4.388   4.484  0.00  0.00    -0.010 C 
ATOM     11  C   UNL     1       1.349  -3.180   6.883  0.00  0.00    +0.256 C 
ATOM     12  O   UNL     1       0.600  -2.227   6.859  0.00  0.00    -0.272 OA
ATOM     13  H   UNL     1       5.173  -7.674   4.040  0.00  0.00    -0.086 HD
ATOM     14  H   UNL     1       5.240  -6.470   2.920  0.00  0.00    -0.086 HD
ENDROOT
BRANCH   1  16
ATOM     15  N   UNL     1       3.202  -2.611   1.781  0.00  0.00    -0.315 N 
ATOM     16  C   UNL     1       2.748  -2.544   3.049  0.00  0.00    +0.218 C 
ATOM     17  O   UNL     1       1.561  -2.423   3.262  0.00  0.00    -0.275 OA
ATOM     18  H   UNL     1       4.152  -2.708   1.611  0.00  0.00    +0.149 HD
BRANCH  15  19
ATOM     19  C   UNL     1       2.261  -2.538   0.661  0.00  0.00    +0.107 C 
BRANCH  19  20
ATOM     20  C   UNL     1       3.037  -2.506  -0.657  0.00  0.00    +0.006 C 
BRANCH  20  22
ATOM     21  C   UNL     1       2.834  -2.656  -3.142  0.00  0.00    +0.004 C 
ATOM     22  C   UNL     1       2.055  -2.562  -1.829  0.00  0.00    +0.002 C 
ENDBRANCH  20  22
BRANCH  20  23
ATOM     23  C   UNL     1       3.854  -1.215  -0.737  0.00  0.00    +0.002 C 
ATOM     24  C   UNL     1       2.908  -0.013  -0.747  0.00  0.00    +0.004 C 
ENDBRANCH  20  23
ENDBRANCH  19  20
ENDBRANCH  15  19
ENDBRANCH   1  16
BRANCH  11  25
ATOM     25  C   UNL     1       0.978  -4.412   7.667  0.00  0.00    +0.256 C 
ATOM     26  C   UNL     1       1.930  -4.567   8.855  0.00  0.00    +0.062 C 
BRANCH  25  27
ATOM     27  O   UNL     1      -0.363  -4.286   8.145  0.00  0.00    -0.480 OA
BRANCH  27  28
ATOM     28  C   UNL     1      -1.038  -5.437   8.401  0.00  0.00    +0.122 A 
ATOM     29  C   UNL     1      -2.379  -5.393   8.755  0.00  0.00    +0.045 A 
ATOM     30  C   UNL     1      -3.063  -6.565   9.014  0.00  0.00    +0.004 A 
ATOM     31  C   UNL     1      -2.412  -7.782   8.921  0.00  0.00    +0.000 A 
ATOM     32  C   UNL     1      -1.076  -7.828   8.568  0.00  0.00    +0.004 A 
ATOM     33  C   UNL     1      -0.389  -6.660   8.302  0.00  0.00    +0.045 A 
ENDBRANCH  27  28
ENDBRANCH  25  27
ENDBRANCH  11  25
TORSDOF 8
