REMARK  Name = ZINC64093781
REMARK  6 active torsions:
REMARK  status: ('A' for Active; 'I' for Inactive)
REMARK    1  A    between atoms: C_7  and  C_10
REMARK    2  A    between atoms: C_10  and  C_11
REMARK    3  A    between atoms: C_11  and  N_12
REMARK    4  A    between atoms: C_13  and  C_15
REMARK    5  A    between atoms: N_21  and  C_24
REMARK    6  A    between atoms: C_24  and  C_25
REMARK                            x       y       z     vdW  Elec       q    Type
REMARK                         _______ _______ _______ _____ _____    ______ ____
ROOT
ATOM      1  C   UNL     1      -1.665  -6.257  -2.589  0.00  0.00    +0.082 C 
ATOM      2  C   UNL     1      -1.217  -7.676  -2.946  0.00  0.00    +0.020 C 
ATOM      3  C   UNL     1      -2.204  -6.935  -3.847  0.00  0.00    -0.021 C 
ATOM      4  C   UNL     1      -3.665  -7.397  -3.840  0.00  0.00    -0.011 C 
ATOM      5  C   UNL     1      -4.527  -6.297  -4.469  0.00  0.00    -0.078 C 
ATOM      6  N   UNL     1      -4.031  -5.995  -5.816  0.00  0.00    +0.380 N 
ATOM      7  C   UNL     1      -2.692  -5.397  -5.741  0.00  0.00    -0.078 C 
ATOM      8  C   UNL     1      -1.699  -6.433  -5.203  0.00  0.00    -0.011 C 
ATOM      9  H   UNL     1      -3.986  -6.846  -6.355  0.00  0.00    -0.082 HD
ENDROOT
BRANCH   1  11
ATOM     10  N   UNL     1       0.562  -5.415  -3.260  0.00  0.00    -0.315 N 
ATOM     11  C   UNL     1      -0.665  -5.144  -2.772  0.00  0.00    +0.217 C 
ATOM     12  O   UNL     1      -0.965  -4.006  -2.482  0.00  0.00    -0.275 OA
ATOM     13  H   UNL     1       0.802  -6.325  -3.492  0.00  0.00    +0.149 HD
BRANCH  10  14
ATOM     14  C   UNL     1       1.534  -4.333  -3.438  0.00  0.00    +0.108 C 
BRANCH  14  15
ATOM     15  C   UNL     1       2.836  -4.906  -4.000  0.00  0.00    +0.052 C 
BRANCH  15  22
ATOM     16  C   UNL     1       6.222  -3.312  -1.345  0.00  0.00    +0.001 A 
ATOM     17  C   UNL     1       6.924  -2.239  -1.912  0.00  0.00    +0.002 A 
ATOM     18  C   UNL     1       6.623  -1.732  -3.126  0.00  0.00    +0.026 A 
ATOM     19  C   UNL     1       5.557  -2.281  -3.891  0.00  0.00    +0.043 A 
ATOM     20  N   UNL     1       5.079  -1.970  -5.072  0.00  0.00    -0.380 N 
ATOM     21  C   UNL     1       3.964  -2.873  -5.377  0.00  0.00    +0.144 C 
ATOM     22  C   UNL     1       3.836  -3.793  -4.184  0.00  0.00    -0.040 C 
ATOM     23  C   UNL     1       4.801  -3.415  -3.314  0.00  0.00    -0.001 A 
ATOM     24  C   UNL     1       5.192  -3.907  -1.988  0.00  0.00    +0.010 A 
ATOM     25  H   UNL     1       5.408  -1.261  -5.647  0.00  0.00    +0.160 HD
ENDBRANCH  15  22
ENDBRANCH  14  15
ENDBRANCH  10  14
ENDBRANCH   1  11
BRANCH   6  26
ATOM     26  C   UNL     1      -4.947  -5.053  -6.473  0.00  0.00    -0.064 C 
BRANCH  26  27
ATOM     27  C   UNL     1      -6.297  -5.736  -6.708  0.00  0.00    +0.081 C 
ATOM     28  C   UNL     1      -7.283  -4.741  -7.338  0.00  0.00    +0.238 C 
ATOM     29  O   UNL     1      -6.769  -4.296  -8.593  0.00  0.00    -0.491 OA
ATOM     30  C   UNL     1      -6.397  -5.221  -9.508  0.00  0.00    +0.131 A 
ATOM     31  C   UNL     1      -6.343  -4.884 -10.854  0.00  0.00    +0.048 A 
ATOM     32  C   UNL     1      -5.957  -5.824 -11.788  0.00  0.00    +0.023 A 
ATOM     33  C   UNL     1      -5.620  -7.112 -11.399  0.00  0.00    +0.042 A 
ATOM     34  C   UNL     1      -5.668  -7.469 -10.068  0.00  0.00    +0.035 A 
ATOM     35  C   UNL     1      -6.060  -6.527  -9.115  0.00  0.00    +0.061 A 
ATOM     36  C   UNL     1      -6.132  -6.886  -7.686  0.00  0.00    +0.171 C 
ATOM     37  O   UNL     1      -6.064  -8.037  -7.311  0.00  0.00    -0.292 OA
ATOM     38 CL   UNL     1      -5.135  -8.278 -12.591  0.00  0.00    -0.084 Cl
ENDBRANCH  26  27
ENDBRANCH   6  26
TORSDOF 6
