REMARK  Name = ZINC66254150
REMARK  2 active torsions:
REMARK  status: ('A' for Active; 'I' for Inactive)
REMARK    1  A    between atoms: C_6  and  S_7
REMARK    2  A    between atoms: S_7  and  N_10
REMARK                            x       y       z     vdW  Elec       q    Type
REMARK                         _______ _______ _______ _____ _____    ______ ____
ROOT
ATOM      1  S   UNL     1      -1.514  -0.902   0.012  0.00  0.00    +0.101 S 
ATOM      2  O   UNL     1      -1.224  -2.183   0.553  0.00  0.00    -0.146 OA
ATOM      3  O   UNL     1      -2.493  -0.040   0.576  0.00  0.00    -0.146 OA
ENDROOT
BRANCH   1   4
ATOM      4  N   UNL     1      -1.950  -1.143  -1.568  0.00  0.00    -0.103 NA
ATOM      5  C   UNL     1      -3.053  -1.792  -1.851  0.00  0.00    +0.192 A 
ATOM      6  N   UNL     1      -3.591  -2.104  -3.070  0.00  0.00    -0.336 N 
ATOM      7  C   UNL     1      -4.791  -2.803  -3.140  0.00  0.00    +0.028 A 
ATOM      8  C   UNL     1      -5.390  -3.109  -2.005  0.00  0.00    +0.012 A 
ATOM      9  S   UNL     1      -4.257  -2.518  -0.753  0.00  0.00    -0.053 S 
ATOM     10  C   UNL     1      -6.724  -3.722  -1.672  0.00  0.00    +0.044 C 
ATOM     11  C   UNL     1      -7.549  -4.033  -2.922  0.00  0.00    +0.005 C 
ATOM     12  C   UNL     1      -7.084  -5.330  -3.565  0.00  0.00    +0.000 C 
ATOM     13  C   UNL     1      -5.580  -5.507  -3.499  0.00  0.00    +0.000 C 
ATOM     14  C   UNL     1      -4.984  -4.737  -4.683  0.00  0.00    +0.006 C 
ATOM     15  C   UNL     1      -5.287  -3.250  -4.509  0.00  0.00    +0.054 C 
ATOM     16  H   UNL     1      -3.136  -1.838  -3.884  0.00  0.00    +0.168 HD
ENDBRANCH   1   4
BRANCH   1  22
ATOM     17  C   UNL     1      -0.017   1.379   0.010  0.00  0.00    +0.031 A 
ATOM     18  C   UNL     1       1.168   2.090   0.002  0.00  0.00    +0.031 A 
ATOM     19  C   UNL     1       2.377   1.414  -0.013  0.00  0.00    +0.087 A 
ATOM     20  C   UNL     1       2.397   0.019  -0.021  0.00  0.00    +0.159 A 
ATOM     21  C   UNL     1       1.204  -0.685  -0.013  0.00  0.00    +0.077 A 
ATOM     22  C   UNL     1       0.002  -0.004   0.002  0.00  0.00    +0.116 A 
ATOM     23  O   UNL     1       3.697  -0.364  -0.036  0.00  0.00    -0.408 OA
ATOM     24  C   UNL     1       4.479   0.727  -0.038  0.00  0.00    +0.419 A 
ATOM     25  O   UNL     1       5.695   0.719  -0.050  0.00  0.00    -0.223 OA
ATOM     26  N   UNL     1       3.708   1.832  -0.024  0.00  0.00    -0.288 N 
ATOM     27  H   UNL     1       4.021   2.750  -0.022  0.00  0.00    +0.172 HD
ENDBRANCH   1  22
TORSDOF 2
