REMARK  Name = ZINC36273500
REMARK  13 active torsions:
REMARK  status: ('A' for Active; 'I' for Inactive)
REMARK    1  A    between atoms: C_1  and  C_2
REMARK    2  A    between atoms: C_2  and  C_3
REMARK    3  A    between atoms: C_3  and  C_4
REMARK    4  A    between atoms: C_4  and  N_5
REMARK    5  A    between atoms: N_5  and  C_6
REMARK    6  A    between atoms: N_5  and  C_7
REMARK    7  A    between atoms: C_7  and  C_8
REMARK    8  A    between atoms: C_9  and  C_18
REMARK    9  A    between atoms: C_14  and  N_17
REMARK   10  A    between atoms: C_20  and  O_26
REMARK   11  A    between atoms: C_23  and  O_24
REMARK   12  A    between atoms: O_24  and  C_25
REMARK   13  A    between atoms: O_26  and  C_27
REMARK                            x       y       z     vdW  Elec       q    Type
REMARK                         _______ _______ _______ _____ _____    ______ ____
ROOT
ATOM      1  C   UNL     1      -4.249  -4.397   0.272  0.00  0.00    +0.035 A 
ATOM      2  C   UNL     1      -4.837  -4.823   1.425  0.00  0.00    +0.095 A 
ATOM      3  N   UNL     1      -6.005  -5.406   1.112  0.00  0.00    -0.227 NA
ATOM      4  C   UNL     1      -6.173  -5.361  -0.203  0.00  0.00    +0.138 A 
ATOM      5  N   UNL     1      -5.090  -4.729  -0.753  0.00  0.00    -0.303 N 
ATOM      6  C   UNL     1      -5.010  -4.542  -2.106  0.00  0.00    +0.115 A 
ATOM      7  C   UNL     1      -6.002  -4.976  -2.921  0.00  0.00    +0.041 A 
ATOM      8  C   UNL     1      -7.129  -5.626  -2.379  0.00  0.00    +0.028 A 
ATOM      9  C   UNL     1      -7.211  -5.824  -1.037  0.00  0.00    +0.048 A 
ENDROOT
BRANCH   2  10
ATOM     10  C   UNL     1      -4.282  -4.669   2.792  0.00  0.00    +0.047 A 
ATOM     11  C   UNL     1      -2.960  -5.021   3.053  0.00  0.00    +0.059 A 
ATOM     12  C   UNL     1      -2.446  -4.876   4.331  0.00  0.00    +0.121 A 
ATOM     13  C   UNL     1      -3.247  -4.380   5.351  0.00  0.00    +0.049 A 
ATOM     14  C   UNL     1      -4.559  -4.030   5.098  0.00  0.00    +0.050 A 
ATOM     15  C   UNL     1      -5.081  -4.165   3.822  0.00  0.00    +0.130 A 
BRANCH  15  16
ATOM     16  O   UNL     1      -6.371  -3.815   3.573  0.00  0.00    -0.494 OA
ATOM     17  C   UNL     1      -7.129  -3.307   4.672  0.00  0.00    +0.277 C 
ENDBRANCH  15  16
BRANCH  12  18
ATOM     18  O   UNL     1      -1.156  -5.219   4.587  0.00  0.00    -0.495 OA
ATOM     19  C   UNL     1      -0.692  -5.043   5.927  0.00  0.00    +0.277 C 
ENDBRANCH  12  18
ENDBRANCH   2  10
BRANCH   7  20
ATOM     20  N   UNL     1      -5.908  -4.777  -4.305  0.00  0.00    -0.357 N 
ATOM     21  H   UNL     1      -5.133  -4.329  -4.679  0.00  0.00    +0.142 HD
ATOM     22  H   UNL     1      -6.617  -5.087  -4.889  0.00  0.00    +0.142 HD
ENDBRANCH   7  20
BRANCH   1  23
ATOM     23  C   UNL     1      -2.925  -3.688   0.151  0.00  0.00    -0.022 C 
BRANCH  23  24
ATOM     24  N   UNL     1      -3.115  -2.251   0.391  0.00  0.00    +0.382 N 
ATOM     25  C   UNL     1      -3.958  -1.684  -0.671  0.00  0.00    -0.096 C 
ATOM     26  H   UNL     1      -3.564  -2.116   1.284  0.00  0.00    -0.082 HD
BRANCH  24  27
ATOM     27  C   UNL     1      -1.810  -1.577   0.391  0.00  0.00    -0.079 C 
BRANCH  27  28
ATOM     28  C   UNL     1      -1.996  -0.105   0.764  0.00  0.00    -0.019 C 
BRANCH  28  30
ATOM     29  C   UNL     1      -0.822   2.069   1.138  0.00  0.00    +0.004 C 
ATOM     30  C   UNL     1      -0.636   0.597   0.765  0.00  0.00    -0.005 C 
ENDBRANCH  28  30
ENDBRANCH  27  28
ENDBRANCH  24  27
ENDBRANCH  23  24
ENDBRANCH   1  23
TORSDOF 9
