REMARK  Name = ZINC45631070
REMARK  10 active torsions:
REMARK  status: ('A' for Active; 'I' for Inactive)
REMARK    1  A    between atoms: C_1  and  C_2
REMARK    2  A    between atoms: C_2  and  C_3
REMARK    3  A    between atoms: C_2  and  C_4
REMARK    4  A    between atoms: C_4  and  C_6
REMARK    5  A    between atoms: C_4  and  N_11
REMARK    6  A    between atoms: C_12  and  C_14
REMARK    7  A    between atoms: C_14  and  O_15
REMARK    8  A    between atoms: O_15  and  C_16
REMARK    9  A    between atoms: C_16  and  C_18
REMARK   10  A    between atoms: C_20  and  N_26
REMARK                            x       y       z     vdW  Elec       q    Type
REMARK                         _______ _______ _______ _____ _____    ______ ____
ROOT
ATOM      1  O   UNL     1      -2.560  -0.757   4.703  0.00  0.00    -0.451 OA
ENDROOT
BRANCH   1   2
ATOM      2  C   UNL     1      -3.154  -0.367   5.847  0.00  0.00    +0.360 C 
ATOM      3  O   UNL     1      -3.865   0.618   5.857  0.00  0.00    -0.243 OA
BRANCH   2   4
ATOM      4  C   UNL     1      -2.941  -1.139   7.091  0.00  0.00    +0.169 A 
ATOM      5  C   UNL     1      -3.563  -0.733   8.269  0.00  0.00    +0.095 A 
ATOM      6  C   UNL     1      -3.352  -1.472   9.434  0.00  0.00    +0.067 A 
ATOM      7  C   UNL     1      -2.523  -2.590   9.367  0.00  0.00    +0.100 A 
ATOM      8  C   UNL     1      -1.940  -2.930   8.156  0.00  0.00    +0.150 A 
ATOM      9  N   UNL     1      -2.162  -2.216   7.073  0.00  0.00    -0.226 NA
ATOM     10 CL   UNL     1      -0.906  -4.322   8.066  0.00  0.00    -0.060 Cl
ATOM     11 CL   UNL     1      -2.224  -3.547  10.784  0.00  0.00    -0.078 Cl
ATOM     12 CL   UNL     1      -4.585   0.670   8.288  0.00  0.00    -0.079 Cl
BRANCH   6  13
ATOM     13  N   UNL     1      -3.955  -1.101  10.634  0.00  0.00    -0.356 N 
ATOM     14  H   UNL     1      -4.530  -0.320  10.667  0.00  0.00    +0.142 HD
ATOM     15  H   UNL     1      -3.800  -1.623  11.437  0.00  0.00    +0.142 HD
ENDBRANCH   6  13
ENDBRANCH   2   4
ENDBRANCH   1   2
BRANCH   1  16
ATOM     16  C   UNL     1      -2.809   0.034   3.540  0.00  0.00    +0.328 C 
BRANCH  16  18
ATOM     17  N   UNL     1      -2.155   0.035   1.154  0.00  0.00    -0.305 N 
ATOM     18  C   UNL     1      -2.067  -0.550   2.366  0.00  0.00    +0.251 C 
ATOM     19  O   UNL     1      -1.391  -1.546   2.511  0.00  0.00    -0.272 OA
ATOM     20  H   UNL     1      -2.696   0.831   1.038  0.00  0.00    +0.149 HD
BRANCH  17  21
ATOM     21  C   UNL     1      -1.433  -0.534   0.013  0.00  0.00    +0.112 C 
BRANCH  21  22
ATOM     22  C   UNL     1      -2.125  -0.137  -1.266  0.00  0.00    +0.010 A 
ATOM     23  C   UNL     1      -2.352  -0.878  -2.378  0.00  0.00    +0.013 A 
ATOM     24  C   UNL     1      -3.015  -0.300  -3.445  0.00  0.00    +0.008 A 
ATOM     25  C   UNL     1      -3.417   0.991  -3.347  0.00  0.00    +0.045 A 
ATOM     26  S   UNL     1      -2.863   1.427  -1.707  0.00  0.00    -0.100 S 
ENDBRANCH  21  22
BRANCH  21  28
ATOM     27  C   UNL     1      -0.019   1.526   0.010  0.00  0.00    +0.009 C 
ATOM     28  C   UNL     1       0.002  -0.004   0.002  0.00  0.00    +0.008 C 
ATOM     29  C   UNL     1       0.742  -0.511   1.242  0.00  0.00    +0.009 C 
ENDBRANCH  21  28
ENDBRANCH  17  21
ENDBRANCH  16  18
ENDBRANCH   1  16
TORSDOF 8
