REMARK  Name = ZINC59422698
REMARK  4 active torsions:
REMARK  status: ('A' for Active; 'I' for Inactive)
REMARK    1  A    between atoms: C_1  and  C_2
REMARK    2  A    between atoms: C_2  and  C_3
REMARK    3  A    between atoms: N_9  and  C_10
REMARK    4  A    between atoms: C_10  and  N_18
REMARK                            x       y       z     vdW  Elec       q    Type
REMARK                         _______ _______ _______ _____ _____    ______ ____
ROOT
ATOM      1  C   UNL     1       2.050   1.183  -0.981  0.00  0.00    +0.035 C 
ATOM      2  C   UNL     1       1.210   1.311   0.287  0.00  0.00    +0.011 C 
ATOM      3  C   UNL     1       1.901   2.109   1.391  0.00  0.00    +0.000 C 
ATOM      4  C   UNL     1       1.337   3.542   1.390  0.00  0.00    +0.000 C 
ATOM      5  C   UNL     1       1.887   4.299   0.185  0.00  0.00    +0.000 C 
ATOM      6  C   UNL     1       3.380   4.043   0.025  0.00  0.00    +0.000 C 
ATOM      7  C   UNL     1       3.643   3.157  -1.187  0.00  0.00    +0.000 C 
ATOM      8  C   UNL     1       3.473   1.685  -0.841  0.00  0.00    +0.011 C 
ENDROOT
BRANCH   1   9
ATOM      9  N   UNL     1       1.359   1.853  -2.085  0.00  0.00    -0.254 N 
ATOM     10  C   UNL     1       0.069   1.629  -2.506  0.00  0.00    +0.087 A 
ATOM     11  C   UNL     1      -0.949   0.778  -2.089  0.00  0.00    +0.029 A 
ATOM     12  C   UNL     1      -2.154   0.795  -2.734  0.00  0.00    +0.002 A 
ATOM     13  C   UNL     1      -2.372   1.654  -3.803  0.00  0.00    +0.002 A 
ATOM     14  C   UNL     1      -1.389   2.498  -4.231  0.00  0.00    +0.032 A 
ATOM     15  C   UNL     1      -0.145   2.502  -3.587  0.00  0.00    +0.113 A 
ATOM     16  N   UNL     1       0.990   3.203  -3.777  0.00  0.00    -0.130 NA
ATOM     17  N   UNL     1       1.881   2.854  -2.917  0.00  0.00    -0.066 NA
ENDBRANCH   1   9
BRANCH   1  23
ATOM     18  C   UNL     1       3.003  -0.450  -2.476  0.00  0.00    -0.066 C 
ATOM     19  C   UNL     1       3.006  -1.924  -2.888  0.00  0.00    -0.015 C 
ATOM     20  C   UNL     1       3.496  -2.775  -1.713  0.00  0.00    -0.003 C 
ATOM     21  C   UNL     1       2.602  -2.513  -0.497  0.00  0.00    -0.019 C 
ATOM     22  C   UNL     1       2.615  -1.018  -0.174  0.00  0.00    -0.075 C 
ATOM     23  N   UNL     1       2.110  -0.261  -1.327  0.00  0.00    +0.398 N 
ATOM     24  H   UNL     1       1.185  -0.587  -1.563  0.00  0.00    -0.078 HD
BRANCH  18  26
ATOM     25  C   UNL     1       3.308   0.048  -4.905  0.00  0.00    +0.002 C 
ATOM     26  C   UNL     1       2.514   0.405  -3.647  0.00  0.00    -0.019 C 
ENDBRANCH  18  26
ENDBRANCH   1  23
TORSDOF 3
