REMARK  Name = ZINC20358159
REMARK  7 active torsions:
REMARK  status: ('A' for Active; 'I' for Inactive)
REMARK    1  A    between atoms: C_1  and  C_2
REMARK    2  A    between atoms: C_2  and  C_4
REMARK    3  A    between atoms: C_2  and  O_22
REMARK    4  A    between atoms: C_4  and  N_5
REMARK    5  A    between atoms: C_13  and  S_15
REMARK    6  A    between atoms: S_15  and  C_16
REMARK    7  A    between atoms: N_18  and  C_21
REMARK                            x       y       z     vdW  Elec       q    Type
REMARK                         _______ _______ _______ _____ _____    ______ ____
ROOT
ATOM      1  N   UNL     1       0.762  -1.976   1.234  0.00  0.00    -0.326 N 
ATOM      2  C   UNL     1       1.380  -2.665   2.261  0.00  0.00    +0.132 A 
ATOM      3  C   UNL     1       1.318  -4.086   2.314  0.00  0.00    +0.051 A 
ATOM      4  C   UNL     1       0.656  -5.009   1.393  0.00  0.00    -0.022 A 
ATOM      5  C   UNL     1       0.747  -6.326   1.672  0.00  0.00    +0.010 A 
ATOM      6  S   UNL     1       1.707  -6.417   3.158  0.00  0.00    -0.072 S 
ATOM      7  C   UNL     1       1.983  -4.682   3.404  0.00  0.00    +0.115 A 
ATOM      8  N   UNL     1       2.617  -3.958   4.307  0.00  0.00    -0.215 NA
ATOM      9  C   UNL     1       2.641  -2.636   4.207  0.00  0.00    +0.191 A 
ATOM     10  N   UNL     1       2.040  -2.011   3.202  0.00  0.00    -0.206 NA
ATOM     11  C   UNL     1       0.153  -7.450   0.881  0.00  0.00    +0.126 C 
ATOM     12  N   UNL     1      -0.842  -6.885  -0.049  0.00  0.00    -0.300 NA
ATOM     13  C   UNL     1      -0.276  -5.743  -0.782  0.00  0.00    +0.089 C 
ATOM     14  C   UNL     1      -0.112  -4.545   0.157  0.00  0.00    +0.052 C 
ATOM     15  C   UNL     1      -1.340  -7.910  -0.976  0.00  0.00    +0.105 C 
ATOM     16  H   UNL     1       0.215  -2.453   0.590  0.00  0.00    +0.148 HD
ENDROOT
BRANCH   9  17
ATOM     17  S   UNL     1       3.494  -1.693   5.426  0.00  0.00    -0.089 S 
ATOM     18  C   UNL     1       4.149  -2.941   6.569  0.00  0.00    +0.093 C 
ENDBRANCH   9  17
BRANCH   1  19
ATOM     19  C   UNL     1       0.933  -0.525   1.117  0.00  0.00    +0.134 C 
BRANCH  19  21
ATOM     20  C   UNL     1       0.329   1.499  -0.216  0.00  0.00    +0.039 C 
ATOM     21  C   UNL     1       0.151  -0.015  -0.095  0.00  0.00    +0.128 C 
BRANCH  21  22
ATOM     22  O   UNL     1       0.640  -0.649  -1.279  0.00  0.00    -0.391 OA
ATOM     23  H   UNL     1       0.189  -0.373  -2.088  0.00  0.00    +0.210 HD
ENDBRANCH  21  22
ENDBRANCH  19  21
ENDBRANCH   1  19
TORSDOF 4
