REMARK  Name = ZINC12582399
REMARK  7 active torsions:
REMARK  status: ('A' for Active; 'I' for Inactive)
REMARK    1  A    between atoms: C_1  and  C_2
REMARK    2  A    between atoms: C_2  and  N_3
REMARK    3  A    between atoms: C_7  and  S_21
REMARK    4  A    between atoms: C_11  and  C_12
REMARK    5  A    between atoms: C_12  and  N_13
REMARK    6  A    between atoms: N_13  and  C_14
REMARK    7  A    between atoms: S_21  and  N_24
REMARK                            x       y       z     vdW  Elec       q    Type
REMARK                         _______ _______ _______ _____ _____    ______ ____
ROOT
ATOM      1  N   UNL     1      -0.020   1.094   2.454  0.00  0.00    -0.327 N 
ATOM      2  C   UNL     1      -0.258  -0.091   3.121  0.00  0.00    +0.069 A 
ATOM      3  C   UNL     1      -1.149  -1.140   2.941  0.00  0.00    +0.030 A 
ATOM      4  C   UNL     1      -1.129  -2.210   3.810  0.00  0.00    +0.030 A 
ATOM      5  C   UNL     1      -0.224  -2.245   4.862  0.00  0.00    +0.108 A 
ATOM      6  C   UNL     1       0.665  -1.225   5.050  0.00  0.00    +0.058 A 
ATOM      7  C   UNL     1       0.660  -0.128   4.184  0.00  0.00    +0.091 A 
ATOM      8  N   UNL     1       1.388   1.016   4.118  0.00  0.00    -0.231 NA
ATOM      9  C   UNL     1       0.990   1.730   3.106  0.00  0.00    +0.128 A 
ENDROOT
BRANCH   5  10
ATOM     10  S   UNL     1      -0.217  -3.622   5.960  0.00  0.00    +0.061 S 
ATOM     11  O   UNL     1       0.350  -3.166   7.181  0.00  0.00    -0.153 OA
ATOM     12  O   UNL     1      -1.512  -4.204   5.892  0.00  0.00    -0.153 OA
BRANCH  10  13
ATOM     13  N   UNL     1       0.837  -4.739   5.338  0.00  0.00    -0.177 NA
ATOM     14  C   UNL     1       0.367  -5.774   4.408  0.00  0.00    +0.109 C 
ATOM     15  C   UNL     1       1.234  -5.721   3.140  0.00  0.00    +0.017 C 
ATOM     16  C   UNL     1       2.708  -5.851   3.532  0.00  0.00    +0.003 C 
ATOM     17  C   UNL     1       3.102  -4.679   4.434  0.00  0.00    +0.017 C 
ATOM     18  C   UNL     1       2.258  -4.716   5.711  0.00  0.00    +0.109 C 
ENDBRANCH  10  13
ENDBRANCH   5  10
BRANCH   1  20
ATOM     19  C   UNL     1      -0.013   1.086   0.008  0.00  0.00    +0.027 C 
ATOM     20  C   UNL     1      -0.729   1.579   1.267  0.00  0.00    +0.120 C 
ENDBRANCH   1  20
BRANCH   9  21
ATOM     21  C   UNL     1       1.564   3.067   2.713  0.00  0.00    +0.176 C 
BRANCH  21  22
ATOM     22  N   UNL     1       0.828   4.134   3.396  0.00  0.00    -0.337 N 
ATOM     23  H   UNL     1       0.096   3.913   3.992  0.00  0.00    +0.147 HD
BRANCH  22  24
ATOM     24  C   UNL     1       1.181   5.470   3.187  0.00  0.00    +0.028 A 
ATOM     25  C   UNL     1       2.234   5.787   2.338  0.00  0.00    +0.024 A 
ATOM     26  C   UNL     1       2.577   7.109   2.130  0.00  0.00    +0.017 A 
ATOM     27  C   UNL     1       1.881   8.115   2.775  0.00  0.00    +0.018 A 
ATOM     28  C   UNL     1       0.836   7.802   3.626  0.00  0.00    +0.017 A 
ATOM     29  C   UNL     1       0.484   6.483   3.833  0.00  0.00    +0.024 A 
ATOM     30 BR   UNL     1       2.359   9.923   2.493  0.00  0.00    -0.050 Br
ENDBRANCH  22  24
ENDBRANCH  21  22
ENDBRANCH   9  21
TORSDOF 6
