REMARK  Name = ZINC12937978
REMARK  14 active torsions:
REMARK  status: ('A' for Active; 'I' for Inactive)
REMARK    1  A    between atoms: C_1  and  C_2
REMARK    2  A    between atoms: C_3  and  C_36
REMARK    3  A    between atoms: N_4  and  C_31
REMARK    4  A    between atoms: C_5  and  N_9
REMARK    5  A    between atoms: C_6  and  C_7
REMARK    6  A    between atoms: C_10  and  C_12
REMARK    7  A    between atoms: C_12  and  O_13
REMARK    8  A    between atoms: O_13  and  C_14
REMARK    9  A    between atoms: C_14  and  C_16
REMARK   10  A    between atoms: C_16  and  C_18
REMARK   11  A    between atoms: C_16  and  N_21
REMARK   12  A    between atoms: C_18  and  C_19
REMARK   13  A    between atoms: C_18  and  C_20
REMARK   14  A    between atoms: C_22  and  C_24
REMARK                            x       y       z     vdW  Elec       q    Type
REMARK                         _______ _______ _______ _____ _____    ______ ____
ROOT
ATOM      1  C   UNL     1      -1.134   3.607   0.050  0.00  0.00    +0.328 C 
ENDROOT
BRANCH   1   3
ATOM      2  N   UNL     1      -2.729   5.495   0.147  0.00  0.00    -0.268 N 
ATOM      3  C   UNL     1      -2.533   4.166   0.038  0.00  0.00    +0.256 C 
ATOM      4  O   UNL     1      -3.483   3.420  -0.069  0.00  0.00    -0.272 OA
ATOM      5  H   UNL     1      -1.970   6.099   0.146  0.00  0.00    +0.156 HD
BRANCH   2  10
ATOM      6  C   UNL     1      -7.641   6.041   1.202  0.00  0.00    +0.047 C 
ATOM      7  C   UNL     1      -6.233   6.278   0.722  0.00  0.00    -0.011 A 
ATOM      8  C   UNL     1      -5.771   7.376   0.103  0.00  0.00    +0.022 A 
ATOM      9  N   UNL     1      -4.439   7.215  -0.171  0.00  0.00    -0.329 N 
ATOM     10  C   UNL     1      -4.017   5.999   0.260  0.00  0.00    +0.124 A 
ATOM     11  C   UNL     1      -5.099   5.353   0.840  0.00  0.00    +0.095 A 
ATOM     12  C   UNL     1      -6.589   8.597  -0.231  0.00  0.00    +0.064 C 
BRANCH   9  13
ATOM     13  C   UNL     1      -3.594   8.210  -0.837  0.00  0.00    +0.089 C 
ATOM     14  C   UNL     1      -2.861   7.566  -2.032  0.00  0.00    +0.025 C 
ATOM     15  C   UNL     1      -1.462   8.232  -2.023  0.00  0.00    +0.002 C 
ATOM     16  C   UNL     1      -1.149   8.350  -0.510  0.00  0.00    +0.002 C 
ATOM     17  C   UNL     1      -2.506   8.709   0.130  0.00  0.00    +0.025 C 
ENDBRANCH   9  13
BRANCH  11  18
ATOM     18  C   UNL     1      -5.109   4.048   1.431  0.00  0.00    +0.103 C 
ATOM     19  N   UNL     1      -5.116   3.014   1.900  0.00  0.00    -0.191 NA
ENDBRANCH  11  18
ENDBRANCH   2  10
ENDBRANCH   1   3
BRANCH   1  20
ATOM     20  O   UNL     1      -1.192   2.157   0.039  0.00  0.00    -0.454 OA
BRANCH  20  21
ATOM     21  C   UNL     1      -0.021   1.500   0.047  0.00  0.00    +0.328 C 
ATOM     22  O   UNL     1       1.018   2.117   0.058  0.00  0.00    -0.249 OA
BRANCH  21  23
ATOM     23  C   UNL     1      -0.002  -0.007   0.036  0.00  0.00    +0.185 C 
BRANCH  23  24
ATOM     24  N   UNL     1       1.385  -0.478   0.042  0.00  0.00    -0.298 N 
ATOM     25  C   UNL     1       1.680  -1.700   0.528  0.00  0.00    +0.246 C 
ATOM     26  O   UNL     1       0.795  -2.411   0.963  0.00  0.00    -0.270 OA
ATOM     27  H   UNL     1       2.091   0.090  -0.305  0.00  0.00    +0.150 HD
BRANCH  25  28
ATOM     28  C   UNL     1       3.079  -2.175   0.533  0.00  0.00    +0.055 A 
ATOM     29  C   UNL     1       4.098  -1.363   0.030  0.00  0.00    +0.014 A 
ATOM     30  C   UNL     1       5.402  -1.810   0.043  0.00  0.00    +0.001 A 
ATOM     31  C   UNL     1       5.702  -3.065   0.543  0.00  0.00    +0.001 A 
ATOM     32  C   UNL     1       4.699  -3.878   1.038  0.00  0.00    +0.021 A 
ATOM     33  C   UNL     1       3.389  -3.441   1.037  0.00  0.00    +0.053 A 
ATOM     34 CL   UNL     1       2.130  -4.462   1.659  0.00  0.00    -0.083 Cl
ENDBRANCH  25  28
ENDBRANCH  23  24
BRANCH  23  35
ATOM     35  C   UNL     1      -0.709  -0.517  -1.221  0.00  0.00    +0.014 C 
ATOM     36  C   UNL     1       0.084  -0.094  -2.459  0.00  0.00    +0.009 C 
ATOM     37  C   UNL     1      -0.800  -2.043  -1.171  0.00  0.00    +0.009 C 
ENDBRANCH  23  35
ENDBRANCH  21  23
ENDBRANCH  20  21
ENDBRANCH   1  20
TORSDOF 10
