REMARK  Name = ZINC36556906
REMARK  14 active torsions:
REMARK  status: ('A' for Active; 'I' for Inactive)
REMARK    1  A    between atoms: C_1  and  C_2
REMARK    2  A    between atoms: C_5  and  C_7
REMARK    3  A    between atoms: C_7  and  N_8
REMARK    4  A    between atoms: N_8  and  C_9
REMARK    5  A    between atoms: C_9  and  C_11
REMARK    6  A    between atoms: C_9  and  C_19
REMARK    7  A    between atoms: N_21  and  C_22
REMARK    8  A    between atoms: C_22  and  C_23
REMARK    9  A    between atoms: C_22  and  C_24
REMARK   10  A    between atoms: C_22  and  C_25
REMARK   11  A    between atoms: C_26  and  C_28
REMARK   12  A    between atoms: C_36  and  C_38
REMARK   13  A    between atoms: C_39  and  C_40
REMARK   14  A    between atoms: C_39  and  C_41
REMARK                            x       y       z     vdW  Elec       q    Type
REMARK                         _______ _______ _______ _____ _____    ______ ____
ROOT
ATOM      1  N   UNL     1       1.943  -2.651  -2.223  0.00  0.00    -0.278 N 
ATOM      2  C   UNL     1       1.065  -3.621  -1.899  0.00  0.00    +0.220 C 
ATOM      3  O   UNL     1       1.439  -4.771  -1.807  0.00  0.00    -0.275 OA
ENDROOT
BRANCH   2   4
ATOM      4  C   UNL     1      -0.392  -3.274  -1.649  0.00  0.00    +0.079 C 
ATOM      5  C   UNL     1      -0.609  -3.131  -0.146  0.00  0.00    +0.017 C 
ATOM      6  C   UNL     1      -1.969  -3.659   0.308  0.00  0.00    -0.004 C 
ATOM      7  C   UNL     1      -2.132  -5.154  -0.045  0.00  0.00    +0.008 C 
ATOM      8  C   UNL     1      -2.529  -4.620  -1.444  0.00  0.00    -0.001 C 
ATOM      9  C   UNL     1      -1.267  -4.359  -2.264  0.00  0.00    +0.001 C 
ATOM     10  C   UNL     1      -1.622  -4.010  -3.712  0.00  0.00    +0.008 C 
ATOM     11  C   UNL     1      -3.102  -3.414  -0.697  0.00  0.00    -0.029 C 
ATOM     12  C   UNL     1      -3.067  -2.070  -1.417  0.00  0.00    +0.011 C 
ATOM     13  C   UNL     1      -4.500  -3.679  -0.102  0.00  0.00    +0.011 C 
ENDBRANCH   2   4
BRANCH   1  14
ATOM     14  C   UNL     1       1.518  -1.248  -2.220  0.00  0.00    +0.183 C 
BRANCH  14  19
ATOM     15  C   UNL     1       1.600  -0.962   2.815  0.00  0.00    +0.086 C 
ATOM     16  C   UNL     1       1.676  -0.564   1.364  0.00  0.00    +0.102 A 
ATOM     17  C   UNL     1       1.930   0.672   0.899  0.00  0.00    +0.045 A 
ATOM     18  C   UNL     1       1.907   0.592  -0.513  0.00  0.00    +0.046 A 
ATOM     19  C   UNL     1       1.641  -0.689  -0.826  0.00  0.00    +0.122 A 
ATOM     20  O   UNL     1       1.507  -1.386   0.315  0.00  0.00    -0.463 OA
ENDBRANCH  14  19
ENDBRANCH   1  14
BRANCH   1  21
ATOM     21  C   UNL     1       3.321  -2.998  -2.577  0.00  0.00    +0.195 C 
BRANCH  21  22
ATOM     22  C   UNL     1       3.325  -3.789  -3.859  0.00  0.00    +0.018 A 
ATOM     23  C   UNL     1       2.461  -3.451  -4.885  0.00  0.00    +0.048 A 
ATOM     24  C   UNL     1       2.466  -4.178  -6.062  0.00  0.00    +0.020 A 
ATOM     25  C   UNL     1       3.333  -5.243  -6.213  0.00  0.00    +0.003 A 
ATOM     26  C   UNL     1       4.197  -5.582  -5.189  0.00  0.00    +0.020 A 
ATOM     27  C   UNL     1       4.198  -4.852  -4.014  0.00  0.00    +0.048 A 
ATOM     28 CL   UNL     1       5.289  -5.273  -2.730  0.00  0.00    -0.083 Cl
ATOM     29 CL   UNL     1       1.370  -2.114  -4.694  0.00  0.00    -0.083 Cl
ENDBRANCH  21  22
BRANCH  21  30
ATOM     30  C   UNL     1       4.125  -1.737  -2.762  0.00  0.00    +0.239 C 
ATOM     31  O   UNL     1       3.943  -0.789  -2.029  0.00  0.00    -0.273 OA
ATOM     32  N   UNL     1       5.046  -1.663  -3.744  0.00  0.00    -0.309 N 
ATOM     33  H   UNL     1       5.135  -2.389  -4.381  0.00  0.00    +0.149 HD
BRANCH  32  34
ATOM     34  C   UNL     1       5.913  -0.487  -3.847  0.00  0.00    +0.026 C 
ATOM     35  C   UNL     1       6.776  -0.377  -2.588  0.00  0.00    +0.031 C 
ATOM     36  C   UNL     1       6.817  -0.626  -5.074  0.00  0.00    +0.031 C 
ATOM     37  C   UNL     1       5.053   0.770  -3.987  0.00  0.00    +0.031 C 
ENDBRANCH  32  34
ENDBRANCH  21  30
ENDBRANCH   1  21
TORSDOF 7
