REMARK  Name = ZINC36597666
REMARK  14 active torsions:
REMARK  status: ('A' for Active; 'I' for Inactive)
REMARK    1  A    between atoms: C_1  and  C_2
REMARK    2  A    between atoms: C_2  and  C_3
REMARK    3  A    between atoms: C_3  and  C_4
REMARK    4  A    between atoms: C_4  and  N_5
REMARK    5  A    between atoms: C_6  and  C_8
REMARK    6  A    between atoms: C_8  and  C_10
REMARK    7  A    between atoms: C_8  and  N_17
REMARK    8  A    between atoms: C_13  and  O_16
REMARK    9  A    between atoms: N_17  and  C_18
REMARK   10  A    between atoms: C_18  and  C_19
REMARK   11  A    between atoms: C_22  and  C_24
REMARK   12  A    between atoms: C_25  and  C_27
REMARK   13  A    between atoms: C_31  and  O_34
REMARK   14  A    between atoms: C_32  and  O_33
REMARK                            x       y       z     vdW  Elec       q    Type
REMARK                         _______ _______ _______ _____ _____    ______ ____
ROOT
ATOM      1  N   UNL     1       1.494  -6.037   5.075  0.00  0.00    -0.275 N 
ATOM      2  C   UNL     1       2.330  -4.980   5.095  0.00  0.00    +0.252 C 
ATOM      3  O   UNL     1       1.956  -3.919   5.556  0.00  0.00    -0.270 OA
ENDROOT
BRANCH   2   4
ATOM      4  C   UNL     1       3.698  -5.110   4.558  0.00  0.00    +0.082 A 
ATOM      5  C   UNL     1       3.942  -5.923   3.447  0.00  0.00    +0.017 A 
ATOM      6  C   UNL     1       5.220  -6.041   2.948  0.00  0.00    +0.005 A 
ATOM      7  C   UNL     1       6.269  -5.359   3.542  0.00  0.00    +0.049 A 
ATOM      8  C   UNL     1       6.044  -4.551   4.643  0.00  0.00    +0.159 A 
ATOM      9  C   UNL     1       4.757  -4.416   5.155  0.00  0.00    +0.171 A 
BRANCH   9  10
ATOM     10  O   UNL     1       4.530  -3.620   6.230  0.00  0.00    -0.503 OA
ATOM     11  H   UNL     1       4.611  -4.074   7.080  0.00  0.00    +0.292 HD
ENDBRANCH   9  10
BRANCH   8  12
ATOM     12  O   UNL     1       7.079  -3.884   5.220  0.00  0.00    -0.503 OA
ATOM     13  H   UNL     1       7.233  -3.003   4.853  0.00  0.00    +0.292 HD
ENDBRANCH   8  12
ENDBRANCH   2   4
BRANCH   1  14
ATOM     14  C   UNL     1       2.023  -7.385   4.848  0.00  0.00    +0.193 C 
BRANCH  14  15
ATOM     15  C   UNL     1       1.302  -8.018   3.686  0.00  0.00    -0.018 A 
ATOM     16  C   UNL     1       0.622  -7.226   2.781  0.00  0.00    +0.009 A 
ATOM     17  C   UNL     1      -0.041  -7.804   1.716  0.00  0.00    +0.046 A 
ATOM     18  C   UNL     1      -0.022  -9.182   1.554  0.00  0.00    +0.117 A 
ATOM     19  C   UNL     1       0.662  -9.975   2.464  0.00  0.00    +0.046 A 
ATOM     20  C   UNL     1       1.327  -9.391   3.525  0.00  0.00    +0.009 A 
BRANCH  18  21
ATOM     21  O   UNL     1      -0.673  -9.754   0.507  0.00  0.00    -0.507 OA
ATOM     22  H   UNL     1      -0.130  -9.851  -0.287  0.00  0.00    +0.292 HD
ENDBRANCH  18  21
ENDBRANCH  14  15
BRANCH  14  24
ATOM     23  N   UNL     1       2.296  -9.479   6.135  0.00  0.00    -0.313 N 
ATOM     24  C   UNL     1       1.816  -8.221   6.085  0.00  0.00    +0.238 C 
ATOM     25  O   UNL     1       1.217  -7.761   7.034  0.00  0.00    -0.273 OA
ATOM     26  H   UNL     1       2.775  -9.847   5.376  0.00  0.00    +0.149 HD
BRANCH  23  27
ATOM     27  C   UNL     1       2.095 -10.292   7.338  0.00  0.00    +0.104 C 
BRANCH  27  28
ATOM     28  C   UNL     1       2.732 -11.668   7.136  0.00  0.00    +0.018 C 
BRANCH  28  30
ATOM     29  C   UNL     1       3.159 -13.893   8.189  0.00  0.00    +0.004 C 
ATOM     30  C   UNL     1       2.522 -12.517   8.391  0.00  0.00    -0.002 C 
ENDBRANCH  28  30
ENDBRANCH  27  28
ENDBRANCH  23  27
ENDBRANCH  14  24
ENDBRANCH   1  14
BRANCH   1  31
ATOM     31  C   UNL     1       0.057  -5.840   5.280  0.00  0.00    +0.183 C 
BRANCH  31  32
ATOM     32  C   UNL     1      -0.164  -5.013   6.520  0.00  0.00    +0.122 A 
ATOM     33  C   UNL     1      -0.293  -3.674   6.560  0.00  0.00    +0.046 A 
ATOM     34  C   UNL     1      -0.484  -3.322   7.916  0.00  0.00    +0.045 A 
ATOM     35  C   UNL     1      -0.460  -4.466   8.623  0.00  0.00    +0.102 A 
ATOM     36  O   UNL     1      -0.272  -5.487   7.772  0.00  0.00    -0.463 OA
ATOM     37  C   UNL     1      -0.622  -4.582  10.117  0.00  0.00    +0.086 C 
ENDBRANCH  31  32
ENDBRANCH   1  31
TORSDOF 12
