REMARK  Name = ZINC22752049
REMARK  15 active torsions:
REMARK  status: ('A' for Active; 'I' for Inactive)
REMARK    1  A    between atoms: C_1  and  C_2
REMARK    2  A    between atoms: C_2  and  C_3
REMARK    3  A    between atoms: C_3  and  C_4
REMARK    4  A    between atoms: C_3  and  C_5
REMARK    5  A    between atoms: C_3  and  C_6
REMARK    6  A    between atoms: N_14  and  C_18
REMARK    7  A    between atoms: C_18  and  C_19
REMARK    8  A    between atoms: N_21  and  C_22
REMARK    9  A    between atoms: C_22  and  C_23
REMARK   10  A    between atoms: C_23  and  C_25
REMARK   11  A    between atoms: C_23  and  N_31
REMARK   12  A    between atoms: N_31  and  C_32
REMARK   13  A    between atoms: N_31  and  C_34
REMARK   14  A    between atoms: C_32  and  C_33
REMARK   15  A    between atoms: C_34  and  C_35
REMARK                            x       y       z     vdW  Elec       q    Type
REMARK                         _______ _______ _______ _____ _____    ______ ____
ROOT
ATOM      1  C   UNL     1       3.426  -7.835  -2.745  0.00  0.00    +0.213 C 
ENDROOT
BRANCH   1  10
ATOM      2  C   UNL     1      -1.428  -3.643  -4.419  0.00  0.00    -0.005 C 
ATOM      3  C   UNL     1      -0.562  -3.404  -3.180  0.00  0.00    +0.006 C 
ATOM      4  C   UNL     1      -0.100  -4.750  -2.615  0.00  0.00    +0.035 C 
ATOM      5  C   UNL     1       0.697  -5.502  -3.675  0.00  0.00    +0.113 C 
ATOM      6  C   UNL     1      -0.146  -5.726  -4.926  0.00  0.00    +0.035 C 
ATOM      7  C   UNL     1      -0.608  -4.377  -5.482  0.00  0.00    +0.006 C 
ATOM      8  C   UNL     1       1.186  -6.823  -3.127  0.00  0.00    +0.247 C 
ATOM      9  O   UNL     1       0.511  -7.746  -2.723  0.00  0.00    -0.273 OA
ATOM     10  N   UNL     1       2.533  -6.759  -3.181  0.00  0.00    -0.215 N 
ATOM     11  C   UNL     1       2.951  -5.591  -3.684  0.00  0.00    +0.310 C 
ATOM     12  O   UNL     1       4.121  -5.299  -3.831  0.00  0.00    -0.252 OA
ATOM     13  N   UNL     1       1.929  -4.776  -4.007  0.00  0.00    -0.285 N 
ATOM     14  H   UNL     1       1.872  -3.763  -4.434  0.00  0.00    +0.151 HD
BRANCH   2  15
ATOM     15  C   UNL     1      -1.901  -2.300  -4.977  0.00  0.00    -0.032 C 
ATOM     16  C   UNL     1      -2.768  -2.539  -6.215  0.00  0.00    +0.011 C 
ATOM     17  C   UNL     1      -0.688  -1.451  -5.361  0.00  0.00    +0.011 C 
BRANCH  15  19
ATOM     18  C   UNL     1      -3.195  -0.222  -4.473  0.00  0.00    +0.004 C 
ATOM     19  C   UNL     1      -2.722  -1.566  -3.914  0.00  0.00    +0.003 C 
ENDBRANCH  15  19
ENDBRANCH   2  15
ENDBRANCH   1  10
BRANCH   1  20
ATOM     20  C   UNL     1       3.707  -8.757  -3.903  0.00  0.00    +0.231 C 
ATOM     21  O   UNL     1       3.137  -8.591  -4.961  0.00  0.00    -0.274 OA
ATOM     22  N   UNL     1       4.590  -9.765  -3.764  0.00  0.00    -0.315 N 
ATOM     23  H   UNL     1       5.044  -9.967  -2.783  0.00  0.00    +0.149 HD
BRANCH  22  24
ATOM     24  C   UNL     1       4.944 -10.593  -4.919  0.00  0.00    +0.093 C 
BRANCH  24  25
ATOM     25  C   UNL     1       5.860 -11.733  -4.468  0.00  0.00    -0.020 C 
BRANCH  25  26
ATOM     26  C   UNL     1       6.091 -12.678  -5.619  0.00  0.00    -0.059 A 
ATOM     27  C   UNL     1       5.027 -13.088  -6.401  0.00  0.00    +0.002 A 
ATOM     28  C   UNL     1       5.239 -13.951  -7.460  0.00  0.00    +0.000 A 
ATOM     29  C   UNL     1       6.514 -14.411  -7.731  0.00  0.00    +0.000 A 
ATOM     30  C   UNL     1       7.577 -14.005  -6.947  0.00  0.00    +0.000 A 
ATOM     31  C   UNL     1       7.365 -13.138  -5.891  0.00  0.00    +0.002 A 
ENDBRANCH  25  26
BRANCH  25  32
ATOM     32  N   UNL     1       5.227 -12.459  -3.358  0.00  0.00    +0.385 N 
ATOM     33  H   UNL     1       4.613 -11.743  -2.793  0.00  0.00    -0.081 HD
BRANCH  32  34
ATOM     34  C   UNL     1       4.340 -13.517  -3.859  0.00  0.00    -0.081 C 
ATOM     35  C   UNL     1       2.979 -12.916  -4.215  0.00  0.00    -0.017 C 
ENDBRANCH  32  34
BRANCH  32  36
ATOM     36  C   UNL     1       6.238 -13.008  -2.445  0.00  0.00    -0.081 C 
ATOM     37  C   UNL     1       6.840 -11.875  -1.611  0.00  0.00    -0.017 C 
ENDBRANCH  32  36
ENDBRANCH  25  32
ENDBRANCH  24  25
ENDBRANCH  22  24
ENDBRANCH   1  20
TORSDOF 10
