REMARK  Name = ZINC00733402
REMARK  13 active torsions:
REMARK  status: ('A' for Active; 'I' for Inactive)
REMARK    1  A    between atoms: C_1  and  C_2
REMARK    2  A    between atoms: C_5  and  N_9
REMARK    3  A    between atoms: C_6  and  C_8
REMARK    4  A    between atoms: C_10  and  N_20
REMARK    5  A    between atoms: C_12  and  C_14
REMARK    6  A    between atoms: C_21  and  C_23
REMARK    7  A    between atoms: C_23  and  N_24
REMARK    8  A    between atoms: N_24  and  C_25
REMARK    9  A    between atoms: C_25  and  C_26
REMARK   10  A    between atoms: C_26  and  C_27
REMARK   11  A    between atoms: C_26  and  C_28
REMARK   12  A    between atoms: C_29  and  C_31
REMARK   13  A    between atoms: C_35  and  N_37
REMARK                            x       y       z     vdW  Elec       q    Type
REMARK                         _______ _______ _______ _____ _____    ______ ____
ROOT
ATOM      1  N   UNL     1      -3.717   0.776  -0.045  0.00  0.00    -0.269 N 
ATOM      2  C   UNL     1      -4.348   1.961  -0.165  0.00  0.00    +0.236 C 
ATOM      3  O   UNL     1      -3.750   2.926  -0.593  0.00  0.00    -0.274 OA
ATOM      4  H   UNL     1      -4.195   0.004   0.297  0.00  0.00    +0.156 HD
ENDROOT
BRANCH   1   6
ATOM      5  N   UNL     1      -1.653  -0.494  -0.458  0.00  0.00    -0.218 N 
ATOM      6  C   UNL     1      -2.377   0.659  -0.414  0.00  0.00    +0.129 A 
ATOM      7  C   UNL     1      -1.558   1.675  -0.791  0.00  0.00    +0.074 A 
ATOM      8  C   UNL     1      -0.295   1.125  -1.083  0.00  0.00    +0.095 A 
ATOM      9  N   UNL     1      -0.357  -0.175  -0.882  0.00  0.00    -0.165 NA
BRANCH   5  14
ATOM     10  C   UNL     1      -3.561  -5.681   0.827  0.00  0.00    +0.044 C 
ATOM     11  C   UNL     1      -3.054  -4.304   0.486  0.00  0.00    -0.050 A 
ATOM     12  C   UNL     1      -3.277  -3.252   1.355  0.00  0.00    +0.005 A 
ATOM     13  C   UNL     1      -2.809  -1.989   1.048  0.00  0.00    +0.028 A 
ATOM     14  C   UNL     1      -2.124  -1.774  -0.141  0.00  0.00    +0.070 A 
ATOM     15  C   UNL     1      -1.902  -2.833  -1.012  0.00  0.00    -0.025 A 
ATOM     16  C   UNL     1      -2.368  -4.094  -0.696  0.00  0.00    +0.008 A 
ATOM     17  C   UNL     1      -1.154  -2.605  -2.300  0.00  0.00    +0.046 C 
ENDBRANCH   5  14
BRANCH   8  18
ATOM     18  C   UNL     1       0.899   1.880  -1.538  0.00  0.00    +0.002 A 
ATOM     19  C   UNL     1       0.828   3.260  -1.717  0.00  0.00    +0.010 A 
ATOM     20  C   UNL     1       1.943   3.957  -2.135  0.00  0.00    +0.001 A 
ATOM     21  C   UNL     1       3.126   3.287  -2.387  0.00  0.00    +0.000 A 
ATOM     22  C   UNL     1       3.201   1.917  -2.216  0.00  0.00    +0.001 A 
ATOM     23  C   UNL     1       2.094   1.210  -1.792  0.00  0.00    +0.010 A 
ENDBRANCH   8  18
ENDBRANCH   1   6
BRANCH   2  24
ATOM     24  C   UNL     1      -5.796   2.087   0.234  0.00  0.00    +0.204 C 
BRANCH  24  25
ATOM     25  N   UNL     1      -6.245   3.464   0.011  0.00  0.00    -0.288 N 
ATOM     26  C   UNL     1      -6.305   4.329   1.043  0.00  0.00    +0.247 C 
ATOM     27  O   UNL     1      -6.698   5.464   0.862  0.00  0.00    -0.270 OA
BRANCH  26  28
ATOM     28  C   UNL     1      -5.892   3.896   2.395  0.00  0.00    +0.039 A 
ATOM     29  C   UNL     1      -5.025   2.812   2.550  0.00  0.00    +0.013 A 
ATOM     30  C   UNL     1      -4.640   2.417   3.814  0.00  0.00    +0.003 A 
ATOM     31  C   UNL     1      -5.119   3.084   4.927  0.00  0.00    +0.033 A 
ATOM     32  C   UNL     1      -5.982   4.155   4.781  0.00  0.00    +0.127 A 
ATOM     33  C   UNL     1      -6.371   4.564   3.522  0.00  0.00    +0.045 A 
BRANCH  32  34
ATOM     34  N   UNL     1      -6.490   4.863   5.977  0.00  0.00    +0.056 N 
ATOM     35  O   UNL     1      -7.251   5.806   5.850  0.00  0.00    -0.126 OA
ATOM     36  O   UNL     1      -6.148   4.503   7.089  0.00  0.00    -0.126 OA
ENDBRANCH  32  34
ENDBRANCH  26  28
BRANCH  25  37
ATOM     37  C   UNL     1      -6.630   3.900  -1.334  0.00  0.00    +0.111 C 
BRANCH  37  38
ATOM     38  C   UNL     1      -8.104   3.567  -1.575  0.00  0.00    +0.000 C 
ATOM     39  C   UNL     1      -8.975   4.389  -0.623  0.00  0.00    +0.009 C 
ATOM     40  C   UNL     1      -8.472   3.903  -3.022  0.00  0.00    +0.009 C 
ENDBRANCH  37  38
ENDBRANCH  25  37
ENDBRANCH  24  25
ENDBRANCH   2  24
TORSDOF 9
