REMARK  Name = ZINC02406493
REMARK  5 active torsions:
REMARK  status: ('A' for Active; 'I' for Inactive)
REMARK    1  A    between atoms: C_3  and  C_6
REMARK    2  A    between atoms: C_16  and  C_18
REMARK    3  A    between atoms: C_18  and  S_19
REMARK    4  A    between atoms: S_19  and  C_20
REMARK    5  A    between atoms: C_20  and  N_22
REMARK                            x       y       z     vdW  Elec       q    Type
REMARK                         _______ _______ _______ _____ _____    ______ ____
ROOT
ATOM      1  C   UNL     1       3.599   0.625  -0.029  0.00  0.00    +0.068 C 
ATOM      2  C   UNL     1       4.079  -0.100  -1.285  0.00  0.00    +0.068 C 
ATOM      3  C   UNL     1       5.570  -0.277  -1.272  0.00  0.00    +0.057 A 
ATOM      4  C   UNL     1       6.302  -0.253  -0.079  0.00  0.00    +0.057 A 
ATOM      5  C   UNL     1       7.690  -0.430  -0.130  0.00  0.00    +0.127 A 
ATOM      6  N   UNL     1       8.262  -0.612  -1.307  0.00  0.00    -0.222 NA
ATOM      7  C   UNL     1       7.537  -0.626  -2.417  0.00  0.00    +0.222 A 
ATOM      8  N   UNL     1       6.222  -0.463  -2.407  0.00  0.00    -0.218 NA
ATOM      9  N   UNL     1       8.178  -0.817  -3.630  0.00  0.00    -0.254 N 
ATOM     10  C   UNL     1       9.515  -0.985  -3.667  0.00  0.00    +0.230 C 
ATOM     11  O   UNL     1      10.156  -0.968  -2.638  0.00  0.00    -0.274 OA
ATOM     12  C   UNL     1       5.619  -0.039   1.205  0.00  0.00    +0.167 C 
ATOM     13  O   UNL     1       6.244   0.191   2.219  0.00  0.00    -0.292 OA
ATOM     14  C   UNL     1       4.106  -0.116   1.215  0.00  0.00    +0.091 C 
ATOM     15  H   UNL     1       7.664  -0.830  -4.453  0.00  0.00    +0.158 HD
ENDROOT
BRANCH   1  18
ATOM     16  C   UNL     1      -0.016   1.341   0.009  0.00  0.00    +0.041 A 
ATOM     17  C   UNL     1       1.331   1.769  -0.001  0.00  0.00    +0.045 A 
ATOM     18  C   UNL     1       2.092   0.660  -0.014  0.00  0.00    +0.109 A 
ATOM     19  O   UNL     1       1.282  -0.411  -0.012  0.00  0.00    -0.468 OA
ATOM     20  C   UNL     1       0.002  -0.004   0.002  0.00  0.00    +0.195 A 
ENDBRANCH   1  18
BRANCH  10  21
ATOM     21  C   UNL     1      10.212  -1.193  -4.987  0.00  0.00    +0.172 C 
BRANCH  21  22
ATOM     22  S   UNL     1      11.993  -1.386  -4.706  0.00  0.00    -0.093 S 
BRANCH  22  23
ATOM     23  C   UNL     1      12.657  -1.617  -6.321  0.00  0.00    +0.110 C 
ATOM     24  S   UNL     1      11.618  -1.616  -7.682  0.00  0.00    -0.028 S 
BRANCH  23  25
ATOM     25  N   UNL     1      13.983  -1.796  -6.486  0.00  0.00    -0.319 N 
ATOM     26  C   UNL     1      14.886  -1.806  -5.328  0.00  0.00    +0.106 C 
ATOM     27  C   UNL     1      15.717  -3.092  -5.362  0.00  0.00    +0.019 C 
ATOM     28  C   UNL     1      16.427  -3.201  -6.713  0.00  0.00    +0.003 C 
ATOM     29  C   UNL     1      15.386  -3.268  -7.833  0.00  0.00    +0.019 C 
ATOM     30  C   UNL     1      14.551  -1.990  -7.827  0.00  0.00    +0.106 C 
ENDBRANCH  23  25
ENDBRANCH  22  23
ENDBRANCH  21  22
ENDBRANCH  10  21
TORSDOF 5
