REMARK  Name = ZINC10534474
REMARK  8 active torsions:
REMARK  status: ('A' for Active; 'I' for Inactive)
REMARK    1  A    between atoms: C_1  and  C_2
REMARK    2  A    between atoms: C_3  and  C_29
REMARK    3  A    between atoms: N_9  and  C_24
REMARK    4  A    between atoms: C_10  and  S_12
REMARK    5  A    between atoms: S_12  and  C_13
REMARK    6  A    between atoms: C_13  and  C_14
REMARK    7  A    between atoms: N_20  and  C_21
REMARK    8  A    between atoms: N_20  and  C_22
REMARK                            x       y       z     vdW  Elec       q    Type
REMARK                         _______ _______ _______ _____ _____    ______ ____
ROOT
ATOM      1  C   UNL     1       2.821  -2.053  -6.008  0.00  0.00    +0.045 C 
ATOM      2  C   UNL     1       2.624  -0.748  -5.280  0.00  0.00    -0.026 A 
ATOM      3  C   UNL     1       2.976   0.410  -5.858  0.00  0.00    -0.008 A 
ATOM      4  S   UNL     1       2.556   1.630  -4.628  0.00  0.00    -0.073 S 
ATOM      5  C   UNL     1       1.919   0.549  -3.373  0.00  0.00    +0.117 A 
ATOM      6  C   UNL     1       2.051  -0.730  -3.946  0.00  0.00    +0.075 A 
ATOM      7  C   UNL     1       1.605  -1.823  -3.137  0.00  0.00    +0.263 A 
ATOM      8  O   UNL     1       1.681  -2.967  -3.549  0.00  0.00    -0.267 OA
ATOM      9  N   UNL     1       1.106  -1.571  -1.913  0.00  0.00    -0.284 N 
ATOM     10  C   UNL     1       1.009  -0.295  -1.437  0.00  0.00    +0.173 A 
ATOM     11  N   UNL     1       1.412   0.729  -2.160  0.00  0.00    -0.216 NA
ATOM     12  C   UNL     1       3.582   0.627  -7.221  0.00  0.00    +0.052 C 
ENDROOT
BRANCH   9  13
ATOM     13  C   UNL     1       0.654  -2.686  -1.078  0.00  0.00    +0.093 C 
ATOM     14  C   UNL     1       1.827  -3.648  -0.799  0.00  0.00    +0.025 C 
ATOM     15  C   UNL     1       1.179  -5.055  -0.828  0.00  0.00    +0.002 C 
ATOM     16  C   UNL     1       0.142  -4.931  -1.972  0.00  0.00    +0.002 C 
ATOM     17  C   UNL     1      -0.417  -3.502  -1.823  0.00  0.00    +0.025 C 
ENDBRANCH   9  13
BRANCH  10  18
ATOM     18  S   UNL     1       0.342  -0.016   0.170  0.00  0.00    -0.080 S 
BRANCH  18  19
ATOM     19  C   UNL     1       0.467   1.788   0.253  0.00  0.00    +0.153 C 
BRANCH  19  20
ATOM     20  C   UNL     1      -0.062   2.267   1.580  0.00  0.00    +0.146 A 
ATOM     21  N   UNL     1       0.755   2.384   2.612  0.00  0.00    -0.199 NA
ATOM     22  C   UNL     1       0.292   2.807   3.786  0.00  0.00    +0.217 A 
ATOM     23  N   UNL     1      -0.994   3.114   3.919  0.00  0.00    -0.181 NA
ATOM     24  C   UNL     1      -1.813   2.996   2.879  0.00  0.00    +0.222 A 
ATOM     25  N   UNL     1      -1.341   2.576   1.707  0.00  0.00    -0.198 NA
ATOM     26  N   UNL     1      -3.149   3.313   3.012  0.00  0.00    -0.306 N 
ATOM     27  C   UNL     1      -3.666   3.780   4.301  0.00  0.00    +0.132 C 
ATOM     28  C   UNL     1      -4.051   3.183   1.865  0.00  0.00    +0.132 C 
ATOM     29  N   UNL     1       1.145   2.928   4.863  0.00  0.00    -0.327 N 
ATOM     30  H   UNL     1       2.084   2.703   4.766  0.00  0.00    +0.145 HD
ATOM     31  H   UNL     1       0.807   3.236   5.718  0.00  0.00    +0.145 HD
ENDBRANCH  19  20
ENDBRANCH  18  19
ENDBRANCH  10  18
TORSDOF 4
