REMARK  Name = ZINC02255642
REMARK  3 active torsions:
REMARK  status: ('A' for Active; 'I' for Inactive)
REMARK    1  A    between atoms: C_4  and  C_7
REMARK    2  A    between atoms: C_17  and  C_31
REMARK    3  A    between atoms: C_19  and  C_21
REMARK                            x       y       z     vdW  Elec       q    Type
REMARK                         _______ _______ _______ _____ _____    ______ ____
ROOT
ATOM      1  C   UNL     1      -0.128   5.010   0.732  0.00  0.00    +0.251 C 
ATOM      2  O   UNL     1       0.880   5.440   1.258  0.00  0.00    -0.270 OA
ATOM      3  N   UNL     1      -0.057   3.949  -0.096  0.00  0.00    -0.256 N 
ATOM      4  C   UNL     1       1.183   3.370  -0.409  0.00  0.00    +0.058 A 
ATOM      5  C   UNL     1       2.298   3.642   0.367  0.00  0.00    +0.025 A 
ATOM      6  C   UNL     1       3.515   3.070   0.048  0.00  0.00    +0.002 A 
ATOM      7  C   UNL     1       3.625   2.228  -1.043  0.00  0.00    +0.002 A 
ATOM      8  C   UNL     1       2.517   1.950  -1.823  0.00  0.00    +0.025 A 
ATOM      9  C   UNL     1       1.292   2.519  -1.509  0.00  0.00    +0.049 A 
ATOM     10  N   UNL     1       0.164   2.242  -2.292  0.00  0.00    -0.333 N 
ATOM     11  C   UNL     1      -1.009   3.123  -2.182  0.00  0.00    +0.128 C 
ATOM     12  C   UNL     1      -1.275   3.376  -0.687  0.00  0.00    +0.138 C 
ATOM     13  H   UNL     1       0.157   1.485  -2.898  0.00  0.00    +0.147 HD
ENDROOT
BRANCH  12  14
ATOM     14  C   UNL     1      -1.612   2.078   0.000  0.00  0.00    +0.000 A 
ATOM     15  C   UNL     1      -0.774   1.313   0.718  0.00  0.00    +0.089 A 
ATOM     16  N   UNL     1      -1.435   0.212   1.188  0.00  0.00    -0.360 N 
ATOM     17  H   UNL     1      -1.038  -0.486   1.733  0.00  0.00    +0.165 HD
ATOM     18  C   UNL     1      -2.748   0.241   0.775  0.00  0.00    +0.047 A 
ATOM     19  C   UNL     1      -2.918   1.415   0.017  0.00  0.00    +0.005 A 
ATOM     20  C   UNL     1      -4.163   1.708  -0.542  0.00  0.00    +0.010 A 
ATOM     21  C   UNL     1      -5.215   0.859  -0.342  0.00  0.00    +0.001 A 
ATOM     22  C   UNL     1      -5.053  -0.297   0.409  0.00  0.00    +0.002 A 
ATOM     23  C   UNL     1      -3.832  -0.609   0.966  0.00  0.00    +0.026 A 
ENDBRANCH  12  14
BRANCH  11  24
ATOM     24  C   UNL     1      -0.731   4.429  -2.881  0.00  0.00    -0.000 A 
ATOM     25  C   UNL     1       0.477   4.929  -3.187  0.00  0.00    +0.089 A 
ATOM     26  N   UNL     1       0.336   6.134  -3.820  0.00  0.00    -0.360 N 
ATOM     27  H   UNL     1       1.068   6.687  -4.136  0.00  0.00    +0.165 HD
ATOM     28  C   UNL     1      -1.000   6.447  -3.939  0.00  0.00    +0.047 A 
ATOM     29  C   UNL     1      -1.727   5.389  -3.362  0.00  0.00    +0.005 A 
ATOM     30  C   UNL     1      -3.122   5.431  -3.344  0.00  0.00    +0.010 A 
ATOM     31  C   UNL     1      -3.776   6.499  -3.891  0.00  0.00    +0.001 A 
ATOM     32  C   UNL     1      -3.063   7.543  -4.464  0.00  0.00    +0.002 A 
ATOM     33  C   UNL     1      -1.686   7.526  -4.486  0.00  0.00    +0.026 A 
ENDBRANCH  11  24
BRANCH   1  37
ATOM     34  C   UNL     1      -3.878   6.849   1.507  0.00  0.00    +0.000 A 
ATOM     35  C   UNL     1      -2.784   7.628   1.175  0.00  0.00    +0.001 A 
ATOM     36  C   UNL     1      -1.563   7.037   0.922  0.00  0.00    +0.013 A 
ATOM     37  C   UNL     1      -1.433   5.649   1.002  0.00  0.00    +0.037 A 
ATOM     38  C   UNL     1      -2.542   4.869   1.332  0.00  0.00    +0.013 A 
ATOM     39  C   UNL     1      -3.756   5.473   1.588  0.00  0.00    +0.001 A 
ENDBRANCH   1  37
TORSDOF 3
