REMARK  Name = ZINC09452517
REMARK  6 active torsions:
REMARK  status: ('A' for Active; 'I' for Inactive)
REMARK    1  A    between atoms: C_6  and  C_7
REMARK    2  A    between atoms: C_7  and  S_8
REMARK    3  A    between atoms: S_8  and  C_9
REMARK    4  A    between atoms: C_12  and  C_15
REMARK    5  A    between atoms: N_13  and  N_14
REMARK    6  A    between atoms: C_17  and  C_21
REMARK                            x       y       z     vdW  Elec       q    Type
REMARK                         _______ _______ _______ _____ _____    ______ ____
ROOT
ATOM      1  C   UNL     1      -3.370  -1.915  -1.508  0.00  0.00    +0.209 A 
ATOM      2  N   UNL     1      -3.876  -2.382  -0.388  0.00  0.00    -0.120 NA
ATOM      3  N   UNL     1      -4.938  -3.062  -0.632  0.00  0.00    -0.125 NA
ATOM      4  C   UNL     1      -5.176  -3.073  -1.924  0.00  0.00    +0.199 A 
ATOM      5  N   UNL     1      -4.181  -2.333  -2.524  0.00  0.00    -0.223 N 
ENDROOT
BRANCH   4   6
ATOM      6  C   UNL     1      -6.299  -3.744  -2.603  0.00  0.00    +0.105 A 
ATOM      7  C   UNL     1      -7.442  -4.204  -2.012  0.00  0.00    +0.061 A 
ATOM      8  C   UNL     1      -8.244  -4.774  -3.014  0.00  0.00    +0.093 A 
ATOM      9  N   UNL     1      -7.611  -4.663  -4.164  0.00  0.00    -0.173 NA
ATOM     10  N   UNL     1      -6.390  -4.015  -3.938  0.00  0.00    -0.273 N 
ATOM     11  H   UNL     1      -5.726  -3.799  -4.611  0.00  0.00    +0.189 HD
BRANCH   8  12
ATOM     12  C   UNL     1      -9.576  -5.395  -2.813  0.00  0.00    +0.002 A 
ATOM     13  C   UNL     1     -10.139  -5.444  -1.539  0.00  0.00    +0.013 A 
ATOM     14  C   UNL     1     -11.378  -6.022  -1.356  0.00  0.00    +0.039 A 
ATOM     15  C   UNL     1     -12.063  -6.554  -2.437  0.00  0.00    +0.123 A 
ATOM     16  C   UNL     1     -11.507  -6.508  -3.705  0.00  0.00    +0.039 A 
ATOM     17  C   UNL     1     -10.271  -5.926  -3.897  0.00  0.00    +0.013 A 
ATOM     18  F   UNL     1     -13.276  -7.121  -2.253  0.00  0.00    -0.205 F 
ENDBRANCH   8  12
ENDBRANCH   4   6
BRANCH   5  19
ATOM     19  N   UNL     1      -4.034  -2.075  -3.857  0.00  0.00    -0.295 N 
ATOM     20  H   UNL     1      -3.551  -2.829  -4.321  0.00  0.00    +0.163 HD
ATOM     21  H   UNL     1      -4.928  -1.897  -4.291  0.00  0.00    +0.163 HD
ENDBRANCH   5  19
BRANCH   1  22
ATOM     22  S   UNL     1      -1.919  -0.928  -1.667  0.00  0.00    -0.080 S 
BRANCH  22  23
ATOM     23  C   UNL     1      -1.327  -0.739   0.037  0.00  0.00    +0.112 C 
BRANCH  23  29
ATOM     24  C   UNL     1      -0.160   1.471   0.166  0.00  0.00    +0.005 A 
ATOM     25  C   UNL     1       0.990   2.239   0.172  0.00  0.00    +0.015 A 
ATOM     26  C   UNL     1       2.227   1.631   0.054  0.00  0.00    +0.018 A 
ATOM     27  C   UNL     1       2.313   0.256  -0.069  0.00  0.00    +0.015 A 
ATOM     28  C   UNL     1       1.163  -0.510  -0.075  0.00  0.00    +0.005 A 
ATOM     29  C   UNL     1      -0.073   0.097   0.043  0.00  0.00    -0.037 A 
ATOM     30 BR   UNL     1       3.801   2.680   0.061  0.00  0.00    -0.050 Br
ENDBRANCH  23  29
ENDBRANCH  22  23
ENDBRANCH   1  22
TORSDOF 6
