REMARK  Name = ZINC12457102
REMARK  6 active torsions:
REMARK  status: ('A' for Active; 'I' for Inactive)
REMARK    1  A    between atoms: C_1  and  C_2
REMARK    2  A    between atoms: C_2  and  C_4
REMARK    3  A    between atoms: C_2  and  N_53
REMARK    4  A    between atoms: C_4  and  C_5
REMARK    5  A    between atoms: N_16  and  C_19
REMARK    6  A    between atoms: C_19  and  C_20
REMARK                            x       y       z     vdW  Elec       q    Type
REMARK                         _______ _______ _______ _____ _____    ______ ____
ROOT
ATOM      1  C   UNL     1      -0.028   1.090  -0.009  0.00  0.00    -0.069 C 
ATOM      2  C   UNL     1      -0.743   1.577   1.254  0.00  0.00    +0.077 C 
ATOM      3  C   UNL     1      -0.244   2.971   1.578  0.00  0.00    +0.214 C 
ATOM      4  O   UNL     1       0.459   3.154   2.549  0.00  0.00    -0.276 OA
ATOM      5  N   UNL     1      -0.581   3.998   0.791  0.00  0.00    -0.299 N 
ATOM      6  C   UNL     1      -1.438   3.777  -0.385  0.00  0.00    +0.089 C 
ATOM      7  C   UNL     1      -0.634   3.011  -1.438  0.00  0.00    -0.059 C 
ATOM      8  N   UNL     1      -0.766   1.551  -1.216  0.00  0.00    +0.383 N 
ATOM      9  H   UNL     1      -1.762   1.336  -1.085  0.00  0.00    -0.081 HD
ENDROOT
BRANCH   8  11
ATOM     10  C   UNL     1       1.245   0.862  -2.499  0.00  0.00    -0.013 C 
ATOM     11  C   UNL     1      -0.280   0.826  -2.392  0.00  0.00    -0.067 C 
BRANCH  11  12
ATOM     12  C   UNL     1      -0.749  -0.626  -2.273  0.00  0.00    +0.022 C 
BRANCH  12  13
ATOM     13  C   UNL     1      -2.255  -0.671  -2.291  0.00  0.00    -0.014 A 
ATOM     14  C   UNL     1      -2.923  -1.000  -3.455  0.00  0.00    +0.006 A 
ATOM     15  C   UNL     1      -4.305  -1.041  -3.471  0.00  0.00    +0.000 A 
ATOM     16  C   UNL     1      -5.020  -0.754  -2.323  0.00  0.00    +0.003 A 
ATOM     17  C   UNL     1      -4.354  -0.426  -1.158  0.00  0.00    +0.038 A 
ATOM     18  C   UNL     1      -2.970  -0.388  -1.139  0.00  0.00    +0.126 A 
ATOM     19  F   UNL     1      -2.317  -0.072   0.001  0.00  0.00    -0.205 F 
ENDBRANCH  12  13
ENDBRANCH  11  12
ENDBRANCH   8  11
BRANCH   5  20
ATOM     20  C   UNL     1      -0.095   5.345   1.100  0.00  0.00    +0.144 C 
BRANCH  20  21
ATOM     21  C   UNL     1      -1.133   6.080   1.908  0.00  0.00    -0.008 A 
ATOM     22  C   UNL     1      -2.270   5.419   2.336  0.00  0.00    +0.056 A 
ATOM     23  C   UNL     1      -3.225   6.093   3.079  0.00  0.00    +0.167 A 
ATOM     24  C   UNL     1      -3.037   7.436   3.395  0.00  0.00    +0.168 A 
ATOM     25  C   UNL     1      -1.896   8.093   2.964  0.00  0.00    +0.070 A 
ATOM     26  C   UNL     1      -0.943   7.413   2.226  0.00  0.00    +0.049 A 
ATOM     27 CL   UNL     1       0.490   8.235   1.694  0.00  0.00    -0.083 Cl
ATOM     28  O   UNL     1      -4.107   7.866   4.126  0.00  0.00    -0.453 OA
ATOM     29  C   UNL     1      -5.140   6.888   3.908  0.00  0.00    +0.466 C 
ATOM     30  O   UNL     1      -4.412   5.681   3.613  0.00  0.00    -0.453 OA
ENDBRANCH  20  21
ENDBRANCH   5  20
TORSDOF 5
