REMARK  Name = ZINC62163620
REMARK  3 active torsions:
REMARK  status: ('A' for Active; 'I' for Inactive)
REMARK    1  A    between atoms: C_3  and  C_7
REMARK    2  A    between atoms: C_7  and  N_8
REMARK    3  A    between atoms: C_9  and  C_11
REMARK                            x       y       z     vdW  Elec       q    Type
REMARK                         _______ _______ _______ _____ _____    ______ ____
ROOT
ATOM      1  C   UNL     1       5.531   3.272   2.888  0.00  0.00    +0.092 C 
ATOM      2  C   UNL     1       6.973   3.782   2.890  0.00  0.00    +0.016 C 
ATOM      3  C   UNL     1       7.519   3.767   4.320  0.00  0.00    +0.020 C 
ATOM      4  C   UNL     1       6.676   4.699   5.194  0.00  0.00    +0.106 C 
ATOM      5  N   UNL     1       5.265   4.303   5.083  0.00  0.00    -0.313 N 
ATOM      6  C   UNL     1       4.664   4.198   3.746  0.00  0.00    +0.119 C 
ATOM      7  C   UNL     1       4.512   4.034   6.222  0.00  0.00    +0.144 A 
ATOM      8  C   UNL     1       5.018   4.343   7.485  0.00  0.00    +0.049 A 
ATOM      9  C   UNL     1       4.232   4.056   8.587  0.00  0.00    +0.053 A 
ATOM     10  C   UNL     1       2.983   3.475   8.367  0.00  0.00    +0.176 A 
ATOM     11  N   UNL     1       2.585   3.217   7.133  0.00  0.00    -0.128 NA
ATOM     12  N   UNL     1       3.311   3.488   6.110  0.00  0.00    -0.132 NA
ATOM     13  N   UNL     1       2.153   3.167   9.451  0.00  0.00    -0.220 N 
ATOM     14  C   UNL     1       0.922   2.597   9.379  0.00  0.00    +0.116 A 
ATOM     15  C   UNL     1       0.457   2.467  10.643  0.00  0.00    +0.041 A 
ATOM     16  C   UNL     1       1.429   2.970  11.515  0.00  0.00    +0.135 A 
ATOM     17  N   UNL     1       2.446   3.384  10.804  0.00  0.00    -0.173 NA
ENDROOT
BRANCH   1  19
ATOM     18  N   UNL     1       3.746   2.842   1.230  0.00  0.00    -0.311 N 
ATOM     19  C   UNL     1       5.005   3.257   1.476  0.00  0.00    +0.218 C 
ATOM     20  O   UNL     1       5.714   3.617   0.560  0.00  0.00    -0.275 OA
ATOM     21  H   UNL     1       3.179   2.554   1.962  0.00  0.00    +0.149 HD
BRANCH  18  22
ATOM     22  C   UNL     1       3.235   2.828  -0.143  0.00  0.00    +0.141 C 
BRANCH  22  25
ATOM     23  C   UNL     1      -0.534   2.708  -0.018  0.00  0.00    +0.020 A 
ATOM     24  C   UNL     1       0.757   3.214  -0.010  0.00  0.00    +0.008 A 
ATOM     25  C   UNL     1       1.814   2.327  -0.145  0.00  0.00    -0.012 A 
ATOM     26  C   UNL     1       1.547   0.977  -0.281  0.00  0.00    +0.115 A 
ATOM     27  N   UNL     1       0.306   0.531  -0.284  0.00  0.00    -0.263 NA
ATOM     28  C   UNL     1      -0.723   1.346  -0.158  0.00  0.00    +0.111 A 
ENDBRANCH  22  25
ENDBRANCH  18  22
ENDBRANCH   1  19
TORSDOF 3
