REMARK  Name = ZINC39676898
REMARK  7 active torsions:
REMARK  status: ('A' for Active; 'I' for Inactive)
REMARK    1  A    between atoms: C_1  and  C_2
REMARK    2  A    between atoms: C_5  and  C_40
REMARK    3  A    between atoms: C_6  and  C_8
REMARK    4  A    between atoms: C_8  and  C_9
REMARK    5  A    between atoms: C_9  and  N_10
REMARK    6  A    between atoms: C_11  and  C_13
REMARK    7  A    between atoms: C_24  and  C_26
REMARK                            x       y       z     vdW  Elec       q    Type
REMARK                         _______ _______ _______ _____ _____    ______ ____
ROOT
ATOM      1  C   UNL     1       2.736  -4.813   5.928  0.00  0.00    +0.100 C 
ATOM      2  C   UNL     1       2.311  -3.982   7.159  0.00  0.00    +0.121 C 
ATOM      3  N   UNL     1       3.146  -4.501   8.268  0.00  0.00    -0.296 N 
ATOM      4  C   UNL     1       4.474  -4.734   7.651  0.00  0.00    +0.115 C 
ATOM      5  C   UNL     1       4.156  -5.305   6.255  0.00  0.00    -0.004 C 
ATOM      6  C   UNL     1       4.193  -6.830   6.286  0.00  0.00    -0.010 C 
ATOM      7  C   UNL     1       5.627  -7.295   6.557  0.00  0.00    -0.082 C 
ATOM      8  N   UNL     1       6.515  -6.786   5.506  0.00  0.00    +0.379 N 
ATOM      9  C   UNL     1       6.545  -5.319   5.542  0.00  0.00    -0.082 C 
ATOM     10  C   UNL     1       5.151  -4.769   5.229  0.00  0.00    -0.010 C 
ATOM     11  C   UNL     1       2.780  -4.713   9.547  0.00  0.00    +0.247 C 
ATOM     12  O   UNL     1       3.608  -5.062  10.366  0.00  0.00    -0.270 OA
ATOM     13  H   UNL     1       7.447  -7.144   5.652  0.00  0.00    -0.086 HD
ATOM     14  H   UNL     1       6.178  -7.091   4.605  0.00  0.00    -0.086 HD
ENDROOT
BRANCH  11  15
ATOM     15  C   UNL     1       1.373  -4.521   9.955  0.00  0.00    +0.045 A 
ATOM     16  C   UNL     1       0.699  -3.341   9.620  0.00  0.00    +0.014 A 
ATOM     17  C   UNL     1      -0.613  -3.160   9.999  0.00  0.00    +0.001 A 
ATOM     18  C   UNL     1      -1.280  -4.142  10.715  0.00  0.00    +0.012 A 
ATOM     19  C   UNL     1      -0.629  -5.321  11.057  0.00  0.00    +0.031 A 
ATOM     20  C   UNL     1       0.706  -5.522  10.673  0.00  0.00    +0.006 A 
ATOM     21  C   UNL     1       1.146  -6.854  11.158  0.00  0.00    -0.006 A 
ATOM     22  C   UNL     1       2.357  -7.525  11.052  0.00  0.00    +0.009 A 
ATOM     23  C   UNL     1       2.502  -8.787  11.608  0.00  0.00    +0.001 A 
ATOM     24  C   UNL     1       1.447  -9.385  12.270  0.00  0.00    +0.001 A 
ATOM     25  C   UNL     1       0.232  -8.728  12.384  0.00  0.00    +0.012 A 
ATOM     26  C   UNL     1       0.074  -7.463  11.832  0.00  0.00    +0.030 A 
ATOM     27  C   UNL     1      -1.072  -6.524  11.802  0.00  0.00    +0.194 C 
ATOM     28  O   UNL     1      -2.171  -6.710  12.284  0.00  0.00    -0.287 OA
ENDBRANCH  11  15
BRANCH   1  30
ATOM     29  N   UNL     1       2.652  -4.517   3.473  0.00  0.00    -0.315 N 
ATOM     30  C   UNL     1       2.752  -3.950   4.692  0.00  0.00    +0.218 C 
ATOM     31  O   UNL     1       2.853  -2.746   4.794  0.00  0.00    -0.275 OA
ATOM     32  H   UNL     1       2.570  -5.480   3.391  0.00  0.00    +0.149 HD
BRANCH  29  33
ATOM     33  C   UNL     1       2.667  -3.679   2.272  0.00  0.00    +0.109 C 
BRANCH  33  34
ATOM     34  C   UNL     1       2.540  -4.564   1.030  0.00  0.00    +0.054 C 
BRANCH  34  40
ATOM     35  C   UNL     1       0.081  -2.063  -2.540  0.00  0.00    +0.044 C 
ATOM     36  C   UNL     1       1.379  -2.505  -1.914  0.00  0.00    -0.050 A 
ATOM     37  C   UNL     1       2.583  -2.120  -2.473  0.00  0.00    +0.003 A 
ATOM     38  C   UNL     1       3.773  -2.526  -1.899  0.00  0.00    +0.004 A 
ATOM     39  C   UNL     1       3.759  -3.317  -0.765  0.00  0.00    -0.047 A 
ATOM     40  C   UNL     1       2.555  -3.701  -0.205  0.00  0.00    -0.043 A 
ATOM     41  C   UNL     1       1.365  -3.292  -0.777  0.00  0.00    +0.007 A 
ATOM     42  C   UNL     1       5.056  -3.760  -0.139  0.00  0.00    +0.044 C 
ENDBRANCH  34  40
ENDBRANCH  33  34
ENDBRANCH  29  33
ENDBRANCH   1  30
TORSDOF 5
