REMARK  Name = ZINC09135546
REMARK  14 active torsions:
REMARK  status: ('A' for Active; 'I' for Inactive)
REMARK    1  A    between atoms: C_1  and  C_2
REMARK    2  A    between atoms: C_2  and  O_3
REMARK    3  A    between atoms: O_3  and  C_4
REMARK    4  A    between atoms: C_7  and  C_10
REMARK    5  A    between atoms: C_13  and  C_14
REMARK    6  A    between atoms: C_13  and  O_23
REMARK    7  A    between atoms: C_17  and  O_21
REMARK    8  A    between atoms: O_21  and  C_22
REMARK    9  A    between atoms: N_28  and  C_29
REMARK   10  A    between atoms: C_29  and  C_30
REMARK   11  A    between atoms: C_30  and  C_31
REMARK   12  A    between atoms: C_31  and  N_62
REMARK   13  A    between atoms: C_32  and  N_62
REMARK   14  A    between atoms: C_33  and  N_62
REMARK                            x       y       z     vdW  Elec       q    Type
REMARK                         _______ _______ _______ _____ _____    ______ ____
ROOT
ATOM      1  C   UNL     1      -0.715   3.377  -0.329  0.00  0.00    +0.144 C 
ATOM      2  C   UNL     1       0.795   3.448  -0.322  0.00  0.00    +0.071 C 
ATOM      3  C   UNL     1       1.573   4.541   0.011  0.00  0.00    +0.133 C 
ATOM      4  C   UNL     1       1.248   2.182  -0.722  0.00  0.00    +0.249 C 
ATOM      5  O   UNL     1       2.412   1.844  -0.839  0.00  0.00    -0.282 OA
ATOM      6  C   UNL     1       0.060   1.324  -0.978  0.00  0.00    +0.288 C 
ATOM      7  O   UNL     1       0.103   0.166  -1.340  0.00  0.00    -0.266 OA
ATOM      8  N   UNL     1      -1.068   2.020  -0.755  0.00  0.00    -0.284 N 
ENDROOT
BRANCH   3   9
ATOM      9  C   UNL     1       3.034   4.402   0.107  0.00  0.00    +0.019 A 
ATOM     10  C   UNL     1       3.592   3.384   0.889  0.00  0.00    +0.015 A 
ATOM     11  C   UNL     1       4.960   3.255   0.973  0.00  0.00    +0.048 A 
ATOM     12  C   UNL     1       5.787   4.139   0.289  0.00  0.00    +0.138 A 
ATOM     13  C   UNL     1       5.238   5.156  -0.486  0.00  0.00    +0.083 A 
ATOM     14  C   UNL     1       3.870   5.290  -0.579  0.00  0.00    +0.035 A 
ATOM     15 CL   UNL     1       6.277   6.257  -1.335  0.00  0.00    -0.080 Cl
BRANCH  12  16
ATOM     16  O   UNL     1       7.136   4.010   0.379  0.00  0.00    -0.494 OA
ATOM     17  C   UNL     1       7.633   2.945   1.191  0.00  0.00    +0.277 C 
ENDBRANCH  12  16
ENDBRANCH   3   9
BRANCH   1  21
ATOM     18  C   UNL     1      -2.301   6.226  -3.090  0.00  0.00    +0.121 A 
ATOM     19  C   UNL     1      -2.307   6.499  -1.730  0.00  0.00    +0.046 A 
ATOM     20  C   UNL     1      -1.793   5.576  -0.839  0.00  0.00    +0.009 A 
ATOM     21  C   UNL     1      -1.274   4.382  -1.303  0.00  0.00    -0.022 A 
ATOM     22  C   UNL     1      -1.262   4.110  -2.658  0.00  0.00    +0.009 A 
ATOM     23  C   UNL     1      -1.780   5.027  -3.553  0.00  0.00    +0.046 A 
BRANCH  18  24
ATOM     24  O   UNL     1      -2.805   7.133  -3.968  0.00  0.00    -0.492 OA
BRANCH  24  26
ATOM     25  C   UNL     1      -3.373   7.920  -6.182  0.00  0.00    +0.048 C 
ATOM     26  C   UNL     1      -2.767   6.785  -5.354  0.00  0.00    +0.225 C 
ENDBRANCH  24  26
ENDBRANCH  18  24
ENDBRANCH   1  21
BRANCH   3  27
ATOM     27  O   UNL     1       0.991   5.736   0.248  0.00  0.00    -0.506 OA
ATOM     28  H   UNL     1       1.694   6.410   0.473  0.00  0.00    +0.292 HD
ENDBRANCH   3  27
BRANCH   8  29
ATOM     29  C   UNL     1      -2.431   1.504  -0.911  0.00  0.00    +0.107 C 
BRANCH  29  30
ATOM     30  C   UNL     1      -2.900   0.894   0.411  0.00  0.00    +0.000 C 
BRANCH  30  31
ATOM     31  C   UNL     1      -4.322   0.356   0.249  0.00  0.00    -0.078 C 
BRANCH  31  34
ATOM     32  C   UNL     1      -6.207  -0.541   1.475  0.00  0.00    -0.097 C 
ATOM     33  C   UNL     1      -3.984  -1.422   1.857  0.00  0.00    -0.097 C 
ATOM     34  N   UNL     1      -4.769  -0.210   1.539  0.00  0.00    +0.376 N 
ATOM     35  H   UNL     1      -4.620   0.487   2.279  0.00  0.00    -0.083 HD
ENDBRANCH  31  34
ENDBRANCH  30  31
ENDBRANCH  29  30
ENDBRANCH   8  29
TORSDOF 10
