REMARK  Name = ZINC20419204
REMARK  5 active torsions:
REMARK  status: ('A' for Active; 'I' for Inactive)
REMARK    1  A    between atoms: C_1  and  C_2
REMARK    2  A    between atoms: C_7  and  N_8
REMARK    3  A    between atoms: N_18  and  C_21
REMARK    4  A    between atoms: C_21  and  C_22
REMARK    5  A    between atoms: C_22  and  C_23
REMARK                            x       y       z     vdW  Elec       q    Type
REMARK                         _______ _______ _______ _____ _____    ______ ____
ROOT
ATOM      1  N   UNL     1       2.404   1.106  -0.015  0.00  0.00    -0.277 N 
ATOM      2  C   UNL     1       3.015   0.772   1.177  0.00  0.00    +0.116 A 
ATOM      3  C   UNL     1       4.197   0.096   1.147  0.00  0.00    +0.069 A 
ATOM      4  C   UNL     1       4.772  -0.227  -0.095  0.00  0.00    +0.258 A 
ATOM      5  O   UNL     1       5.832  -0.828  -0.141  0.00  0.00    -0.267 OA
ATOM      6  N   UNL     1       4.147   0.130  -1.234  0.00  0.00    -0.302 N 
ATOM      7  H   UNL     1       4.596  -0.115  -2.208  0.00  0.00    +0.171 HD
ATOM      8  C   UNL     1       2.974   0.788  -1.189  0.00  0.00    +0.166 A 
ATOM      9  S   UNL     1       2.197   1.225  -2.650  0.00  0.00    -0.012 S 
ATOM     10  C   UNL     1       4.907  -0.317   2.410  0.00  0.00    +0.130 C 
ATOM     11  N   UNL     1       4.336   0.411   3.553  0.00  0.00    -0.282 NA
ATOM     12  C   UNL     1       2.866   0.346   3.495  0.00  0.00    +0.190 C 
ATOM     13  N   UNL     1       2.402   1.130   2.347  0.00  0.00    -0.317 N 
ATOM     14  H   UNL     1       1.639   1.910   2.486  0.00  0.00    +0.149 HD
ENDROOT
BRANCH   1  21
ATOM     15  C   UNL     1       2.449   3.951   0.000  0.00  0.00    +0.046 C 
ATOM     16  C   UNL     1       1.157   3.175   0.008  0.00  0.00    -0.027 A 
ATOM     17  C   UNL     1      -0.051   3.845   0.023  0.00  0.00    +0.005 A 
ATOM     18  C   UNL     1      -1.237   3.134   0.030  0.00  0.00    +0.000 A 
ATOM     19  C   UNL     1      -1.217   1.751   0.017  0.00  0.00    +0.002 A 
ATOM     20  C   UNL     1      -0.013   1.076   0.008  0.00  0.00    +0.026 A 
ATOM     21  C   UNL     1       1.180   1.787   0.000  0.00  0.00    +0.053 A 
ENDBRANCH   1  21
BRANCH  11  22
ATOM     22  C   UNL     1       4.838  -0.128   4.824  0.00  0.00    +0.091 C 
BRANCH  22  23
ATOM     23  C   UNL     1       4.427   0.800   5.969  0.00  0.00    +0.050 C 
BRANCH  23  24
ATOM     24  C   UNL     1       4.941   0.247   7.273  0.00  0.00    -0.046 A 
ATOM     25  C   UNL     1       4.160  -0.622   8.011  0.00  0.00    +0.003 A 
ATOM     26  C   UNL     1       4.633  -1.133   9.205  0.00  0.00    +0.000 A 
ATOM     27  C   UNL     1       5.885  -0.767   9.665  0.00  0.00    +0.000 A 
ATOM     28  C   UNL     1       6.664   0.106   8.930  0.00  0.00    +0.000 A 
ATOM     29  C   UNL     1       6.192   0.613   7.733  0.00  0.00    +0.003 A 
ENDBRANCH  23  24
ENDBRANCH  22  23
ENDBRANCH  11  22
TORSDOF 4
