REMARK  Name = ZINC14643140
REMARK  13 active torsions:
REMARK  status: ('A' for Active; 'I' for Inactive)
REMARK    1  A    between atoms: C_1  and  C_2
REMARK    2  A    between atoms: C_5  and  C_32
REMARK    3  A    between atoms: C_6  and  N_8
REMARK    4  A    between atoms: C_9  and  C_11
REMARK    5  A    between atoms: C_11  and  C_12
REMARK    6  A    between atoms: C_12  and  C_13
REMARK    7  A    between atoms: N_15  and  N_16
REMARK    8  A    between atoms: C_17  and  C_19
REMARK    9  A    between atoms: C_19  and  C_21
REMARK   10  A    between atoms: C_19  and  O_22
REMARK   11  A    between atoms: O_22  and  C_23
REMARK   12  A    between atoms: C_24  and  C_31
REMARK   13  A    between atoms: C_28  and  C_29
REMARK                            x       y       z     vdW  Elec       q    Type
REMARK                         _______ _______ _______ _____ _____    ______ ____
ROOT
ATOM      1  C   UNL     1      -1.119  -4.827   3.467  0.00  0.00    +0.230 C 
ATOM      2  O   UNL     1      -0.778  -4.341   4.525  0.00  0.00    -0.274 OA
ATOM      3  N   UNL     1      -1.087  -4.083   2.343  0.00  0.00    -0.234 N 
ATOM      4  H   UNL     1      -1.360  -4.471   1.497  0.00  0.00    +0.173 HD
ENDROOT
BRANCH   3   5
ATOM      5  N   UNL     1      -0.661  -2.750   2.397  0.00  0.00    -0.231 N 
ATOM      6  C   UNL     1      -0.629  -2.006   1.274  0.00  0.00    +0.270 C 
ATOM      7  O   UNL     1      -0.970  -2.492   0.216  0.00  0.00    -0.270 OA
ATOM      8  H   UNL     1      -0.388  -2.362   3.244  0.00  0.00    +0.173 HD
BRANCH   6   9
ATOM      9  C   UNL     1      -0.170  -0.572   1.332  0.00  0.00    +0.257 C 
ATOM     10  C   UNL     1       1.306  -0.524   1.732  0.00  0.00    +0.062 C 
BRANCH   9  11
ATOM     11  O   UNL     1      -0.335   0.033   0.048  0.00  0.00    -0.479 OA
BRANCH  11  12
ATOM     12  C   UNL     1      -0.527   1.378   0.020  0.00  0.00    +0.127 A 
ATOM     13  C   UNL     1      -1.795   1.903   0.227  0.00  0.00    -0.007 A 
ATOM     14  C   UNL     1      -1.987   3.271   0.203  0.00  0.00    +0.022 A 
ATOM     15  C   UNL     1      -0.919   4.117  -0.037  0.00  0.00    +0.019 A 
ATOM     16  C   UNL     1       0.345   3.595  -0.248  0.00  0.00    +0.022 A 
ATOM     17  C   UNL     1       0.542   2.228  -0.220  0.00  0.00    -0.007 A 
ATOM     18  C   UNL     1       1.919   1.660  -0.451  0.00  0.00    +0.047 C 
ATOM     19 BR   UNL     1      -1.186   5.988  -0.076  0.00  0.00    -0.050 Br
ATOM     20  C   UNL     1      -2.960   0.983   0.482  0.00  0.00    +0.047 C 
ENDBRANCH  11  12
ENDBRANCH   9  11
ENDBRANCH   6   9
ENDBRANCH   3   5
BRANCH   1  21
ATOM     21  C   UNL     1      -1.578  -6.261   3.409  0.00  0.00    +0.106 C 
BRANCH  21  22
ATOM     22  C   UNL     1      -1.518  -6.873   4.810  0.00  0.00    +0.105 C 
BRANCH  22  24
ATOM     23  N   UNL     1      -2.009  -9.050   5.875  0.00  0.00    -0.285 N 
ATOM     24  C   UNL     1      -1.977  -8.307   4.752  0.00  0.00    +0.218 C 
ATOM     25  O   UNL     1      -2.318  -8.792   3.694  0.00  0.00    -0.275 OA
ATOM     26  H   UNL     1      -1.654  -8.693   6.704  0.00  0.00    +0.155 HD
BRANCH  23  32
ATOM     27  C   UNL     1      -4.926 -12.364   3.712  0.00  0.00    +0.044 C 
ATOM     28  C   UNL     1      -3.971 -11.972   4.809  0.00  0.00    -0.049 A 
ATOM     29  C   UNL     1      -3.632 -12.886   5.790  0.00  0.00    +0.004 A 
ATOM     30  C   UNL     1      -2.756 -12.530   6.799  0.00  0.00    +0.005 A 
ATOM     31  C   UNL     1      -2.217 -11.259   6.830  0.00  0.00    -0.029 A 
ATOM     32  C   UNL     1      -2.554 -10.339   5.847  0.00  0.00    +0.037 A 
ATOM     33  C   UNL     1      -3.438 -10.698   4.838  0.00  0.00    +0.027 A 
ATOM     34  C   UNL     1      -1.262 -10.872   7.930  0.00  0.00    +0.045 C 
ENDBRANCH  23  32
ENDBRANCH  22  24
ENDBRANCH  21  22
ENDBRANCH   1  21
TORSDOF 8
