REMARK  Name = ZINC67565389
REMARK  6 active torsions:
REMARK  status: ('A' for Active; 'I' for Inactive)
REMARK    1  A    between atoms: C_3  and  N_13
REMARK    2  A    between atoms: C_5  and  S_7
REMARK    3  A    between atoms: S_7  and  C_10
REMARK    4  A    between atoms: C_14  and  C_16
REMARK    5  A    between atoms: N_18  and  C_19
REMARK    6  A    between atoms: C_19  and  C_20
REMARK                            x       y       z     vdW  Elec       q    Type
REMARK                         _______ _______ _______ _____ _____    ______ ____
ROOT
ATOM      1  N   UNL     1       3.583   2.122  -0.021  0.00  0.00    -0.278 N 
ATOM      2  C   UNL     1       3.567   3.466  -0.116  0.00  0.00    +0.303 C 
ATOM      3  O   UNL     1       2.511   4.064  -0.103  0.00  0.00    -0.265 OA
ATOM      4  H   UNL     1       4.427   1.650   0.045  0.00  0.00    +0.155 HD
ENDROOT
BRANCH   1   7
ATOM      5  C   UNL     1       0.112   1.159  -0.753  0.00  0.00    +0.004 A 
ATOM      6  C   UNL     1       1.298   1.867  -0.757  0.00  0.00    +0.023 A 
ATOM      7  C   UNL     1       2.381   1.408  -0.019  0.00  0.00    +0.036 A 
ATOM      8  C   UNL     1       2.268   0.238   0.721  0.00  0.00    +0.050 A 
ATOM      9  C   UNL     1       1.080  -0.465   0.721  0.00  0.00    +0.096 A 
ATOM     10  C   UNL     1       0.003  -0.006  -0.015  0.00  0.00    +0.027 A 
BRANCH   9  11
ATOM     11  S   UNL     1       0.936  -1.950   1.659  0.00  0.00    +0.058 S 
ATOM     12  O   UNL     1      -0.073  -2.700   0.997  0.00  0.00    -0.164 OA
ATOM     13  O   UNL     1       2.263  -2.448   1.756  0.00  0.00    -0.164 OA
BRANCH  11  14
ATOM     14  C   UNL     1       0.348  -1.415   3.290  0.00  0.00    +0.485 C 
ATOM     15  F   UNL     1       1.277  -0.535   3.854  0.00  0.00    -0.183 F 
ATOM     16  F   UNL     1      -0.884  -0.768   3.152  0.00  0.00    -0.183 F 
ENDBRANCH  11  14
ENDBRANCH   9  11
ENDBRANCH   1   7
BRANCH   2  17
ATOM     17  C   UNL     1       4.851   4.221  -0.237  0.00  0.00    +0.299 C 
ATOM     18  O   UNL     1       5.907   3.624  -0.250  0.00  0.00    -0.265 OA
ATOM     19  N   UNL     1       4.835   5.566  -0.332  0.00  0.00    -0.307 N 
ATOM     20  H   UNL     1       3.991   6.043  -0.322  0.00  0.00    +0.149 HD
BRANCH  19  21
ATOM     21  C   UNL     1       6.094   6.306  -0.451  0.00  0.00    +0.108 C 
BRANCH  21  22
ATOM     22  C   UNL     1       5.798   7.804  -0.542  0.00  0.00    +0.010 C 
ATOM     23  C   UNL     1       5.092   8.134  -1.877  0.00  0.00    +0.009 C 
ATOM     24  C   UNL     1       6.061   9.117  -2.603  0.00  0.00    -0.010 C 
ATOM     25  C   UNL     1       5.956  10.441  -1.786  0.00  0.00    +0.004 C 
ATOM     26  C   UNL     1       6.652  10.128  -0.442  0.00  0.00    +0.004 C 
ATOM     27  C   UNL     1       7.126   8.619  -0.583  0.00  0.00    -0.006 C 
ATOM     28  C   UNL     1       7.449   8.564  -2.122  0.00  0.00    +0.007 C 
ENDBRANCH  21  22
ENDBRANCH  19  21
ENDBRANCH   2  17
TORSDOF 6
