REMARK  Name = ZINC09375413
REMARK  9 active torsions:
REMARK  status: ('A' for Active; 'I' for Inactive)
REMARK    1  A    between atoms: C_1  and  C_2
REMARK    2  A    between atoms: C_3  and  C_28
REMARK    3  A    between atoms: C_4  and  C_23
REMARK    4  A    between atoms: C_6  and  C_21
REMARK    5  A    between atoms: C_7  and  S_9
REMARK    6  A    between atoms: S_9  and  C_10
REMARK    7  A    between atoms: C_10  and  C_11
REMARK    8  A    between atoms: N_13  and  C_14
REMARK    9  A    between atoms: N_30  and  C_31
REMARK                            x       y       z     vdW  Elec       q    Type
REMARK                         _______ _______ _______ _____ _____    ______ ____
ROOT
ATOM      1  C   UNL     1       3.347   2.691   0.586  0.00  0.00    +0.061 C 
ATOM      2  C   UNL     1       3.452   1.348  -0.089  0.00  0.00    +0.015 C 
ATOM      3  C   UNL     1       2.332   0.701  -0.451  0.00  0.00    +0.047 C 
ATOM      4  C   UNL     1       2.378  -0.641  -1.124  0.00  0.00    +0.134 C 
ATOM      5  C   UNL     1       3.754  -0.926  -1.654  0.00  0.00    +0.072 C 
ATOM      6  C   UNL     1       4.833  -0.210  -1.238  0.00  0.00    +0.080 C 
ATOM      7  N   UNL     1       4.686   0.805  -0.320  0.00  0.00    -0.312 N 
ATOM      8  H   UNL     1       5.563   1.179   0.229  0.00  0.00    +0.152 HD
ENDROOT
BRANCH   4   9
ATOM      9  C   UNL     1       1.394  -0.657  -2.265  0.00  0.00    +0.118 A 
ATOM     10  C   UNL     1       0.391  -1.539  -2.427  0.00  0.00    +0.045 A 
ATOM     11  C   UNL     1      -0.277  -1.186  -3.622  0.00  0.00    +0.041 A 
ATOM     12  C   UNL     1       0.358  -0.109  -4.119  0.00  0.00    +0.195 A 
ATOM     13  O   UNL     1       1.365   0.211  -3.290  0.00  0.00    -0.467 OA
ENDBRANCH   4   9
BRANCH   3  14
ATOM     14  C   UNL     1       1.076   1.302  -0.197  0.00  0.00    +0.247 C 
ATOM     15  O   UNL     1       0.382   0.900   0.719  0.00  0.00    -0.270 OA
ATOM     16  N   UNL     1       0.648   2.321  -0.970  0.00  0.00    -0.282 N 
ATOM     17  H   UNL     1       1.323   2.769  -1.713  0.00  0.00    +0.155 HD
BRANCH  16  18
ATOM     18  C   UNL     1      -0.657   2.807  -0.826  0.00  0.00    +0.034 A 
ATOM     19  C   UNL     1      -1.337   2.632   0.372  0.00  0.00    +0.026 A 
ATOM     20  C   UNL     1      -2.622   3.117   0.513  0.00  0.00    +0.040 A 
ATOM     21  C   UNL     1      -3.237   3.769  -0.543  0.00  0.00    +0.124 A 
ATOM     22  C   UNL     1      -2.563   3.939  -1.741  0.00  0.00    +0.040 A 
ATOM     23  C   UNL     1      -1.276   3.460  -1.884  0.00  0.00    +0.026 A 
ATOM     24  F   UNL     1      -4.496   4.239  -0.405  0.00  0.00    -0.205 F 
ENDBRANCH  16  18
ENDBRANCH   3  14
BRANCH   5  25
ATOM     25  C   UNL     1       3.933  -1.971  -2.617  0.00  0.00    +0.098 C 
ATOM     26  N   UNL     1       4.075  -2.800  -3.380  0.00  0.00    -0.191 NA
ENDBRANCH   5  25
BRANCH   6  27
ATOM     27  S   UNL     1       6.431  -0.586  -1.878  0.00  0.00    -0.100 S 
BRANCH  27  28
ATOM     28  C   UNL     1       7.421   0.645  -0.994  0.00  0.00    +0.171 C 
BRANCH  28  29
ATOM     29  C   UNL     1       8.867   0.509  -1.395  0.00  0.00    +0.227 C 
ATOM     30  O   UNL     1       9.197  -0.337  -2.200  0.00  0.00    -0.275 OA
ATOM     31  N   UNL     1       9.795   1.327  -0.859  0.00  0.00    -0.285 N 
ATOM     32  H   UNL     1       9.521   2.006  -0.039  0.00  0.00    +0.155 HD
BRANCH  31  33
ATOM     33  C   UNL     1      11.107   1.311  -1.347  0.00  0.00    +0.034 A 
ATOM     34  C   UNL     1      12.168   1.605  -0.500  0.00  0.00    +0.026 A 
ATOM     35  C   UNL     1      13.462   1.584  -0.982  0.00  0.00    +0.040 A 
ATOM     36  C   UNL     1      13.702   1.280  -2.312  0.00  0.00    +0.124 A 
ATOM     37  C   UNL     1      12.645   0.992  -3.159  0.00  0.00    +0.040 A 
ATOM     38  C   UNL     1      11.350   1.007  -2.680  0.00  0.00    +0.026 A 
ATOM     39  F   UNL     1      14.968   1.265  -2.782  0.00  0.00    -0.205 F 
ENDBRANCH  31  33
ENDBRANCH  28  29
ENDBRANCH  27  28
ENDBRANCH   6  27
TORSDOF 8
