REMARK  Name = ZINC48770234
REMARK  6 active torsions:
REMARK  status: ('A' for Active; 'I' for Inactive)
REMARK    1  A    between atoms: C_1  and  C_2
REMARK    2  A    between atoms: C_2  and  N_3
REMARK    3  A    between atoms: N_3  and  C_4
REMARK    4  A    between atoms: C_9  and  C_11
REMARK    5  A    between atoms: C_11  and  C_12
REMARK    6  A    between atoms: C_15  and  N_19
REMARK                            x       y       z     vdW  Elec       q    Type
REMARK                         _______ _______ _______ _____ _____    ______ ____
ROOT
ATOM      1  C   UNL     1       0.237  -2.850  -3.524  0.00  0.00    +0.038 C 
ENDROOT
BRANCH   1   2
ATOM      2  C   UNL     1       0.855  -3.111  -4.874  0.00  0.00    -0.033 A 
ATOM      3  C   UNL     1       1.000  -4.409  -5.328  0.00  0.00    +0.007 A 
ATOM      4  C   UNL     1       1.566  -4.649  -6.566  0.00  0.00    +0.033 A 
ATOM      5  C   UNL     1       1.987  -3.591  -7.351  0.00  0.00    +0.127 A 
ATOM      6  C   UNL     1       1.843  -2.294  -6.898  0.00  0.00    +0.048 A 
ATOM      7  C   UNL     1       1.272  -2.053  -5.661  0.00  0.00    +0.023 A 
ATOM      8 BR   UNL     1       1.067  -0.277  -5.043  0.00  0.00    -0.050 Br
BRANCH   5   9
ATOM      9  N   UNL     1       2.593  -3.849  -8.676  0.00  0.00    +0.056 N 
ATOM     10  O   UNL     1       2.720  -4.984  -9.073  0.00  0.00    -0.126 OA
ATOM     11  O   UNL     1       2.962  -2.924  -9.362  0.00  0.00    -0.126 OA
ENDBRANCH   5   9
ENDBRANCH   1   2
BRANCH   1  16
ATOM     12  C   UNL     1       0.745  -2.280  -1.118  0.00  0.00    -0.068 C 
ATOM     13  C   UNL     1       1.562  -3.015  -0.041  0.00  0.00    -0.015 C 
ATOM     14  C   UNL     1       2.631  -3.841  -0.787  0.00  0.00    -0.001 C 
ATOM     15  C   UNL     1       2.035  -4.043  -2.202  0.00  0.00    +0.002 C 
ATOM     16  C   UNL     1       1.344  -2.685  -2.481  0.00  0.00    -0.021 C 
BRANCH  12  17
ATOM     17  N   UNL     1       0.857  -0.827  -0.930  0.00  0.00    +0.381 N 
ATOM     18  H   UNL     1       0.417  -0.353  -1.705  0.00  0.00    -0.086 HD
ATOM     19  H   UNL     1       1.831  -0.568  -0.887  0.00  0.00    -0.086 HD
BRANCH  17  21
ATOM     20  C   UNL     1       0.309   1.071   0.517  0.00  0.00    -0.017 C 
ATOM     21  C   UNL     1       0.192  -0.442   0.322  0.00  0.00    -0.086 C 
ENDBRANCH  17  21
ENDBRANCH  12  17
ENDBRANCH   1  16
TORSDOF 5
