REMARK  Name = ZINC41539053
REMARK  8 active torsions:
REMARK  status: ('A' for Active; 'I' for Inactive)
REMARK    1  A    between atoms: C_1  and  C_2
REMARK    2  A    between atoms: C_3  and  C_9
REMARK    3  A    between atoms: C_4  and  C_8
REMARK    4  A    between atoms: N_5  and  C_7
REMARK    5  A    between atoms: C_9  and  C_11
REMARK    6  A    between atoms: N_15  and  C_27
REMARK    7  A    between atoms: C_16  and  C_18
REMARK    8  A    between atoms: C_21  and  N_24
REMARK                            x       y       z     vdW  Elec       q    Type
REMARK                         _______ _______ _______ _____ _____    ______ ____
ROOT
ATOM      1  C   UNL     1      -0.140   1.249  -2.864  0.00  0.00    +0.076 C 
ATOM      2  C   UNL     1      -0.326   1.925  -4.021  0.00  0.00    +0.249 C 
ATOM      3  C   UNL     1      -0.080   3.364  -3.788  0.00  0.00    +0.287 C 
ATOM      4  O   UNL     1      -0.167   4.232  -4.633  0.00  0.00    -0.266 OA
ATOM      5  N   UNL     1       0.255   3.570  -2.501  0.00  0.00    -0.287 N 
ATOM      6  C   UNL     1       0.239   2.271  -1.818  0.00  0.00    +0.144 C 
ATOM      7  C   UNL     1       0.573   4.862  -1.889  0.00  0.00    +0.133 C 
ATOM      8  O   UNL     1      -0.682   1.372  -5.204  0.00  0.00    -0.282 OA
ENDROOT
BRANCH   6   9
ATOM      9  C   UNL     1      -0.780   2.278  -0.707  0.00  0.00    -0.022 A 
ATOM     10  C   UNL     1      -2.023   2.846  -0.914  0.00  0.00    +0.008 A 
ATOM     11  C   UNL     1      -2.958   2.853   0.104  0.00  0.00    +0.033 A 
ATOM     12  C   UNL     1      -2.649   2.291   1.329  0.00  0.00    +0.126 A 
ATOM     13  C   UNL     1      -1.406   1.723   1.536  0.00  0.00    +0.033 A 
ATOM     14  C   UNL     1      -0.473   1.712   0.516  0.00  0.00    +0.008 A 
BRANCH  12  15
ATOM     15  N   UNL     1      -3.649   2.300   2.420  0.00  0.00    +0.056 N 
ATOM     16  O   UNL     1      -4.736   2.797   2.240  0.00  0.00    -0.126 OA
ATOM     17  O   UNL     1      -3.379   1.809   3.492  0.00  0.00    -0.126 OA
ENDBRANCH  12  15
ENDBRANCH   6   9
BRANCH   1  18
ATOM     18  C   UNL     1      -0.285  -0.197  -2.663  0.00  0.00    +0.199 C 
ATOM     19  O   UNL     1      -1.272  -0.638  -2.104  0.00  0.00    -0.287 OA
BRANCH  18  22
ATOM     20  C   UNL     1       2.493   0.657  -3.941  0.00  0.00    +0.068 C 
ATOM     21  C   UNL     1       2.006  -0.750  -3.708  0.00  0.00    +0.071 A 
ATOM     22  C   UNL     1       0.766  -1.116  -3.138  0.00  0.00    +0.065 A 
ATOM     23  C   UNL     1       0.723  -2.497  -3.108  0.00  0.00    +0.047 A 
ATOM     24  N   UNL     1       1.875  -2.946  -3.632  0.00  0.00    -0.271 N 
ATOM     25  N   UNL     1       2.654  -1.844  -4.003  0.00  0.00    -0.176 NA
ATOM     26  C   UNL     1       2.251  -4.353  -3.795  0.00  0.00    +0.172 C 
ATOM     27  C   UNL     1      -0.408  -3.344  -2.584  0.00  0.00    +0.066 C 
ENDBRANCH  18  22
ENDBRANCH   1  18
TORSDOF 4
