REMARK  Name = ZINC54442248
REMARK  9 active torsions:
REMARK  status: ('A' for Active; 'I' for Inactive)
REMARK    1  A    between atoms: C_1  and  C_2
REMARK    2  A    between atoms: C_2  and  O_3
REMARK    3  A    between atoms: O_3  and  C_4
REMARK    4  A    between atoms: C_7  and  C_10
REMARK    5  A    between atoms: N_15  and  C_16
REMARK    6  A    between atoms: C_16  and  N_17
REMARK    7  A    between atoms: C_23  and  C_29
REMARK    8  A    between atoms: C_24  and  C_28
REMARK    9  A    between atoms: C_25  and  C_27
REMARK                            x       y       z     vdW  Elec       q    Type
REMARK                         _______ _______ _______ _____ _____    ______ ____
ROOT
ATOM      1  C   UNL     1      -2.485  -5.841  -0.342  0.00  0.00    -0.035 C 
ATOM      2  C   UNL     1      -3.058  -6.207  -1.727  0.00  0.00    -0.012 C 
ATOM      3  C   UNL     1      -4.164  -7.240  -1.386  0.00  0.00    -0.020 C 
ATOM      4  C   UNL     1      -4.711  -6.682  -0.049  0.00  0.00    -0.075 C 
ATOM      5  N   UNL     1      -3.519  -6.160   0.660  0.00  0.00    +0.397 N 
ATOM      6  H   UNL     1      -3.765  -5.327   1.172  0.00  0.00    -0.078 HD
ENDROOT
BRANCH   1  10
ATOM      7  C   UNL     1      -1.569  -1.669  -0.205  0.00  0.00    +0.121 A 
ATOM      8  C   UNL     1      -0.554  -2.598  -0.386  0.00  0.00    +0.046 A 
ATOM      9  C   UNL     1      -0.853  -3.946  -0.430  0.00  0.00    +0.005 A 
ATOM     10  C   UNL     1      -2.162  -4.370  -0.294  0.00  0.00    -0.061 A 
ATOM     11  C   UNL     1      -3.175  -3.446  -0.114  0.00  0.00    +0.005 A 
ATOM     12  C   UNL     1      -2.881  -2.097  -0.063  0.00  0.00    +0.046 A 
BRANCH   7  13
ATOM     13  O   UNL     1      -1.277  -0.342  -0.162  0.00  0.00    -0.492 OA
BRANCH  13  15
ATOM     14  C   UNL     1       0.226   1.548  -0.239  0.00  0.00    +0.048 C 
ATOM     15  C   UNL     1       0.095   0.026  -0.315  0.00  0.00    +0.225 C 
ENDBRANCH  13  15
ENDBRANCH   7  13
ENDBRANCH   1  10
BRANCH   5  16
ATOM     16  C   UNL     1      -3.009  -7.177   1.589  0.00  0.00    +0.071 C 
BRANCH  16  17
ATOM     17  N   UNL     1      -3.987  -7.397   2.658  0.00  0.00    -0.271 N 
ATOM     18  C   UNL     1      -4.798  -8.465   2.800  0.00  0.00    +0.197 A 
ATOM     19  S   UNL     1      -4.861  -9.814   1.748  0.00  0.00    -0.010 S 
ATOM     20  N   UNL     1      -5.542  -8.299   3.892  0.00  0.00    -0.185 NA
ATOM     21  C   UNL     1      -5.237  -7.139   4.476  0.00  0.00    +0.253 A 
ATOM     22  N   UNL     1      -4.257  -6.540   3.734  0.00  0.00    -0.222 N 
ATOM     23  C   UNL     1      -3.753  -5.344   4.106  0.00  0.00    +0.046 A 
ATOM     24  C   UNL     1      -4.231  -4.744   5.230  0.00  0.00    -0.008 A 
ATOM     25  C   UNL     1      -5.231  -5.380   5.970  0.00  0.00    +0.047 A 
ATOM     26  N   UNL     1      -5.707  -6.544   5.576  0.00  0.00    -0.216 NA
ATOM     27  C   UNL     1      -5.772  -4.731   7.218  0.00  0.00    +0.066 C 
ATOM     28  C   UNL     1      -3.689  -3.409   5.671  0.00  0.00    +0.047 C 
ATOM     29  C   UNL     1      -2.675  -4.683   3.286  0.00  0.00    +0.066 C 
ENDBRANCH  16  17
ENDBRANCH   5  16
TORSDOF 5
