REMARK  Name = ZINC09522301
REMARK  8 active torsions:
REMARK  status: ('A' for Active; 'I' for Inactive)
REMARK    1  A    between atoms: C_1  and  C_2
REMARK    2  A    between atoms: C_7  and  N_8
REMARK    3  A    between atoms: C_13  and  O_31
REMARK    4  A    between atoms: C_15  and  S_17
REMARK    5  A    between atoms: S_17  and  C_18
REMARK    6  A    between atoms: C_18  and  C_19
REMARK    7  A    between atoms: C_23  and  C_30
REMARK    8  A    between atoms: C_26  and  C_29
REMARK                            x       y       z     vdW  Elec       q    Type
REMARK                         _______ _______ _______ _____ _____    ______ ____
ROOT
ATOM      1  N   UNL     1       1.544   3.456  -0.222  0.00  0.00    -0.214 N 
ATOM      2  C   UNL     1       0.547   4.388  -0.279  0.00  0.00    +0.171 A 
ATOM      3  C   UNL     1       1.178   5.644  -0.384  0.00  0.00    +0.100 A 
ATOM      4  C   UNL     1       2.571   5.408  -0.385  0.00  0.00    +0.150 A 
ATOM      5  N   UNL     1       2.773   4.125  -0.285  0.00  0.00    -0.172 NA
ATOM      6  C   UNL     1       0.372   6.795  -0.461  0.00  0.00    +0.227 A 
ATOM      7  N   UNL     1      -0.945   6.648  -0.431  0.00  0.00    -0.187 NA
ATOM      8  C   UNL     1      -1.500   5.445  -0.332  0.00  0.00    +0.194 A 
ATOM      9  N   UNL     1      -0.782   4.336  -0.257  0.00  0.00    -0.202 NA
ENDROOT
BRANCH   1  16
ATOM     10  C   UNL     1       3.084   2.052   1.717  0.00  0.00    +0.046 C 
ATOM     11  C   UNL     1       2.099   1.348   0.820  0.00  0.00    -0.025 A 
ATOM     12  C   UNL     1       1.923  -0.018   0.924  0.00  0.00    +0.005 A 
ATOM     13  C   UNL     1       1.020  -0.666   0.102  0.00  0.00    +0.000 A 
ATOM     14  C   UNL     1       0.290   0.052  -0.829  0.00  0.00    +0.002 A 
ATOM     15  C   UNL     1       0.461   1.418  -0.938  0.00  0.00    +0.028 A 
ATOM     16  C   UNL     1       1.368   2.071  -0.113  0.00  0.00    +0.071 A 
ENDBRANCH   1  16
BRANCH   6  17
ATOM     17  O   UNL     1       0.929   8.024  -0.562  0.00  0.00    -0.492 OA
ATOM     18  H   UNL     1       1.103   8.449   0.289  0.00  0.00    +0.294 HD
ENDBRANCH   6  17
BRANCH   8  19
ATOM     19  S   UNL     1      -3.258   5.322  -0.299  0.00  0.00    -0.077 S 
BRANCH  19  20
ATOM     20  C   UNL     1      -3.698   7.073  -0.427  0.00  0.00    +0.173 C 
BRANCH  20  21
ATOM     21  C   UNL     1      -5.198   7.215  -0.418  0.00  0.00    +0.226 C 
ATOM     22  O   UNL     1      -5.901   6.230  -0.333  0.00  0.00    -0.275 OA
ATOM     23  N   UNL     1      -5.760   8.438  -0.504  0.00  0.00    -0.296 N 
ATOM     24  C   UNL     1      -4.928   9.648  -0.601  0.00  0.00    +0.139 C 
ATOM     25  C   UNL     1      -5.433  10.482  -1.789  0.00  0.00    +0.133 C 
ATOM     26  O   UNL     1      -6.840  10.689  -1.653  0.00  0.00    -0.371 OA
ATOM     27  C   UNL     1      -7.615   9.487  -1.685  0.00  0.00    +0.133 C 
ATOM     28  C   UNL     1      -7.222   8.602  -0.497  0.00  0.00    +0.139 C 
ATOM     29  C   UNL     1      -9.102   9.835  -1.594  0.00  0.00    +0.039 C 
ATOM     30  C   UNL     1      -5.149   9.739  -3.097  0.00  0.00    +0.039 C 
ENDBRANCH  20  21
ENDBRANCH  19  20
ENDBRANCH   8  19
TORSDOF 5
