REMARK  Name = ZINC08569249
REMARK  11 active torsions:
REMARK  status: ('A' for Active; 'I' for Inactive)
REMARK    1  A    between atoms: C_1  and  C_2
REMARK    2  A    between atoms: C_2  and  O_3
REMARK    3  A    between atoms: O_3  and  C_4
REMARK    4  A    between atoms: C_6  and  C_18
REMARK    5  A    between atoms: C_9  and  O_10
REMARK    6  A    between atoms: O_10  and  C_11
REMARK    7  A    between atoms: C_11  and  C_13
REMARK    8  A    between atoms: C_21  and  C_32
REMARK    9  A    between atoms: C_27  and  N_31
REMARK   10  A    between atoms: C_28  and  C_29
REMARK   11  A    between atoms: C_35  and  C_38
REMARK                            x       y       z     vdW  Elec       q    Type
REMARK                         _______ _______ _______ _____ _____    ______ ____
ROOT
ATOM      1  C   UNL     1      -0.245  -4.941   0.493  0.00  0.00    +0.102 C 
ATOM      2  C   UNL     1      -1.254  -5.856  -0.152  0.00  0.00    +0.054 A 
ATOM      3  C   UNL     1      -2.535  -5.563  -0.628  0.00  0.00    +0.100 A 
ATOM      4  N   UNL     1      -3.052  -6.677  -1.112  0.00  0.00    -0.171 NA
ATOM      5  N   UNL     1      -2.111  -7.706  -0.956  0.00  0.00    -0.246 N 
ATOM      6  H   UNL     1      -2.226  -8.630  -1.225  0.00  0.00    +0.192 HD
ATOM      7  C   UNL     1      -1.016  -7.183  -0.365  0.00  0.00    +0.223 A 
ATOM      8  O   UNL     1       0.146  -7.785  -0.009  0.00  0.00    -0.423 OA
ATOM      9  C   UNL     1       0.974  -7.109   0.813  0.00  0.00    +0.200 C 
ATOM     10  C   UNL     1       0.848  -5.791   1.091  0.00  0.00    +0.098 C 
ENDROOT
BRANCH   3  11
ATOM     11  C   UNL     1      -3.198  -4.236  -0.594  0.00  0.00    +0.003 A 
ATOM     12  C   UNL     1      -2.971  -3.369   0.473  0.00  0.00    +0.010 A 
ATOM     13  C   UNL     1      -3.590  -2.135   0.499  0.00  0.00    +0.004 A 
ATOM     14  C   UNL     1      -4.434  -1.759  -0.530  0.00  0.00    -0.050 A 
ATOM     15  C   UNL     1      -4.662  -2.616  -1.592  0.00  0.00    +0.004 A 
ATOM     16  C   UNL     1      -4.044  -3.850  -1.631  0.00  0.00    +0.010 A 
ATOM     17  C   UNL     1      -5.106  -0.411  -0.496  0.00  0.00    +0.044 C 
ENDBRANCH   3  11
BRANCH   1  20
ATOM     18  C   UNL     1       0.748  -1.797  -1.350  0.00  0.00    +0.163 A 
ATOM     19  C   UNL     1       0.211  -2.648  -0.398  0.00  0.00    +0.054 A 
ATOM     20  C   UNL     1       0.340  -4.017  -0.543  0.00  0.00    -0.031 A 
ATOM     21  C   UNL     1       1.004  -4.540  -1.638  0.00  0.00    +0.008 A 
ATOM     22  C   UNL     1       1.542  -3.696  -2.591  0.00  0.00    +0.050 A 
ATOM     23  C   UNL     1       1.412  -2.323  -2.455  0.00  0.00    +0.173 A 
BRANCH  18  24
ATOM     24  O   UNL     1       0.623  -0.450  -1.209  0.00  0.00    -0.489 OA
BRANCH  24  26
ATOM     25  C   UNL     1      -0.112   1.548  -0.065  0.00  0.00    +0.048 C 
ATOM     26  C   UNL     1      -0.071   0.019  -0.051  0.00  0.00    +0.226 C 
ENDBRANCH  24  26
ENDBRANCH  18  24
BRANCH  23  27
ATOM     27  O   UNL     1       1.936  -1.492  -3.395  0.00  0.00    -0.416 OA
BRANCH  27  28
ATOM     28  C   UNL     1       3.133  -0.924  -3.141  0.00  0.00    +0.380 C 
ATOM     29  O   UNL     1       3.756  -1.236  -2.144  0.00  0.00    -0.241 OA
BRANCH  28  30
ATOM     30  C   UNL     1       3.683   0.069  -4.067  0.00  0.00    +0.212 A 
ATOM     31  C   UNL     1       4.881   0.714  -3.934  0.00  0.00    +0.056 A 
ATOM     32  C   UNL     1       5.003   1.569  -5.040  0.00  0.00    +0.042 A 
ATOM     33  C   UNL     1       3.890   1.411  -5.790  0.00  0.00    +0.196 A 
ATOM     34  O   UNL     1       3.100   0.502  -5.204  0.00  0.00    -0.456 OA
ENDBRANCH  28  30
ENDBRANCH  27  28
ENDBRANCH  23  27
ENDBRANCH   1  20
BRANCH   9  35
ATOM     35  N   UNL     1       2.004  -7.798   1.402  0.00  0.00    -0.328 N 
ATOM     36  H   UNL     1       2.120  -8.744   1.223  0.00  0.00    +0.145 HD
ATOM     37  H   UNL     1       2.616  -7.339   1.999  0.00  0.00    +0.145 HD
ENDBRANCH   9  35
BRANCH  10  38
ATOM     38  C   UNL     1       1.786  -5.181   1.985  0.00  0.00    +0.101 C 
ATOM     39  N   UNL     1       2.530  -4.697   2.694  0.00  0.00    -0.191 NA
ENDBRANCH  10  38
TORSDOF 9
