REMARK  Name = ZINC09470958
REMARK  14 active torsions:
REMARK  status: ('A' for Active; 'I' for Inactive)
REMARK    1  A    between atoms: C_1  and  C_2
REMARK    2  A    between atoms: C_2  and  N_67
REMARK    3  A    between atoms: C_3  and  C_4
REMARK    4  A    between atoms: C_3  and  N_67
REMARK    5  A    between atoms: C_5  and  C_6
REMARK    6  A    between atoms: C_5  and  N_67
REMARK    7  A    between atoms: C_6  and  C_7
REMARK    8  A    between atoms: C_7  and  N_8
REMARK    9  A    between atoms: C_9  and  C_29
REMARK   10  A    between atoms: C_11  and  C_16
REMARK   11  A    between atoms: C_12  and  O_15
REMARK   12  A    between atoms: C_16  and  C_18
REMARK   13  A    between atoms: C_25  and  C_28
REMARK   14  A    between atoms: C_32  and  N_35
REMARK                            x       y       z     vdW  Elec       q    Type
REMARK                         _______ _______ _______ _____ _____    ______ ____
ROOT
ATOM      1  N   UNL     1       0.707   0.588   1.742  0.00  0.00    -0.284 N 
ATOM      2  C   UNL     1       1.048   0.275   3.134  0.00  0.00    +0.144 C 
ATOM      3  C   UNL     1       1.157  -1.230   3.212  0.00  0.00    +0.071 C 
ATOM      4  C   UNL     1       0.898  -1.706   1.972  0.00  0.00    +0.188 C 
ATOM      5  C   UNL     1       0.615  -0.572   1.067  0.00  0.00    +0.282 C 
ATOM      6  O   UNL     1       0.341  -0.673  -0.113  0.00  0.00    -0.267 OA
ENDROOT
BRANCH   2   7
ATOM      7  C   UNL     1       2.365   0.910   3.500  0.00  0.00    -0.022 A 
ATOM      8  C   UNL     1       3.458   0.764   2.667  0.00  0.00    +0.008 A 
ATOM      9  C   UNL     1       4.665   1.351   3.001  0.00  0.00    +0.033 A 
ATOM     10  C   UNL     1       4.780   2.076   4.172  0.00  0.00    +0.126 A 
ATOM     11  C   UNL     1       3.688   2.217   5.008  0.00  0.00    +0.033 A 
ATOM     12  C   UNL     1       2.480   1.635   4.671  0.00  0.00    +0.008 A 
BRANCH  10  13
ATOM     13  N   UNL     1       6.073   2.700   4.532  0.00  0.00    +0.056 N 
ATOM     14  O   UNL     1       6.175   3.338   5.564  0.00  0.00    -0.126 OA
ATOM     15  O   UNL     1       7.035   2.575   3.795  0.00  0.00    -0.126 OA
ENDBRANCH  10  13
ENDBRANCH   2   7
BRANCH   4  16
ATOM     16  O   UNL     1       0.893  -3.012   1.618  0.00  0.00    -0.502 OA
ATOM     17  H   UNL     1       0.673  -3.093   0.646  0.00  0.00    +0.292 HD
ENDBRANCH   4  16
BRANCH   3  18
ATOM     18  C   UNL     1       1.480  -2.023   4.403  0.00  0.00    +0.195 C 
ATOM     19  O   UNL     1       2.518  -2.657   4.449  0.00  0.00    -0.287 OA
BRANCH  18  20
ATOM     20  C   UNL     1       0.546  -2.053   5.546  0.00  0.00    +0.023 A 
ATOM     21  C   UNL     1      -0.689  -1.403   5.463  0.00  0.00    +0.015 A 
ATOM     22  C   UNL     1      -1.556  -1.429   6.530  0.00  0.00    +0.046 A 
ATOM     23  C   UNL     1      -1.213  -2.102   7.704  0.00  0.00    +0.124 A 
ATOM     24  C   UNL     1       0.015  -2.754   7.777  0.00  0.00    -0.002 A 
ATOM     25  C   UNL     1       0.888  -2.736   6.718  0.00  0.00    +0.019 A 
ATOM     26  C   UNL     1       0.091  -3.405   9.145  0.00  0.00    +0.083 C 
ATOM     27  C   UNL     1      -1.384  -3.347   9.608  0.00  0.00    +0.175 C 
ATOM     28  O   UNL     1      -1.908  -2.233   8.865  0.00  0.00    -0.488 OA
ATOM     29  C   UNL     1      -1.469  -3.083  11.113  0.00  0.00    +0.052 C 
ENDBRANCH  18  20
ENDBRANCH   3  18
BRANCH   1  30
ATOM     30  C   UNL     1       0.496   1.927   1.186  0.00  0.00    +0.107 C 
BRANCH  30  31
ATOM     31  C   UNL     1       1.826   2.479   0.667  0.00  0.00    +0.000 C 
BRANCH  31  32
ATOM     32  C   UNL     1       1.607   3.877   0.087  0.00  0.00    -0.077 C 
BRANCH  32  33
ATOM     33  N   UNL     1       2.903   4.404  -0.390  0.00  0.00    +0.379 N 
ATOM     34  H   UNL     1       3.595   4.320   0.364  0.00  0.00    -0.082 HD
BRANCH  33  36
ATOM     35  C   UNL     1       2.359   3.726  -2.704  0.00  0.00    -0.017 C 
ATOM     36  C   UNL     1       3.367   3.625  -1.557  0.00  0.00    -0.082 C 
ENDBRANCH  33  36
BRANCH  33  37
ATOM     37  C   UNL     1       2.764   5.829  -0.757  0.00  0.00    -0.082 C 
ATOM     38  C   UNL     1       4.157   6.413  -1.003  0.00  0.00    -0.017 C 
ENDBRANCH  33  37
ENDBRANCH  32  33
ENDBRANCH  31  32
ENDBRANCH  30  31
ENDBRANCH   1  30
TORSDOF 11
