REMARK  Name = ZINC36348432
REMARK  4 active torsions:
REMARK  status: ('A' for Active; 'I' for Inactive)
REMARK    1  A    between atoms: C_5  and  C_7
REMARK    2  A    between atoms: C_7  and  N_8
REMARK    3  A    between atoms: C_17  and  C_19
REMARK    4  A    between atoms: C_21  and  N_26
REMARK                            x       y       z     vdW  Elec       q    Type
REMARK                         _______ _______ _______ _____ _____    ______ ____
ROOT
ATOM      1  N   UNL     1       1.499  -2.682   1.327  0.00  0.00    +0.391 N 
ATOM      2  C   UNL     1       2.881  -2.377   1.702  0.00  0.00    -0.075 C 
ATOM      3  C   UNL     1       3.166  -2.804   3.137  0.00  0.00    +0.003 C 
ATOM      4  C   UNL     1       1.907  -2.625   3.990  0.00  0.00    +0.119 C 
ATOM      5  N   UNL     1       1.102  -3.849   3.914  0.00  0.00    -0.352 N 
ATOM      6  C   UNL     1       0.526  -4.505   4.959  0.00  0.00    +0.086 A 
ATOM      7  C   UNL     1      -0.142  -5.571   4.472  0.00  0.00    +0.019 A 
ATOM      8  C   UNL     1       0.033  -5.576   3.073  0.00  0.00    +0.021 A 
ATOM      9  C   UNL     1       0.804  -4.517   2.760  0.00  0.00    +0.010 A 
ATOM     10  C   UNL     1       1.272  -4.133   1.377  0.00  0.00    +0.012 C 
ATOM     11  H   UNL     1       0.870  -2.223   1.968  0.00  0.00    -0.080 HD
ENDROOT
BRANCH  10  12
ATOM     12  C   UNL     1       0.221  -4.513   0.366  0.00  0.00    -0.035 A 
ATOM     13  C   UNL     1      -1.021  -3.906   0.399  0.00  0.00    +0.036 A 
ATOM     14  C   UNL     1      -1.986  -4.255  -0.528  0.00  0.00    +0.126 A 
ATOM     15  C   UNL     1      -1.709  -5.211  -1.487  0.00  0.00    +0.034 A 
ATOM     16  C   UNL     1      -0.469  -5.819  -1.521  0.00  0.00    +0.022 A 
ATOM     17  C   UNL     1       0.499  -5.466  -0.597  0.00  0.00    +0.043 A 
ATOM     18 CL   UNL     1       2.061  -6.223  -0.644  0.00  0.00    -0.083 Cl
BRANCH  14  19
ATOM     19  N   UNL     1      -3.315  -3.605  -0.492  0.00  0.00    +0.056 N 
ATOM     20  O   UNL     1      -3.557  -2.769   0.347  0.00  0.00    -0.126 OA
ATOM     21  O   UNL     1      -4.159  -3.910  -1.302  0.00  0.00    -0.126 OA
ENDBRANCH  14  19
ENDBRANCH  10  12
BRANCH   1  22
ATOM     22  C   UNL     1       1.246  -2.196  -0.036  0.00  0.00    -0.039 C 
BRANCH  22  27
ATOM     23  C   UNL     1       0.412   1.486  -0.067  0.00  0.00    +0.000 A 
ATOM     24  C   UNL     1       1.671   2.055  -0.136  0.00  0.00    +0.003 A 
ATOM     25  C   UNL     1       2.793   1.249  -0.172  0.00  0.00    +0.038 A 
ATOM     26  C   UNL     1       2.656  -0.129  -0.140  0.00  0.00    +0.125 A 
ATOM     27  C   UNL     1       1.396  -0.697  -0.071  0.00  0.00    -0.029 A 
ATOM     28  C   UNL     1       0.275   0.111  -0.035  0.00  0.00    +0.004 A 
ATOM     29  F   UNL     1       3.752  -0.918  -0.176  0.00  0.00    -0.205 F 
ENDBRANCH  22  27
ENDBRANCH   1  22
TORSDOF 4
