REMARK  Name = ZINC49012058
REMARK  7 active torsions:
REMARK  status: ('A' for Active; 'I' for Inactive)
REMARK    1  A    between atoms: C_1  and  C_2
REMARK    2  A    between atoms: C_3  and  C_23
REMARK    3  A    between atoms: C_7  and  C_8
REMARK    4  A    between atoms: N_9  and  O_10
REMARK    5  A    between atoms: N_12  and  C_13
REMARK    6  A    between atoms: N_12  and  C_14
REMARK    7  A    between atoms: C_19  and  C_22
REMARK                            x       y       z     vdW  Elec       q    Type
REMARK                         _______ _______ _______ _____ _____    ______ ____
ROOT
ATOM      1  C   UNL     1      -0.226   1.208  -0.060  0.00  0.00    +0.046 C 
ATOM      2  C   UNL     1      -0.181  -0.293   0.058  0.00  0.00    -0.016 A 
ATOM      3  C   UNL     1      -0.242  -1.101  -1.067  0.00  0.00    +0.035 A 
ATOM      4  N   UNL     1      -0.202  -2.413  -0.943  0.00  0.00    -0.280 N 
ATOM      5  N   UNL     1      -0.105  -2.998   0.195  0.00  0.00    -0.158 NA
ATOM      6  C   UNL     1      -0.039  -2.322   1.333  0.00  0.00    +0.152 A 
ATOM      7  C   UNL     1      -0.069  -0.916   1.305  0.00  0.00    +0.064 A 
ATOM      8  N   UNL     1       0.065  -2.996   2.540  0.00  0.00    -0.313 N 
ATOM      9  C   UNL     1       0.261  -2.245   3.783  0.00  0.00    +0.131 C 
ATOM     10  C   UNL     1      -0.357  -0.478  -2.434  0.00  0.00    +0.065 C 
ATOM     11  H   UNL     1      -0.247  -2.958  -1.744  0.00  0.00    +0.189 HD
ENDROOT
BRANCH   8  12
ATOM     12  C   UNL     1      -0.021  -4.458   2.573  0.00  0.00    +0.075 C 
ATOM     13  C   UNL     1       1.297  -5.035   3.094  0.00  0.00    +0.022 C 
ATOM     14  C   UNL     1       1.561  -4.507   4.506  0.00  0.00    +0.002 C 
ATOM     15  C   UNL     1       0.418  -4.930   5.431  0.00  0.00    +0.003 C 
ATOM     16  C   UNL     1      -0.900  -4.353   4.909  0.00  0.00    -0.012 C 
ATOM     17  C   UNL     1      -1.164  -4.881   3.498  0.00  0.00    +0.025 C 
ATOM     18  C   UNL     1      -2.043  -4.776   5.834  0.00  0.00    +0.007 C 
ENDBRANCH   8  12
BRANCH   7  19
ATOM     19  C   UNL     1       0.008  -0.124   2.553  0.00  0.00    +0.166 C 
ATOM     20  N   UNL     1      -1.072   0.122   3.235  0.00  0.00    -0.071 NA
ATOM     21  N   UNL     1       1.230   0.355   2.994  0.00  0.00    -0.340 N 
ATOM     22  H   UNL     1       2.035   0.171   2.485  0.00  0.00    +0.144 HD
ATOM     23  H   UNL     1       1.281   0.874   3.811  0.00  0.00    +0.144 HD
BRANCH  20  24
ATOM     24  O   UNL     1      -0.998   0.880   4.428  0.00  0.00    -0.408 OA
ATOM     25  H   UNL     1      -1.851   1.011   4.865  0.00  0.00    +0.328 HD
ENDBRANCH  20  24
ENDBRANCH   7  19
TORSDOF 3
