REMARK  Name = ZINC39041129
REMARK  10 active torsions:
REMARK  status: ('A' for Active; 'I' for Inactive)
REMARK    1  A    between atoms: C_1  and  C_2
REMARK    2  A    between atoms: C_2  and  C_28
REMARK    3  A    between atoms: C_4  and  N_10
REMARK    4  A    between atoms: C_6  and  C_8
REMARK    5  A    between atoms: C_6  and  C_9
REMARK    6  A    between atoms: C_11  and  C_13
REMARK    7  A    between atoms: C_13  and  C_14
REMARK    8  A    between atoms: C_14  and  C_15
REMARK    9  A    between atoms: C_15  and  N_16
REMARK   10  A    between atoms: N_16  and  C_17
REMARK                            x       y       z     vdW  Elec       q    Type
REMARK                         _______ _______ _______ _____ _____    ______ ____
ROOT
ATOM      1  N   UNL     1       1.633  -2.333  -2.511  0.00  0.00    -0.313 N 
ATOM      2  C   UNL     1       1.548  -3.603  -2.954  0.00  0.00    +0.213 C 
ATOM      3  O   UNL     1       0.917  -4.424  -2.323  0.00  0.00    -0.276 OA
ATOM      4  H   UNL     1       2.137  -1.676  -3.016  0.00  0.00    +0.149 HD
ENDROOT
BRANCH   1   8
ATOM      5  C   UNL     1      -0.019   1.542   0.011  0.00  0.00    -0.010 C 
ATOM      6  C   UNL     1       0.002  -0.004   0.002  0.00  0.00    -0.072 C 
ATOM      7  C   UNL     1       0.670  -0.443  -1.297  0.00  0.00    +0.009 C 
ATOM      8  C   UNL     1       0.963  -1.944  -1.265  0.00  0.00    +0.070 C 
ATOM      9  C   UNL     1       1.892  -2.223  -0.084  0.00  0.00    +0.009 C 
ATOM     10  C   UNL     1       1.233  -1.798   1.224  0.00  0.00    -0.072 C 
ATOM     11  N   UNL     1       0.711  -0.443   1.191  0.00  0.00    +0.386 N 
ATOM     12  C   UNL     1       2.314  -1.859   2.328  0.00  0.00    -0.010 C 
ATOM     13  C   UNL     1       0.143  -2.805   1.606  0.00  0.00    -0.010 C 
ATOM     14  C   UNL     1      -1.457  -0.473   0.018  0.00  0.00    -0.010 C 
ATOM     15  H   UNL     1       1.489   0.204   1.356  0.00  0.00    -0.084 HD
ATOM     16  H   UNL     1       0.093  -0.317   1.998  0.00  0.00    -0.084 HD
ENDBRANCH   1   8
BRANCH   2  17
ATOM     17  C   UNL     1       2.236  -4.003  -4.234  0.00  0.00    +0.097 C 
BRANCH  17  18
ATOM     18  C   UNL     1       1.984  -5.487  -4.507  0.00  0.00    +0.030 C 
BRANCH  18  19
ATOM     19  C   UNL     1       2.682  -5.892  -5.806  0.00  0.00    +0.130 C 
BRANCH  19  20
ATOM     20  N   UNL     1       2.440  -7.313  -6.068  0.00  0.00    -0.231 NA
BRANCH  20  21
ATOM     21  C   UNL     1       2.972  -7.905  -7.185  0.00  0.00    +0.166 C 
ATOM     22  N   UNL     1       3.724  -7.257  -8.079  0.00  0.00    -0.199 NA
ATOM     23  C   UNL     1       4.211  -7.884  -9.156  0.00  0.00    +0.222 C 
ATOM     24  N   UNL     1       4.307  -9.167  -9.334  0.00  0.00    -0.222 NA
ATOM     25  C   UNL     1       3.886 -10.077  -8.268  0.00  0.00    +0.277 C 
ATOM     26  C   UNL     1       2.780  -9.328  -7.526  0.00  0.00    +0.130 C 
ATOM     27  N   UNL     1       1.832 -10.175  -7.388  0.00  0.00    -0.233 NA
ATOM     28  C   UNL     1       2.036 -11.268  -8.151  0.00  0.00    +0.218 C 
ATOM     29  N   UNL     1       3.209 -11.284  -8.736  0.00  0.00    -0.240 NA
ATOM     30 CL   UNL     1       4.772  -6.877 -10.454  0.00  0.00    -0.041 Cl
ENDBRANCH  20  21
ENDBRANCH  19  20
ENDBRANCH  18  19
ENDBRANCH  17  18
ENDBRANCH   2  17
TORSDOF 6
