REMARK  Name = ZINC63733029
REMARK  4 active torsions:
REMARK  status: ('A' for Active; 'I' for Inactive)
REMARK    1  A    between atoms: C_6  and  N_10
REMARK    2  A    between atoms: C_11  and  C_13
REMARK    3  A    between atoms: C_13  and  N_14
REMARK    4  A    between atoms: C_15  and  C_17
REMARK                            x       y       z     vdW  Elec       q    Type
REMARK                         _______ _______ _______ _____ _____    ______ ____
ROOT
ATOM      1  N   UNL     1       3.522  -2.756  -1.248  0.00  0.00    -0.277 N 
ATOM      2  C   UNL     1       3.445  -4.099  -1.322  0.00  0.00    +0.233 C 
ATOM      3  O   UNL     1       3.004  -4.734  -0.387  0.00  0.00    -0.274 OA
ATOM      4  H   UNL     1       3.874  -2.248  -1.996  0.00  0.00    +0.152 HD
ENDROOT
BRANCH   1  10
ATOM      5  C   UNL     1      -0.016   1.344   0.009  0.00  0.00    +0.002 A 
ATOM      6  C   UNL     1       1.158   2.118   0.002  0.00  0.00    +0.002 A 
ATOM      7  C   UNL     1       2.389   1.570  -0.013  0.00  0.00    +0.027 A 
ATOM      8  C   UNL     1       2.533   0.108  -0.022  0.00  0.00    +0.061 A 
ATOM      9  N   UNL     1       3.569  -0.680  -0.036  0.00  0.00    -0.348 N 
ATOM     10  C   UNL     1       3.071  -2.062  -0.039  0.00  0.00    +0.269 C 
ATOM     11  N   UNL     1       1.606  -1.974  -0.024  0.00  0.00    -0.348 N 
ATOM     12  C   UNL     1       1.290  -0.712  -0.014  0.00  0.00    +0.061 A 
ATOM     13  C   UNL     1       0.002  -0.004   0.002  0.00  0.00    +0.027 A 
ATOM     14  H   UNL     1       4.499  -0.405  -0.045  0.00  0.00    +0.163 HD
ATOM     15  H   UNL     1       0.987  -2.721  -0.022  0.00  0.00    +0.163 HD
ENDBRANCH   1  10
BRANCH   2  16
ATOM     16  C   UNL     1       3.908  -4.813  -2.565  0.00  0.00    +0.200 C 
BRANCH  16  17
ATOM     17  N   UNL     1       3.723  -6.257  -2.397  0.00  0.00    -0.303 N 
ATOM     18  C   UNL     1       4.070  -7.101  -3.389  0.00  0.00    +0.244 C 
ATOM     19  O   UNL     1       4.537  -6.664  -4.423  0.00  0.00    -0.270 OA
ATOM     20  H   UNL     1       3.350  -6.605  -1.572  0.00  0.00    +0.150 HD
BRANCH  18  21
ATOM     21  C   UNL     1       3.883  -8.556  -3.220  0.00  0.00    +0.037 A 
ATOM     22  C   UNL     1       3.341  -9.060  -2.035  0.00  0.00    +0.016 A 
ATOM     23  C   UNL     1       3.169 -10.419  -1.882  0.00  0.00    +0.039 A 
ATOM     24  C   UNL     1       3.533 -11.286  -2.902  0.00  0.00    +0.123 A 
ATOM     25  C   UNL     1       4.071 -10.791  -4.080  0.00  0.00    +0.039 A 
ATOM     26  C   UNL     1       4.242  -9.433  -4.246  0.00  0.00    +0.016 A 
ATOM     27  F   UNL     1       3.363 -12.617  -2.746  0.00  0.00    -0.205 F 
ENDBRANCH  18  21
ENDBRANCH  16  17
ENDBRANCH   2  16
TORSDOF 4
