REMARK  Name = ZINC00696736
REMARK  10 active torsions:
REMARK  status: ('A' for Active; 'I' for Inactive)
REMARK    1  A    between atoms: C_1  and  C_2
REMARK    2  A    between atoms: C_2  and  O_3
REMARK    3  A    between atoms: O_3  and  C_4
REMARK    4  A    between atoms: C_4  and  C_6
REMARK    5  A    between atoms: C_13  and  C_15
REMARK    6  A    between atoms: C_15  and  C_16
REMARK    7  A    between atoms: C_16  and  C_18
REMARK    8  A    between atoms: C_16  and  C_24
REMARK    9  A    between atoms: N_26  and  C_33
REMARK   10  A    between atoms: C_33  and  C_34
REMARK                            x       y       z     vdW  Elec       q    Type
REMARK                         _______ _______ _______ _____ _____    ______ ____
ROOT
ATOM      1  C   UNL     1       4.811  -6.863   4.542  0.00  0.00    +0.060 C 
ENDROOT
BRANCH   1   2
ATOM      2  C   UNL     1       5.318  -7.503   5.808  0.00  0.00    -0.014 A 
ATOM      3  C   UNL     1       5.848  -6.870   6.866  0.00  0.00    +0.091 A 
ATOM      4  N   UNL     1       6.195  -7.778   7.829  0.00  0.00    -0.342 N 
ATOM      5  C   UNL     1       5.888  -9.051   7.403  0.00  0.00    +0.050 A 
ATOM      6  C   UNL     1       5.319  -8.934   6.121  0.00  0.00    +0.004 A 
ATOM      7  C   UNL     1       4.901 -10.078   5.438  0.00  0.00    +0.010 A 
ATOM      8  C   UNL     1       5.044 -11.306   6.020  0.00  0.00    +0.001 A 
ATOM      9  C   UNL     1       5.600 -11.426   7.285  0.00  0.00    +0.002 A 
ATOM     10  C   UNL     1       6.028 -10.312   7.974  0.00  0.00    +0.026 A 
BRANCH   4  11
ATOM     11  C   UNL     1       6.802  -7.446   9.120  0.00  0.00    +0.157 C 
BRANCH  11  12
ATOM     12  C   UNL     1       8.300  -7.570   9.017  0.00  0.00    -0.028 A 
ATOM     13  C   UNL     1       8.915  -8.777   9.294  0.00  0.00    +0.005 A 
ATOM     14  C   UNL     1      10.289  -8.891   9.200  0.00  0.00    +0.000 A 
ATOM     15  C   UNL     1      11.049  -7.798   8.828  0.00  0.00    +0.000 A 
ATOM     16  C   UNL     1      10.435  -6.591   8.550  0.00  0.00    +0.000 A 
ATOM     17  C   UNL     1       9.060  -6.478   8.640  0.00  0.00    +0.005 A 
ENDBRANCH  11  12
ENDBRANCH   4  11
ENDBRANCH   1   2
BRANCH   1  18
ATOM     18  C   UNL     1       5.936  -6.119   3.870  0.00  0.00    -0.039 A 
ATOM     19  C   UNL     1       6.579  -5.091   4.535  0.00  0.00    +0.004 A 
ATOM     20  C   UNL     1       7.611  -4.408   3.919  0.00  0.00    +0.000 A 
ATOM     21  C   UNL     1       8.000  -4.753   2.638  0.00  0.00    +0.000 A 
ATOM     22  C   UNL     1       7.358  -5.781   1.974  0.00  0.00    +0.000 A 
ATOM     23  C   UNL     1       6.329  -6.467   2.591  0.00  0.00    +0.004 A 
ENDBRANCH   1  18
BRANCH   1  24
ATOM     24  C   UNL     1       3.683  -5.886   4.880  0.00  0.00    +0.109 C 
BRANCH  24  31
ATOM     25  C   UNL     1       1.516  -2.381   2.500  0.00  0.00    +0.115 C 
ATOM     26  C   UNL     1       0.813  -1.927   3.781  0.00  0.00    +0.018 C 
ATOM     27  C   UNL     1       1.558  -2.482   4.998  0.00  0.00    +0.020 C 
ATOM     28  C   UNL     1       1.537  -4.013   4.950  0.00  0.00    +0.108 C 
ATOM     29  N   UNL     1       2.079  -4.453   3.658  0.00  0.00    -0.301 N 
ATOM     30  C   UNL     1       1.495  -3.910   2.424  0.00  0.00    +0.122 C 
ATOM     31  C   UNL     1       3.094  -5.339   3.605  0.00  0.00    +0.216 C 
ATOM     32  O   UNL     1       3.533  -5.695   2.532  0.00  0.00    -0.276 OA
BRANCH  25  33
ATOM     33  C   UNL     1       0.801  -1.808   1.304  0.00  0.00    +0.312 C 
ATOM     34  O   UNL     1       0.324  -2.546   0.475  0.00  0.00    -0.250 OA
BRANCH  33  35
ATOM     35  O   UNL     1       0.693  -0.477   1.160  0.00  0.00    -0.465 OA
BRANCH  35  37
ATOM     36  C   UNL     1      -0.019   1.526   0.010  0.00  0.00    +0.048 C 
ATOM     37  C   UNL     1       0.002  -0.004   0.002  0.00  0.00    +0.229 C 
ENDBRANCH  35  37
ENDBRANCH  33  35
ENDBRANCH  25  33
ENDBRANCH  24  31
ENDBRANCH   1  24
TORSDOF 9
