REMARK  Name = ZINC36586918
REMARK  21 active torsions:
REMARK  status: ('A' for Active; 'I' for Inactive)
REMARK    1  A    between atoms: C_1  and  C_2
REMARK    2  A    between atoms: C_2  and  C_3
REMARK    3  A    between atoms: C_2  and  C_4
REMARK    4  A    between atoms: C_2  and  C_5
REMARK    5  A    between atoms: C_5  and  C_6
REMARK    6  A    between atoms: C_6  and  C_7
REMARK    7  A    between atoms: C_6  and  C_8
REMARK    8  A    between atoms: C_6  and  N_9
REMARK    9  A    between atoms: C_10  and  C_12
REMARK   10  A    between atoms: C_12  and  C_14
REMARK   11  A    between atoms: C_12  and  N_23
REMARK   12  A    between atoms: C_15  and  O_22
REMARK   13  A    between atoms: C_17  and  O_21
REMARK   14  A    between atoms: C_19  and  O_20
REMARK   15  A    between atoms: N_23  and  C_34
REMARK   16  A    between atoms: C_24  and  C_26
REMARK   17  A    between atoms: C_30  and  O_33
REMARK   18  A    between atoms: C_31  and  O_32
REMARK   19  A    between atoms: C_34  and  C_35
REMARK   20  A    between atoms: C_34  and  C_36
REMARK   21  A    between atoms: C_34  and  C_37
REMARK                            x       y       z     vdW  Elec       q    Type
REMARK                         _______ _______ _______ _____ _____    ______ ____
ROOT
ATOM      1  C   UNL     1       7.572  -3.884  -5.332  0.00  0.00    +0.200 C 
ENDROOT
BRANCH   1   2
ATOM      2  C   UNL     1       7.056  -5.188  -5.886  0.00  0.00    +0.065 A 
ATOM      3  C   UNL     1       7.189  -5.468  -7.237  0.00  0.00    +0.129 A 
ATOM      4  C   UNL     1       6.714  -6.668  -7.746  0.00  0.00    +0.091 A 
ATOM      5  C   UNL     1       6.108  -7.587  -6.904  0.00  0.00    +0.124 A 
ATOM      6  C   UNL     1       5.977  -7.307  -5.552  0.00  0.00    +0.091 A 
ATOM      7  C   UNL     1       6.455  -6.109  -5.042  0.00  0.00    +0.129 A 
BRANCH   7   8
ATOM      8  O   UNL     1       6.331  -5.837  -3.716  0.00  0.00    -0.506 OA
ATOM      9  H   UNL     1       5.509  -5.384  -3.483  0.00  0.00    +0.292 HD
ENDBRANCH   7   8
BRANCH   5  10
ATOM     10  O   UNL     1       5.643  -8.762  -7.402  0.00  0.00    -0.507 OA
ATOM     11  H   UNL     1       6.292  -9.478  -7.393  0.00  0.00    +0.292 HD
ENDBRANCH   5  10
BRANCH   3  12
ATOM     12  O   UNL     1       7.782  -4.567  -8.063  0.00  0.00    -0.506 OA
ATOM     13  H   UNL     1       8.725  -4.728  -8.209  0.00  0.00    +0.292 HD
ENDBRANCH   3  12
ENDBRANCH   1   2
BRANCH   1  15
ATOM     14  N   UNL     1       9.825  -3.859  -6.354  0.00  0.00    -0.308 N 
ATOM     15  C   UNL     1       8.597  -3.308  -6.276  0.00  0.00    +0.239 C 
ATOM     16  O   UNL     1       8.317  -2.350  -6.964  0.00  0.00    -0.273 OA
ATOM     17  H   UNL     1      10.049  -4.625  -5.803  0.00  0.00    +0.149 HD
BRANCH  14  18
ATOM     18  C   UNL     1      10.821  -3.299  -7.271  0.00  0.00    +0.030 C 
ATOM     19  C   UNL     1      11.064  -1.829  -6.924  0.00  0.00    +0.031 C 
ATOM     20  C   UNL     1      10.308  -3.406  -8.708  0.00  0.00    +0.031 C 
BRANCH  18  21
ATOM     21  C   UNL     1      12.131  -4.078  -7.137  0.00  0.00    +0.031 C 
BRANCH  21  23
ATOM     22  C   UNL     1      11.935  -5.702  -5.249  0.00  0.00    +0.010 C 
ATOM     23  C   UNL     1      12.435  -4.314  -5.657  0.00  0.00    -0.036 C 
ATOM     24  C   UNL     1      11.729  -3.250  -4.814  0.00  0.00    +0.010 C 
ATOM     25  C   UNL     1      13.945  -4.228  -5.426  0.00  0.00    +0.010 C 
ENDBRANCH  21  23
ENDBRANCH  18  21
ENDBRANCH  14  18
ENDBRANCH   1  15
BRANCH   1  26
ATOM     26  N   UNL     1       6.460  -2.942  -5.186  0.00  0.00    -0.277 N 
ATOM     27  C   UNL     1       5.193  -3.360  -5.379  0.00  0.00    +0.252 C 
ATOM     28  O   UNL     1       4.925  -4.543  -5.308  0.00  0.00    -0.270 OA
BRANCH  27  29
ATOM     29  C   UNL     1       4.131  -2.380  -5.678  0.00  0.00    +0.082 A 
ATOM     30  C   UNL     1       4.464  -1.082  -6.077  0.00  0.00    +0.017 A 
ATOM     31  C   UNL     1       3.469  -0.171  -6.356  0.00  0.00    +0.005 A 
ATOM     32  C   UNL     1       2.137  -0.532  -6.242  0.00  0.00    +0.049 A 
ATOM     33  C   UNL     1       1.791  -1.813  -5.847  0.00  0.00    +0.159 A 
ATOM     34  C   UNL     1       2.784  -2.747  -5.568  0.00  0.00    +0.171 A 
BRANCH  34  35
ATOM     35  O   UNL     1       2.449  -4.006  -5.186  0.00  0.00    -0.503 OA
ATOM     36  H   UNL     1       2.351  -4.114  -4.230  0.00  0.00    +0.292 HD
ENDBRANCH  34  35
BRANCH  33  37
ATOM     37  O   UNL     1       0.481  -2.160  -5.737  0.00  0.00    -0.503 OA
ATOM     38  H   UNL     1       0.100  -2.521  -6.549  0.00  0.00    +0.292 HD
ENDBRANCH  33  37
ENDBRANCH  27  29
BRANCH  26  39
ATOM     39  C   UNL     1       6.724  -1.546  -4.829  0.00  0.00    +0.030 C 
ATOM     40  C   UNL     1       7.870  -1.487  -3.817  0.00  0.00    +0.031 C 
ATOM     41  C   UNL     1       7.112  -0.763  -6.085  0.00  0.00    +0.031 C 
ATOM     42  C   UNL     1       5.467  -0.930  -4.212  0.00  0.00    +0.031 C 
ENDBRANCH  26  39
ENDBRANCH   1  26
TORSDOF 13
