REMARK  Name = ZINC63541290
REMARK  8 active torsions:
REMARK  status: ('A' for Active; 'I' for Inactive)
REMARK    1  A    between atoms: C_1  and  C_2
REMARK    2  A    between atoms: C_5  and  N_8
REMARK    3  A    between atoms: C_9  and  C_11
REMARK    4  A    between atoms: C_11  and  S_12
REMARK    5  A    between atoms: S_12  and  C_13
REMARK    6  A    between atoms: N_24  and  C_25
REMARK    7  A    between atoms: C_25  and  C_26
REMARK    8  A    between atoms: C_26  and  C_27
REMARK                            x       y       z     vdW  Elec       q    Type
REMARK                         _______ _______ _______ _____ _____    ______ ____
ROOT
ATOM      1  C   UNL     1       0.597  -8.760   2.631  0.00  0.00    +0.223 C 
ATOM      2  N   UNL     1       1.796  -9.065   1.841  0.00  0.00    -0.300 N 
ATOM      3  C   UNL     1       1.758  -8.879   0.469  0.00  0.00    +0.151 A 
ATOM      4  C   UNL     1       0.524  -9.027  -0.190  0.00  0.00    +0.165 A 
ATOM      5  N   UNL     1       0.456  -8.881  -1.505  0.00  0.00    -0.246 NA
ATOM      6  C   UNL     1       1.547  -8.583  -2.185  0.00  0.00    +0.131 A 
ATOM      7  C   UNL     1       2.762  -8.423  -1.534  0.00  0.00    +0.132 A 
ATOM      8  N   UNL     1       2.844  -8.573  -0.222  0.00  0.00    -0.237 NA
ATOM      9  C   UNL     1      -0.675  -9.329   0.618  0.00  0.00    +0.270 C 
ATOM     10  O   UNL     1      -1.723  -9.621   0.075  0.00  0.00    -0.268 OA
ATOM     11  N   UNL     1      -0.595  -9.277   1.959  0.00  0.00    -0.268 N 
ATOM     12  H   UNL     1       2.601  -9.391   2.273  0.00  0.00    +0.150 HD
ENDROOT
BRANCH   1  13
ATOM     13  S   UNL     1       0.446  -6.963   2.823  0.00  0.00    -0.110 S 
BRANCH  13  14
ATOM     14  C   UNL     1       0.309  -6.349   1.121  0.00  0.00    +0.168 C 
BRANCH  14  16
ATOM     15  N   UNL     1       0.059  -4.170  -0.021  0.00  0.00    -0.285 N 
ATOM     16  C   UNL     1       0.175  -4.848   1.138  0.00  0.00    +0.227 C 
ATOM     17  O   UNL     1       0.173  -4.251   2.193  0.00  0.00    -0.275 OA
ATOM     18  H   UNL     1      -0.017  -4.651  -0.860  0.00  0.00    +0.155 HD
BRANCH  15  23
ATOM     19  C   UNL     1       0.008   1.503   0.007  0.00  0.00    +0.044 C 
ATOM     20  C   UNL     1       0.022  -0.004  -0.001  0.00  0.00    -0.050 A 
ATOM     21  C   UNL     1       0.777  -0.692   0.931  0.00  0.00    +0.005 A 
ATOM     22  C   UNL     1       0.791  -2.073   0.927  0.00  0.00    +0.023 A 
ATOM     23  C   UNL     1       0.046  -2.771  -0.014  0.00  0.00    +0.033 A 
ATOM     24  C   UNL     1      -0.712  -2.077  -0.948  0.00  0.00    +0.023 A 
ATOM     25  C   UNL     1      -0.726  -0.696  -0.936  0.00  0.00    +0.005 A 
ENDBRANCH  15  23
ENDBRANCH  14  16
ENDBRANCH  13  14
ENDBRANCH   1  13
BRANCH  11  26
ATOM     26  C   UNL     1      -1.727  -9.748   2.761  0.00  0.00    +0.115 C 
BRANCH  26  27
ATOM     27  C   UNL     1      -2.686  -8.585   3.022  0.00  0.00    +0.052 C 
BRANCH  27  28
ATOM     28  C   UNL     1      -3.850  -9.069   3.847  0.00  0.00    -0.040 C 
ATOM     29  C   UNL     1      -3.980  -8.996   5.192  0.00  0.00    -0.001 A 
ATOM     30  C   UNL     1      -3.108  -8.467   6.247  0.00  0.00    +0.010 A 
ATOM     31  C   UNL     1      -3.519  -8.538   7.534  0.00  0.00    +0.001 A 
ATOM     32  C   UNL     1      -4.753  -9.103   7.884  0.00  0.00    +0.002 A 
ATOM     33  C   UNL     1      -5.607  -9.611   6.970  0.00  0.00    +0.026 A 
ATOM     34  C   UNL     1      -5.278  -9.588   5.587  0.00  0.00    +0.043 A 
ATOM     35  N   UNL     1      -5.926 -10.010   4.528  0.00  0.00    -0.380 N 
ATOM     36  C   UNL     1      -5.113  -9.727   3.340  0.00  0.00    +0.144 C 
ATOM     37  H   UNL     1      -6.798 -10.434   4.530  0.00  0.00    +0.160 HD
ENDBRANCH  27  28
ENDBRANCH  26  27
ENDBRANCH  11  26
TORSDOF 7
