REMARK  Name = ZINC15066905
REMARK  4 active torsions:
REMARK  status: ('A' for Active; 'I' for Inactive)
REMARK    1  A    between atoms: C_1  and  N_2
REMARK    2  A    between atoms: C_3  and  C_5
REMARK    3  A    between atoms: N_7  and  C_24
REMARK    4  A    between atoms: C_9  and  C_12
REMARK                            x       y       z     vdW  Elec       q    Type
REMARK                         _______ _______ _______ _____ _____    ______ ____
ROOT
ATOM      1  C   UNL     1      -2.563   4.268   0.023  0.00  0.00    +0.100 A 
ATOM      2  C   UNL     1      -3.703   3.500   0.114  0.00  0.00    +0.102 A 
ATOM      3  N   UNL     1      -3.642   2.159   0.166  0.00  0.00    -0.349 N 
ATOM      4  C   UNL     1      -2.490   1.471   0.134  0.00  0.00    +0.102 A 
ATOM      5  C   UNL     1      -1.273   2.111   0.044  0.00  0.00    +0.100 A 
ATOM      6  C   UNL     1      -1.260   3.583  -0.012  0.00  0.00    +0.206 A 
ATOM      7  O   UNL     1      -0.215   4.207  -0.087  0.00  0.00    -0.286 OA
ENDROOT
BRANCH   5   8
ATOM      8  C   UNL     1      -0.016   1.344   0.009  0.00  0.00    +0.252 C 
ATOM      9  O   UNL     1       0.877   1.673  -0.748  0.00  0.00    -0.270 OA
ATOM     10  N   UNL     1       0.142   0.273   0.813  0.00  0.00    -0.293 N 
ATOM     11  C   UNL     1       1.327  -0.594   0.709  0.00  0.00    +0.113 C 
ATOM     12  C   UNL     1       2.104  -0.477   2.025  0.00  0.00    +0.054 C 
ATOM     13  C   UNL     1       1.181  -0.621   3.207  0.00  0.00    -0.041 A 
ATOM     14  C   UNL     1       1.748  -0.957   4.430  0.00  0.00    +0.004 A 
ATOM     15  C   UNL     1       0.962  -1.092   5.555  0.00  0.00    +0.000 A 
ATOM     16  C   UNL     1      -0.404  -0.892   5.467  0.00  0.00    +0.000 A 
ATOM     17  C   UNL     1      -0.970  -0.563   4.253  0.00  0.00    +0.005 A 
ATOM     18  C   UNL     1      -0.179  -0.430   3.119  0.00  0.00    -0.027 A 
ATOM     19  C   UNL     1      -0.863  -0.078   1.822  0.00  0.00    +0.143 C 
ENDBRANCH   5   8
BRANCH   3  20
ATOM     20  C   UNL     1      -4.897   1.410   0.264  0.00  0.00    +0.087 C 
ATOM     21  C   UNL     1      -5.770   1.716  -0.955  0.00  0.00    +0.025 C 
ATOM     22  C   UNL     1      -7.080   0.933  -0.854  0.00  0.00    +0.002 C 
ATOM     23  C   UNL     1      -7.822   1.343   0.420  0.00  0.00    +0.000 C 
ATOM     24  C   UNL     1      -6.949   1.036   1.639  0.00  0.00    +0.002 C 
ATOM     25  C   UNL     1      -5.639   1.819   1.538  0.00  0.00    +0.025 C 
ENDBRANCH   3  20
BRANCH   1  28
ATOM     26  C   UNL     1      -3.927   7.809  -0.050  0.00  0.00    +0.128 C 
ATOM     27  N   UNL     1      -3.846   6.348   0.005  0.00  0.00    -0.314 N 
ATOM     28  C   UNL     1      -2.645   5.738  -0.033  0.00  0.00    +0.249 C 
ATOM     29  O   UNL     1      -1.628   6.401  -0.114  0.00  0.00    -0.270 OA
ATOM     30  H   UNL     1      -4.657   5.819   0.070  0.00  0.00    +0.149 HD
ENDBRANCH   1  28
TORSDOF 3
