REMARK  Name = ZINC21134586
REMARK  7 active torsions:
REMARK  status: ('A' for Active; 'I' for Inactive)
REMARK    1  A    between atoms: C_1  and  C_2
REMARK    2  A    between atoms: C_8  and  N_10
REMARK    3  A    between atoms: C_11  and  C_13
REMARK    4  A    between atoms: C_13  and  S_14
REMARK    5  A    between atoms: S_14  and  C_15
REMARK    6  A    between atoms: N_25  and  C_26
REMARK    7  A    between atoms: C_26  and  C_27
REMARK                            x       y       z     vdW  Elec       q    Type
REMARK                         _______ _______ _______ _____ _____    ______ ____
ROOT
ATOM      1  C   UNL     1       1.187  -0.682  -0.013  0.00  0.00    +0.173 A 
ATOM      2  N   UNL     1       2.353  -0.083  -0.021  0.00  0.00    -0.223 NA
ATOM      3  C   UNL     1       2.455   1.266  -0.015  0.00  0.00    +0.080 A 
ATOM      4  C   UNL     1       3.698   1.907  -0.023  0.00  0.00    +0.048 A 
ATOM      5  C   UNL     1       3.752   3.283  -0.018  0.00  0.00    +0.043 A 
ATOM      6  C   UNL     1       2.587   4.042  -0.002  0.00  0.00    +0.021 A 
ATOM      7  C   UNL     1       1.361   3.438   0.007  0.00  0.00    +0.017 A 
ATOM      8  C   UNL     1       1.276   2.046   0.001  0.00  0.00    +0.065 A 
ATOM      9  C   UNL     1      -0.016   1.349   0.009  0.00  0.00    +0.263 A 
ATOM     10  O   UNL     1      -1.066   1.966   0.018  0.00  0.00    -0.267 OA
ATOM     11  N   UNL     1       0.002  -0.004   0.002  0.00  0.00    -0.280 N 
ATOM     12 CL   UNL     1       5.295   4.080  -0.029  0.00  0.00    -0.083 Cl
ENDROOT
BRANCH   1  13
ATOM     13  S   UNL     1       1.148  -2.443  -0.022  0.00  0.00    -0.078 S 
BRANCH  13  14
ATOM     14  C   UNL     1       2.923  -2.798  -0.042  0.00  0.00    +0.173 C 
BRANCH  14  16
ATOM     15  N   UNL     1       4.388  -4.790  -0.067  0.00  0.00    -0.312 N 
ATOM     16  C   UNL     1       3.137  -4.290  -0.052  0.00  0.00    +0.224 C 
ATOM     17  O   UNL     1       2.184  -5.039  -0.047  0.00  0.00    -0.275 OA
ATOM     18  H   UNL     1       5.253  -4.110  -0.072  0.00  0.00    +0.149 HD
BRANCH  15  25
ATOM     19  C   UNL     1       5.995  -6.026  -2.136  0.00  0.00    +0.009 C 
ATOM     20  C   UNL     1       5.957  -6.556  -0.702  0.00  0.00    +0.006 C 
ATOM     21  C   UNL     1       6.175  -8.070  -0.712  0.00  0.00    +0.005 C 
ATOM     22  C   UNL     1       6.137  -8.601   0.723  0.00  0.00    +0.000 C 
ATOM     23  C   UNL     1       4.777  -8.285   1.347  0.00  0.00    +0.002 C 
ATOM     24  C   UNL     1       4.559  -6.771   1.358  0.00  0.00    +0.022 C 
ATOM     25  C   UNL     1       4.596  -6.240  -0.077  0.00  0.00    +0.076 C 
ENDBRANCH  15  25
ENDBRANCH  14  16
ENDBRANCH  13  14
ENDBRANCH   1  13
BRANCH  11  26
ATOM     26  C   UNL     1      -1.260  -0.748   0.010  0.00  0.00    +0.201 C 
BRANCH  26  27
ATOM     27  C   UNL     1      -1.706  -0.995  -1.408  0.00  0.00    +0.125 A 
ATOM     28  C   UNL     1      -1.386  -2.064  -2.158  0.00  0.00    +0.046 A 
ATOM     29  C   UNL     1      -2.015  -1.888  -3.412  0.00  0.00    +0.041 A 
ATOM     30  C   UNL     1      -2.682  -0.722  -3.353  0.00  0.00    +0.195 A 
ATOM     31  O   UNL     1      -2.497  -0.188  -2.135  0.00  0.00    -0.466 OA
ENDBRANCH  26  27
ENDBRANCH  11  26
TORSDOF 6
