REMARK  Name = ZINC34859713
REMARK  6 active torsions:
REMARK  status: ('A' for Active; 'I' for Inactive)
REMARK    1  A    between atoms: C_1  and  C_2
REMARK    2  A    between atoms: C_4  and  C_22
REMARK    3  A    between atoms: C_7  and  C_14
REMARK    4  A    between atoms: C_9  and  C_13
REMARK    5  A    between atoms: C_19  and  O_20
REMARK    6  A    between atoms: C_27  and  O_28
REMARK                            x       y       z     vdW  Elec       q    Type
REMARK                         _______ _______ _______ _____ _____    ______ ____
ROOT
ATOM      1  C   UNL     1      -0.019   1.526   0.010  0.00  0.00    +0.017 C 
ATOM      2  C   UNL     1       0.002  -0.004   0.002  0.00  0.00    +0.074 C 
ATOM      3  C   UNL     1       0.731  -0.504  -1.250  0.00  0.00    +0.098 C 
ATOM      4  N   UNL     1       2.146  -0.117  -1.178  0.00  0.00    -0.301 NA
ATOM      5  C   UNL     1       2.834  -0.792  -0.070  0.00  0.00    +0.098 C 
ATOM      6  C   UNL     1       2.247  -0.312   1.262  0.00  0.00    +0.074 C 
ATOM      7  C   UNL     1       0.746  -0.511   1.220  0.00  0.00    +0.143 C 
ATOM      8  O   UNL     1       0.162  -1.057   2.125  0.00  0.00    -0.297 OA
ATOM      9  C   UNL     1       2.844  -1.125   2.412  0.00  0.00    +0.017 C 
ATOM     10  H   UNL     1       2.614  -0.292  -2.054  0.00  0.00    +0.123 HD
ENDROOT
BRANCH   5  11
ATOM     11  C   UNL     1       4.305  -0.466  -0.119  0.00  0.00    +0.013 A 
ATOM     12  C   UNL     1       4.735   0.700  -0.721  0.00  0.00    +0.028 A 
ATOM     13  C   UNL     1       6.084   1.000  -0.766  0.00  0.00    +0.042 A 
ATOM     14  C   UNL     1       7.007   0.132  -0.208  0.00  0.00    +0.023 A 
ATOM     15  C   UNL     1       6.581  -1.035   0.395  0.00  0.00    +0.047 A 
ATOM     16  C   UNL     1       5.227  -1.335   0.446  0.00  0.00    +0.122 A 
ATOM     17 CL   UNL     1       6.622   2.466  -1.524  0.00  0.00    -0.084 Cl
BRANCH  16  18
ATOM     18  O   UNL     1       4.805  -2.480   1.045  0.00  0.00    -0.506 OA
ATOM     19  H   UNL     1       4.752  -3.239   0.448  0.00  0.00    +0.292 HD
ENDBRANCH  16  18
ENDBRANCH   5  11
BRANCH   3  20
ATOM     20  C   UNL     1       0.104   0.109  -2.476  0.00  0.00    +0.013 A 
ATOM     21  C   UNL     1       0.702   1.193  -3.089  0.00  0.00    +0.028 A 
ATOM     22  C   UNL     1       0.127   1.756  -4.214  0.00  0.00    +0.042 A 
ATOM     23  C   UNL     1      -1.048   1.235  -4.727  0.00  0.00    +0.023 A 
ATOM     24  C   UNL     1      -1.649   0.151  -4.117  0.00  0.00    +0.047 A 
ATOM     25  C   UNL     1      -1.070  -0.418  -2.992  0.00  0.00    +0.122 A 
ATOM     26 CL   UNL     1       0.879   3.119  -4.983  0.00  0.00    -0.084 Cl
BRANCH  25  27
ATOM     27  O   UNL     1      -1.656  -1.489  -2.393  0.00  0.00    -0.506 OA
ATOM     28  H   UNL     1      -2.296  -1.254  -1.707  0.00  0.00    +0.292 HD
ENDBRANCH  25  27
ENDBRANCH   3  20
TORSDOF 4
