REMARK  Name = ZINC33698015
REMARK  8 active torsions:
REMARK  status: ('A' for Active; 'I' for Inactive)
REMARK    1  A    between atoms: C_1  and  C_2
REMARK    2  A    between atoms: C_5  and  C_30
REMARK    3  A    between atoms: C_6  and  C_8
REMARK    4  A    between atoms: C_8  and  C_9
REMARK    5  A    between atoms: C_10  and  C_23
REMARK    6  A    between atoms: N_12  and  C_17
REMARK    7  A    between atoms: C_17  and  C_18
REMARK    8  A    between atoms: C_26  and  C_28
REMARK                            x       y       z     vdW  Elec       q    Type
REMARK                         _______ _______ _______ _____ _____    ______ ____
ROOT
ATOM      1  C   UNL     1      -1.822   5.935   3.515  0.00  0.00    +0.079 C 
ATOM      2  C   UNL     1      -1.093   5.655   2.221  0.00  0.00    +0.181 C 
ATOM      3  N   UNL     1      -2.048   4.978   1.339  0.00  0.00    -0.273 N 
ATOM      4  C   UNL     1      -3.222   4.851   1.981  0.00  0.00    +0.288 C 
ATOM      5  O   UNL     1      -4.217   4.335   1.514  0.00  0.00    -0.266 OA
ATOM      6  C   UNL     1      -3.123   5.432   3.347  0.00  0.00    +0.249 C 
ATOM      7  O   UNL     1      -4.015   5.469   4.174  0.00  0.00    -0.282 OA
ENDROOT
BRANCH   2   8
ATOM      8  C   UNL     1       0.093   4.762   2.480  0.00  0.00    +0.130 A 
ATOM      9  C   UNL     1       1.378   5.158   2.538  0.00  0.00    +0.047 A 
ATOM     10  C   UNL     1       2.151   4.004   2.799  0.00  0.00    +0.045 A 
ATOM     11  C   UNL     1       1.293   2.971   2.885  0.00  0.00    +0.102 A 
ATOM     12  O   UNL     1       0.048   3.438   2.696  0.00  0.00    -0.463 OA
ATOM     13  C   UNL     1       1.665   1.536   3.154  0.00  0.00    +0.086 C 
ENDBRANCH   2   8
BRANCH   1  14
ATOM     14  C   UNL     1      -1.313   6.559   4.635  0.00  0.00    +0.196 C 
ATOM     15  O   UNL     1      -0.077   7.101   4.603  0.00  0.00    -0.287 OA
BRANCH  14  21
ATOM     16  C   UNL     1      -3.493   4.296   8.509  0.00  0.00    +0.044 C 
ATOM     17  C   UNL     1      -3.170   5.548   7.735  0.00  0.00    -0.050 A 
ATOM     18  C   UNL     1      -3.631   6.774   8.183  0.00  0.00    +0.003 A 
ATOM     19  C   UNL     1      -3.340   7.930   7.480  0.00  0.00    +0.004 A 
ATOM     20  C   UNL     1      -2.587   7.869   6.326  0.00  0.00    -0.040 A 
ATOM     21  C   UNL     1      -2.118   6.634   5.867  0.00  0.00    +0.025 A 
ATOM     22  C   UNL     1      -2.422   5.469   6.580  0.00  0.00    +0.015 A 
ATOM     23  C   UNL     1      -2.271   9.128   5.562  0.00  0.00    +0.044 C 
ENDBRANCH  14  21
ENDBRANCH   1  14
BRANCH   3  24
ATOM     24  C   UNL     1      -1.769   4.519  -0.024  0.00  0.00    +0.183 C 
BRANCH  24  25
ATOM     25  C   UNL     1      -1.252   3.104   0.018  0.00  0.00    +0.122 A 
ATOM     26  C   UNL     1      -2.003   1.990  -0.048  0.00  0.00    +0.046 A 
ATOM     27  C   UNL     1      -1.115   0.892   0.031  0.00  0.00    +0.041 A 
ATOM     28  C   UNL     1       0.126   1.401   0.131  0.00  0.00    +0.195 A 
ATOM     29  O   UNL     1       0.037   2.741   0.123  0.00  0.00    -0.466 OA
ENDBRANCH  24  25
ENDBRANCH   3  24
TORSDOF 5
