REMARK  Name = ZINC08623256
REMARK  5 active torsions:
REMARK  status: ('A' for Active; 'I' for Inactive)
REMARK    1  A    between atoms: C_1  and  C_2
REMARK    2  A    between atoms: C_2  and  C_19
REMARK    3  A    between atoms: C_4  and  C_17
REMARK    4  A    between atoms: C_4  and  C_18
REMARK    5  A    between atoms: N_13  and  N_14
REMARK                            x       y       z     vdW  Elec       q    Type
REMARK                         _______ _______ _______ _____ _____    ______ ____
ROOT
ATOM      1  C   UNL     1       0.296   1.538   0.394  0.00  0.00    +0.021 C 
ATOM      2  C   UNL     1       0.282   0.009   0.340  0.00  0.00    +0.022 C 
ATOM      3  C   UNL     1       0.626  -0.454  -1.080  0.00  0.00    +0.041 C 
ATOM      4  C   UNL     1       2.043  -0.038  -1.492  0.00  0.00    +0.038 C 
ATOM      5  N   UNL     1       2.990  -0.559  -0.492  0.00  0.00    -0.260 N 
ATOM      6  C   UNL     1       2.573  -0.774   0.812  0.00  0.00    +0.051 A 
ATOM      7  C   UNL     1       1.293  -0.533   1.306  0.00  0.00    -0.015 A 
ATOM      8  C   UNL     1       1.081  -0.817   2.634  0.00  0.00    +0.006 A 
ATOM      9  C   UNL     1       2.105  -1.316   3.430  0.00  0.00    +0.001 A 
ATOM     10  C   UNL     1       3.386  -1.556   2.946  0.00  0.00    +0.012 A 
ATOM     11  C   UNL     1       3.613  -1.274   1.602  0.00  0.00    +0.029 A 
ATOM     12  C   UNL     1       4.769  -1.370   0.703  0.00  0.00    +0.152 C 
ATOM     13  N   UNL     1       5.977  -1.790   1.001  0.00  0.00    -0.184 NA
ATOM     14  C   UNL     1       4.281  -0.892  -0.614  0.00  0.00    +0.272 C 
ATOM     15  O   UNL     1       4.943  -0.816  -1.633  0.00  0.00    -0.268 OA
ATOM     16  C   UNL     1       2.372  -0.623  -2.867  0.00  0.00    +0.032 C 
ATOM     17  C   UNL     1       2.137   1.488  -1.545  0.00  0.00    +0.032 C 
ENDROOT
BRANCH   2  18
ATOM     18  C   UNL     1      -1.089  -0.494   0.713  0.00  0.00    -0.037 A 
ATOM     19  C   UNL     1      -2.126   0.401   0.899  0.00  0.00    +0.004 A 
ATOM     20  C   UNL     1      -3.383  -0.061   1.242  0.00  0.00    +0.000 A 
ATOM     21  C   UNL     1      -3.603  -1.417   1.396  0.00  0.00    +0.000 A 
ATOM     22  C   UNL     1      -2.566  -2.311   1.209  0.00  0.00    +0.000 A 
ATOM     23  C   UNL     1      -1.310  -1.850   0.863  0.00  0.00    +0.004 A 
ENDBRANCH   2  18
BRANCH  13  24
ATOM     24  N   UNL     1       6.893  -1.816   0.093  0.00  0.00    -0.282 N 
ATOM     25  H   UNL     1       6.689  -1.525  -0.810  0.00  0.00    +0.164 HD
ATOM     26  H   UNL     1       7.785  -2.126   0.313  0.00  0.00    +0.164 HD
ENDBRANCH  13  24
TORSDOF 2
