REMARK  Name = ZINC60155934
REMARK  14 active torsions:
REMARK  status: ('A' for Active; 'I' for Inactive)
REMARK    1  A    between atoms: C_1  and  C_2
REMARK    2  A    between atoms: C_2  and  N_3
REMARK    3  A    between atoms: C_4  and  C_26
REMARK    4  A    between atoms: C_7  and  S_8
REMARK    5  A    between atoms: S_8  and  C_9
REMARK    6  A    between atoms: C_9  and  C_10
REMARK    7  A    between atoms: N_12  and  C_13
REMARK    8  A    between atoms: C_13  and  C_14
REMARK    9  A    between atoms: C_14  and  C_16
REMARK   10  A    between atoms: C_14  and  N_23
REMARK   11  A    between atoms: C_19  and  C_22
REMARK   12  A    between atoms: N_23  and  C_24
REMARK   13  A    between atoms: N_23  and  C_25
REMARK   14  A    between atoms: C_30  and  C_32
REMARK                            x       y       z     vdW  Elec       q    Type
REMARK                         _______ _______ _______ _____ _____    ______ ____
ROOT
ATOM      1  C   UNL     1       6.019  -0.842  -0.178  0.00  0.00    +0.223 C 
ATOM      2  O   UNL     1       5.795  -0.385   0.922  0.00  0.00    -0.275 OA
ATOM      3  N   UNL     1       7.290  -1.004  -0.595  0.00  0.00    -0.316 N 
ATOM      4  H   UNL     1       7.469  -1.370  -1.476  0.00  0.00    +0.149 HD
ENDROOT
BRANCH   1   5
ATOM      5  C   UNL     1       4.875  -1.228  -1.080  0.00  0.00    +0.173 C 
BRANCH   5   6
ATOM      6  S   UNL     1       3.303  -0.892  -0.241  0.00  0.00    -0.077 S 
BRANCH   6  11
ATOM      7  N   UNL     1       0.727  -1.331  -1.239  0.00  0.00    -0.302 N 
ATOM      8  C   UNL     1       0.185  -1.817  -2.407  0.00  0.00    +0.165 A 
ATOM      9  N   UNL     1       1.187  -2.139  -3.192  0.00  0.00    -0.128 NA
ATOM     10  N   UNL     1       2.302  -1.890  -2.604  0.00  0.00    -0.122 NA
ATOM     11  C   UNL     1       2.081  -1.390  -1.408  0.00  0.00    +0.192 A 
BRANCH   8  12
ATOM     12  C   UNL     1      -1.254  -1.953  -2.718  0.00  0.00    +0.020 A 
ATOM     13  C   UNL     1      -2.199  -1.224  -1.995  0.00  0.00    +0.011 A 
ATOM     14  C   UNL     1      -3.540  -1.355  -2.291  0.00  0.00    +0.001 A 
ATOM     15  C   UNL     1      -3.949  -2.207  -3.302  0.00  0.00    +0.003 A 
ATOM     16  C   UNL     1      -3.017  -2.932  -4.022  0.00  0.00    -0.050 A 
ATOM     17  C   UNL     1      -1.672  -2.806  -3.740  0.00  0.00    +0.015 A 
ATOM     18  C   UNL     1      -3.471  -3.857  -5.122  0.00  0.00    +0.044 C 
ENDBRANCH   8  12
BRANCH   7  20
ATOM     19  C   UNL     1      -0.179   0.670  -0.164  0.00  0.00    +0.027 C 
ATOM     20  C   UNL     1       0.002  -0.846  -0.062  0.00  0.00    +0.122 C 
ENDBRANCH   7  20
ENDBRANCH   6  11
ENDBRANCH   5   6
ENDBRANCH   1   5
BRANCH   3  21
ATOM     21  C   UNL     1       8.402  -0.629   0.281  0.00  0.00    +0.093 C 
BRANCH  21  22
ATOM     22  C   UNL     1       9.724  -0.804  -0.468  0.00  0.00    -0.021 C 
BRANCH  22  23
ATOM     23  C   UNL     1       9.921  -2.259  -0.805  0.00  0.00    -0.059 A 
ATOM     24  C   UNL     1      10.386  -3.135   0.158  0.00  0.00    +0.002 A 
ATOM     25  C   UNL     1      10.566  -4.471  -0.151  0.00  0.00    +0.003 A 
ATOM     26  C   UNL     1      10.283  -4.930  -1.424  0.00  0.00    -0.050 A 
ATOM     27  C   UNL     1       9.818  -4.054  -2.387  0.00  0.00    +0.003 A 
ATOM     28  C   UNL     1       9.633  -2.720  -2.077  0.00  0.00    +0.002 A 
ATOM     29  C   UNL     1      10.481  -6.385  -1.762  0.00  0.00    +0.044 C 
ENDBRANCH  22  23
BRANCH  22  30
ATOM     30  N   UNL     1      10.832  -0.343   0.379  0.00  0.00    +0.382 N 
ATOM     31  C   UNL     1      12.097  -0.466  -0.359  0.00  0.00    -0.096 C 
ATOM     32  C   UNL     1      10.615   1.062   0.748  0.00  0.00    -0.096 C 
ATOM     33  H   UNL     1      10.874  -0.907   1.214  0.00  0.00    -0.082 HD
ENDBRANCH  22  30
ENDBRANCH  21  22
ENDBRANCH   3  21
TORSDOF 9
