REMARK  Name = ZINC54209169
REMARK  7 active torsions:
REMARK  status: ('A' for Active; 'I' for Inactive)
REMARK    1  A    between atoms: C_1  and  C_2
REMARK    2  A    between atoms: C_2  and  C_4
REMARK    3  A    between atoms: C_2  and  N_16
REMARK    4  A    between atoms: N_6  and  N_7
REMARK    5  A    between atoms: C_8  and  C_9
REMARK    6  A    between atoms: C_14  and  O_15
REMARK    7  A    between atoms: C_26  and  C_27
REMARK                            x       y       z     vdW  Elec       q    Type
REMARK                         _______ _______ _______ _____ _____    ______ ____
ROOT
ATOM      1  N   UNL     1       0.833  -2.426   0.133  0.00  0.00    -0.280 N 
ATOM      2  C   UNL     1       0.748  -2.207  -1.200  0.00  0.00    +0.263 A 
ATOM      3  O   UNL     1       0.222  -1.203  -1.644  0.00  0.00    -0.267 OA
ATOM      4  C   UNL     1       1.317  -3.228  -2.093  0.00  0.00    +0.065 A 
ATOM      5  C   UNL     1       1.280  -3.096  -3.479  0.00  0.00    +0.015 A 
ATOM      6  C   UNL     1       1.828  -4.084  -4.268  0.00  0.00    +0.001 A 
ATOM      7  C   UNL     1       2.414  -5.205  -3.692  0.00  0.00    +0.002 A 
ATOM      8  C   UNL     1       2.460  -5.354  -2.335  0.00  0.00    +0.028 A 
ATOM      9  C   UNL     1       1.913  -4.369  -1.508  0.00  0.00    +0.079 A 
ATOM     10  N   UNL     1       1.940  -4.481  -0.165  0.00  0.00    -0.229 NA
ATOM     11  C   UNL     1       1.434  -3.558   0.612  0.00  0.00    +0.145 A 
ENDROOT
BRANCH  11  12
ATOM     12  C   UNL     1       1.508  -3.751   2.075  0.00  0.00    +0.018 A 
ATOM     13  C   UNL     1       1.074  -4.947   2.648  0.00  0.00    +0.011 A 
ATOM     14  C   UNL     1       1.147  -5.121   4.014  0.00  0.00    +0.001 A 
ATOM     15  C   UNL     1       1.647  -4.112   4.817  0.00  0.00    +0.000 A 
ATOM     16  C   UNL     1       2.079  -2.922   4.256  0.00  0.00    +0.001 A 
ATOM     17  C   UNL     1       2.017  -2.738   2.890  0.00  0.00    +0.011 A 
ENDBRANCH  11  12
BRANCH   1  19
ATOM     18  C   UNL     1       1.009  -0.106   0.888  0.00  0.00    +0.041 C 
ATOM     19  C   UNL     1       0.284  -1.442   1.068  0.00  0.00    +0.176 C 
BRANCH  19  20
ATOM     20  C   UNL     1      -1.187  -1.255   0.796  0.00  0.00    +0.255 C 
ATOM     21  O   UNL     1      -1.706  -1.823  -0.142  0.00  0.00    -0.272 OA
ATOM     22  N   UNL     1      -1.924  -0.458   1.594  0.00  0.00    -0.205 N 
ATOM     23  H   UNL     1      -1.528  -0.068   2.389  0.00  0.00    +0.177 HD
BRANCH  22  24
ATOM     24  N   UNL     1      -3.262  -0.193   1.275  0.00  0.00    -0.188 NA
ATOM     25  C   UNL     1      -3.940   0.661   1.979  0.00  0.00    +0.142 C 
BRANCH  25  26
ATOM     26  C   UNL     1      -3.256   1.500   2.979  0.00  0.00    +0.036 A 
ATOM     27  C   UNL     1      -1.899   1.801   2.834  0.00  0.00    +0.013 A 
ATOM     28  C   UNL     1      -1.265   2.587   3.773  0.00  0.00    +0.001 A 
ATOM     29  C   UNL     1      -1.967   3.078   4.861  0.00  0.00    +0.004 A 
ATOM     30  C   UNL     1      -3.309   2.787   5.016  0.00  0.00    +0.046 A 
ATOM     31  C   UNL     1      -3.963   2.004   4.079  0.00  0.00    +0.125 A 
BRANCH  31  32
ATOM     32  O   UNL     1      -5.283   1.722   4.228  0.00  0.00    -0.506 OA
ATOM     33  H   UNL     1      -5.461   0.962   4.799  0.00  0.00    +0.292 HD
ENDBRANCH  31  32
ENDBRANCH  25  26
ENDBRANCH  22  24
ENDBRANCH  19  20
ENDBRANCH   1  19
TORSDOF 6
