REMARK  Name = ZINC21921522
REMARK  10 active torsions:
REMARK  status: ('A' for Active; 'I' for Inactive)
REMARK    1  A    between atoms: C_1  and  C_2
REMARK    2  A    between atoms: C_2  and  C_4
REMARK    3  A    between atoms: C_2  and  O_31
REMARK    4  A    between atoms: N_6  and  N_7
REMARK    5  A    between atoms: C_8  and  C_10
REMARK    6  A    between atoms: C_10  and  C_12
REMARK    7  A    between atoms: C_10  and  N_23
REMARK    8  A    between atoms: C_12  and  C_13
REMARK    9  A    between atoms: C_24  and  C_26
REMARK   10  A    between atoms: O_31  and  C_32
REMARK                            x       y       z     vdW  Elec       q    Type
REMARK                         _______ _______ _______ _____ _____    ______ ____
ROOT
ATOM      1  C   UNL     1      -2.134   9.598   1.952  0.00  0.00    +0.165 C 
ENDROOT
BRANCH   1   3
ATOM      2  N   UNL     1      -1.092   7.477   1.220  0.00  0.00    -0.233 N 
ATOM      3  C   UNL     1      -2.207   8.225   1.335  0.00  0.00    +0.250 C 
ATOM      4  O   UNL     1      -3.270   7.792   0.943  0.00  0.00    -0.272 OA
ATOM      5  H   UNL     1      -0.128   7.869   1.576  0.00  0.00    +0.173 HD
BRANCH   2   8
ATOM      6  C   UNL     1      -0.045   5.453   0.531  0.00  0.00    +0.270 C 
ATOM      7  O   UNL     1       1.018   5.885   0.923  0.00  0.00    -0.270 OA
ATOM      8  N   UNL     1      -1.160   6.201   0.646  0.00  0.00    -0.231 N 
ATOM      9  H   UNL     1      -2.124   5.809   0.290  0.00  0.00    +0.173 HD
BRANCH   6  11
ATOM     10  C   UNL     1      -0.518   4.203  -1.558  0.00  0.00    +0.062 C 
ATOM     11  C   UNL     1      -0.118   4.080  -0.086  0.00  0.00    +0.257 C 
BRANCH  11  12
ATOM     12  O   UNL     1       1.159   3.446   0.009  0.00  0.00    -0.477 OA
BRANCH  12  13
ATOM     13  C   UNL     1       1.175   2.087   0.004  0.00  0.00    +0.157 A 
ATOM     14  C   UNL     1       0.001   1.379  -0.206  0.00  0.00    +0.048 A 
ATOM     15  C   UNL     1       0.020  -0.003  -0.212  0.00  0.00    +0.004 A 
ATOM     16  C   UNL     1       1.207  -0.681  -0.009  0.00  0.00    +0.003 A 
ATOM     17  C   UNL     1       2.380   0.021   0.200  0.00  0.00    +0.042 A 
ATOM     18  C   UNL     1       2.367   1.404   0.207  0.00  0.00    +0.165 A 
ATOM     19  F   UNL     1       3.513   2.090   0.412  0.00  0.00    -0.202 F 
ENDBRANCH  12  13
ENDBRANCH  11  12
ENDBRANCH   6  11
ENDBRANCH   2   8
ENDBRANCH   1   3
BRANCH   1  20
ATOM     20  N   UNL     1      -3.306  10.378   1.548  0.00  0.00    -0.299 N 
ATOM     21  C   UNL     1      -4.543   9.947   1.860  0.00  0.00    +0.251 C 
ATOM     22  O   UNL     1      -4.688   8.909   2.479  0.00  0.00    -0.270 OA
ATOM     23  H   UNL     1      -3.175  11.316   0.988  0.00  0.00    +0.150 HD
BRANCH  21  24
ATOM     24  C   UNL     1      -5.716  10.728   1.456  0.00  0.00    +0.074 A 
ATOM     25  C   UNL     1      -7.059  10.464   1.674  0.00  0.00    +0.021 A 
ATOM     26  C   UNL     1      -7.963  11.373   1.182  0.00  0.00    +0.008 A 
ATOM     27  C   UNL     1      -7.508  12.467   0.517  0.00  0.00    +0.046 A 
ATOM     28  S   UNL     1      -5.786  12.269   0.560  0.00  0.00    -0.092 S 
ENDBRANCH  21  24
ENDBRANCH   1  20
BRANCH   1  29
ATOM     29  C   UNL     1      -2.107   9.471   3.477  0.00  0.00    +0.069 C 
BRANCH  29  30
ATOM     30  C   UNL     1      -1.910  10.833   4.090  0.00  0.00    -0.020 A 
ATOM     31  C   UNL     1      -0.743  11.374   4.476  0.00  0.00    +0.087 A 
ATOM     32  N   UNL     1      -0.956  12.626   4.986  0.00  0.00    -0.360 N 
ATOM     33  H   UNL     1      -0.106  13.224   5.348  0.00  0.00    +0.165 HD
ATOM     34  C   UNL     1      -2.299  12.926   4.948  0.00  0.00    +0.047 A 
ATOM     35  C   UNL     1      -2.956  11.816   4.385  0.00  0.00    +0.003 A 
ATOM     36  C   UNL     1      -4.342  11.837   4.219  0.00  0.00    +0.010 A 
ATOM     37  C   UNL     1      -5.054  12.937   4.606  0.00  0.00    +0.001 A 
ATOM     38  C   UNL     1      -4.411  14.034   5.162  0.00  0.00    +0.002 A 
ATOM     39  C   UNL     1      -3.044  14.034   5.334  0.00  0.00    +0.026 A 
ENDBRANCH  29  30
ENDBRANCH   1  29
TORSDOF 9
