REMARK  Name = ZINC03595684
REMARK  6 active torsions:
REMARK  status: ('A' for Active; 'I' for Inactive)
REMARK    1  A    between atoms: C_1  and  C_2
REMARK    2  A    between atoms: N_11  and  C_15
REMARK    3  A    between atoms: C_15  and  C_16
REMARK    4  A    between atoms: N_18  and  C_19
REMARK    5  A    between atoms: C_24  and  C_25
REMARK    6  A    between atoms: C_25  and  C_26
REMARK                            x       y       z     vdW  Elec       q    Type
REMARK                         _______ _______ _______ _____ _____    ______ ____
ROOT
ATOM      1  C   UNL     1      -3.198  -1.060   1.683  0.00  0.00    +0.235 C 
ATOM      2  O   UNL     1      -3.767  -0.670   2.681  0.00  0.00    -0.274 OA
ATOM      3  N   UNL     1      -2.222  -0.314   1.129  0.00  0.00    -0.284 N 
ATOM      4  H   UNL     1      -1.822  -0.586   0.288  0.00  0.00    +0.155 HD
ENDROOT
BRANCH   3   5
ATOM      5  C   UNL     1      -1.785   0.852   1.767  0.00  0.00    +0.037 A 
ATOM      6  C   UNL     1      -1.936   0.992   3.140  0.00  0.00    +0.023 A 
ATOM      7  C   UNL     1      -1.504   2.144   3.767  0.00  0.00    +0.002 A 
ATOM      8  C   UNL     1      -0.920   3.158   3.028  0.00  0.00    +0.000 A 
ATOM      9  C   UNL     1      -0.763   3.019   1.662  0.00  0.00    +0.006 A 
ATOM     10  C   UNL     1      -1.199   1.871   1.028  0.00  0.00    -0.022 A 
BRANCH  10  11
ATOM     11  C   UNL     1      -1.033   1.723  -0.462  0.00  0.00    +0.072 C 
BRANCH  11  12
ATOM     12  C   UNL     1      -2.303   2.148  -1.154  0.00  0.00    -0.043 A 
ATOM     13  C   UNL     1      -3.294   1.220  -1.411  0.00  0.00    +0.004 A 
ATOM     14  C   UNL     1      -4.461   1.611  -2.041  0.00  0.00    +0.000 A 
ATOM     15  C   UNL     1      -4.632   2.928  -2.423  0.00  0.00    +0.000 A 
ATOM     16  C   UNL     1      -3.638   3.855  -2.171  0.00  0.00    +0.000 A 
ATOM     17  C   UNL     1      -2.474   3.466  -1.537  0.00  0.00    +0.004 A 
ENDBRANCH  11  12
ENDBRANCH  10  11
ENDBRANCH   3   5
BRANCH   1  18
ATOM     18  C   UNL     1      -3.582  -2.379   1.063  0.00  0.00    +0.214 C 
BRANCH  18  28
ATOM     19  C   UNL     1      -5.824  -6.133   1.798  0.00  0.00    +0.010 C 
ATOM     20  C   UNL     1      -6.060  -5.705   3.248  0.00  0.00    +0.018 C 
ATOM     21  C   UNL     1      -5.085  -6.446   4.165  0.00  0.00    +0.006 C 
ATOM     22  C   UNL     1      -5.308  -6.002   5.611  0.00  0.00    +0.000 C 
ATOM     23  C   UNL     1      -5.058  -4.497   5.728  0.00  0.00    +0.003 C 
ATOM     24  C   UNL     1      -6.034  -3.747   4.817  0.00  0.00    +0.035 C 
ATOM     25  C   UNL     1      -5.839  -4.201   3.375  0.00  0.00    +0.115 C 
ATOM     26  C   UNL     1      -4.459  -3.832   2.883  0.00  0.00    +0.247 C 
ATOM     27  O   UNL     1      -3.396  -4.209   3.327  0.00  0.00    -0.273 OA
ATOM     28  N   UNL     1      -4.659  -2.991   1.846  0.00  0.00    -0.215 N 
ATOM     29  C   UNL     1      -5.962  -2.791   1.618  0.00  0.00    +0.310 C 
ATOM     30  O   UNL     1      -6.392  -2.076   0.734  0.00  0.00    -0.252 OA
ATOM     31  N   UNL     1      -6.744  -3.471   2.479  0.00  0.00    -0.285 N 
ATOM     32  H   UNL     1      -7.714  -3.476   2.502  0.00  0.00    +0.151 HD
ENDBRANCH  18  28
ENDBRANCH   1  18
TORSDOF 5
