REMARK  Name = ZINC49563626
REMARK  5 active torsions:
REMARK  status: ('A' for Active; 'I' for Inactive)
REMARK    1  A    between atoms: C_1  and  C_2
REMARK    2  A    between atoms: C_2  and  C_33
REMARK    3  A    between atoms: C_4  and  N_10
REMARK    4  A    between atoms: C_6  and  C_8
REMARK    5  A    between atoms: C_6  and  C_9
REMARK                            x       y       z     vdW  Elec       q    Type
REMARK                         _______ _______ _______ _____ _____    ______ ____
ROOT
ATOM      1  N   UNL     1       2.616  -0.819  -2.627  0.00  0.00    -0.263 NA
ATOM      2  C   UNL     1       4.058  -0.560  -2.742  0.00  0.00    +0.130 C 
ATOM      3  C   UNL     1       4.601  -1.259  -3.963  0.00  0.00    +0.051 A 
ATOM      4  C   UNL     1       3.892  -2.276  -4.573  0.00  0.00    +0.130 A 
ATOM      5  C   UNL     1       4.407  -2.919  -5.700  0.00  0.00    +0.047 A 
ATOM      6  C   UNL     1       5.614  -2.550  -6.217  0.00  0.00    +0.016 A 
ATOM      7  C   UNL     1       6.342  -1.522  -5.615  0.00  0.00    +0.032 A 
ATOM      8  C   UNL     1       5.834  -0.869  -4.477  0.00  0.00    +0.144 A 
ATOM      9  O   UNL     1       6.726   0.067  -4.101  0.00  0.00    -0.450 OA
ATOM     10  C   UNL     1       7.798   0.083  -4.920  0.00  0.00    +0.187 A 
ATOM     11  C   UNL     1       7.633  -0.882  -5.893  0.00  0.00    +0.079 A 
ATOM     12  C   UNL     1       8.656  -1.092  -6.932  0.00  0.00    +0.198 C 
ATOM     13  O   UNL     1       8.497  -1.946  -7.782  0.00  0.00    -0.286 OA
ATOM     14  C   UNL     1       9.879  -0.258  -6.938  0.00  0.00    +0.033 A 
ATOM     15  C   UNL     1      10.856  -0.440  -7.909  0.00  0.00    +0.012 A 
ATOM     16  C   UNL     1      11.994   0.351  -7.898  0.00  0.00    +0.001 A 
ATOM     17  C   UNL     1      12.164   1.319  -6.927  0.00  0.00    +0.001 A 
ATOM     18  C   UNL     1      11.199   1.512  -5.952  0.00  0.00    +0.012 A 
ATOM     19  C   UNL     1      10.051   0.727  -5.949  0.00  0.00    +0.036 A 
ATOM     20  C   UNL     1       9.012   0.919  -4.914  0.00  0.00    +0.229 C 
ATOM     21  O   UNL     1       9.159   1.769  -4.058  0.00  0.00    -0.283 OA
ATOM     22  O   UNL     1       2.681  -2.665  -4.090  0.00  0.00    -0.476 OA
ATOM     23  C   UNL     1       2.348  -2.261  -2.760  0.00  0.00    +0.319 C 
ENDROOT
BRANCH   1  27
ATOM     24  C   UNL     1      -0.019   1.528   0.010  0.00  0.00    -0.010 C 
ATOM     25  C   UNL     1       0.002  -0.004   0.002  0.00  0.00    -0.072 C 
ATOM     26  C   UNL     1       0.573  -0.505  -1.321  0.00  0.00    +0.006 C 
ATOM     27  C   UNL     1       2.088  -0.301  -1.357  0.00  0.00    +0.058 C 
ATOM     28  C   UNL     1       2.703  -1.086  -0.198  0.00  0.00    +0.006 C 
ATOM     29  C   UNL     1       2.147  -0.590   1.133  0.00  0.00    -0.072 C 
ATOM     30  N   UNL     1       0.697  -0.529   1.164  0.00  0.00    +0.386 N 
ATOM     31  C   UNL     1       2.769   0.766   1.481  0.00  0.00    -0.010 C 
ATOM     32  C   UNL     1       2.600  -1.589   2.223  0.00  0.00    -0.010 C 
ATOM     33  C   UNL     1      -1.468  -0.478   0.079  0.00  0.00    -0.010 C 
ATOM     34  H   UNL     1       0.416   0.021   1.982  0.00  0.00    -0.084 HD
ATOM     35  H   UNL     1       0.341  -1.472   1.351  0.00  0.00    -0.084 HD
ENDBRANCH   1  27
TORSDOF 1
