REMARK  Name = ZINC09835471
REMARK  11 active torsions:
REMARK  status: ('A' for Active; 'I' for Inactive)
REMARK    1  A    between atoms: C_1  and  C_2
REMARK    2  A    between atoms: C_7  and  N_8
REMARK    3  A    between atoms: C_9  and  C_23
REMARK    4  A    between atoms: C_11  and  O_15
REMARK    5  A    between atoms: O_15  and  C_16
REMARK    6  A    between atoms: C_23  and  N_58
REMARK    7  A    between atoms: C_24  and  C_25
REMARK    8  A    between atoms: C_24  and  N_58
REMARK    9  A    between atoms: C_25  and  C_26
REMARK   10  A    between atoms: C_29  and  S_32
REMARK   11  A    between atoms: S_32  and  C_33
REMARK                            x       y       z     vdW  Elec       q    Type
REMARK                         _______ _______ _______ _____ _____    ______ ____
ROOT
ATOM      1  N   UNL     1      -7.175   5.250  -2.273  0.00  0.00    -0.263 N 
ATOM      2  C   UNL     1      -5.895   5.852  -2.686  0.00  0.00    +0.114 C 
ATOM      3  C   UNL     1      -6.580   6.169  -4.025  0.00  0.00    +0.278 C 
ATOM      4  C   UNL     1      -7.816   5.512  -3.445  0.00  0.00    +0.263 C 
ATOM      5  O   UNL     1      -8.936   5.302  -3.861  0.00  0.00    -0.271 OA
ENDROOT
BRANCH   1  12
ATOM      6  C   UNL     1      -6.832   2.434  -2.049  0.00  0.00    +0.045 C 
ATOM      7  C   UNL     1      -7.437   3.254  -0.938  0.00  0.00    -0.029 A 
ATOM      8  C   UNL     1      -7.838   2.642   0.233  0.00  0.00    +0.005 A 
ATOM      9  C   UNL     1      -8.399   3.393   1.250  0.00  0.00    +0.000 A 
ATOM     10  C   UNL     1      -8.554   4.759   1.100  0.00  0.00    +0.002 A 
ATOM     11  C   UNL     1      -8.150   5.378  -0.067  0.00  0.00    +0.024 A 
ATOM     12  C   UNL     1      -7.586   4.626  -1.090  0.00  0.00    +0.040 A 
ENDBRANCH   1  12
BRANCH   3  13
ATOM     13  O   UNL     1      -6.021   5.466  -5.136  0.00  0.00    -0.478 OA
BRANCH  13  14
ATOM     14  C   UNL     1      -6.226   5.999  -6.370  0.00  0.00    +0.122 A 
ATOM     15  C   UNL     1      -5.605   5.443  -7.479  0.00  0.00    +0.047 A 
ATOM     16  C   UNL     1      -5.818   5.983  -8.732  0.00  0.00    +0.023 A 
ATOM     17  C   UNL     1      -6.641   7.085  -8.880  0.00  0.00    +0.041 A 
ATOM     18  C   UNL     1      -7.257   7.645  -7.775  0.00  0.00    +0.023 A 
ATOM     19  C   UNL     1      -7.051   7.104  -6.521  0.00  0.00    +0.047 A 
ATOM     20 CL   UNL     1      -6.902   7.766 -10.456  0.00  0.00    -0.084 Cl
ENDBRANCH  13  14
ENDBRANCH   3  13
BRANCH   2  21
ATOM     21  C   UNL     1      -4.750   4.844  -2.804  0.00  0.00    -0.055 C 
BRANCH  21  22
ATOM     22  N   UNL     1      -4.276   4.490  -1.452  0.00  0.00    +0.381 N 
ATOM     23  H   UNL     1      -5.051   4.078  -0.919  0.00  0.00    -0.086 HD
ATOM     24  H   UNL     1      -3.946   5.338  -0.977  0.00  0.00    -0.086 HD
BRANCH  22  25
ATOM     25  C   UNL     1      -3.171   3.517  -1.536  0.00  0.00    -0.078 C 
BRANCH  25  26
ATOM     26  C   UNL     1      -2.701   3.170  -0.122  0.00  0.00    +0.016 C 
BRANCH  26  27
ATOM     27  C   UNL     1      -1.571   2.176  -0.198  0.00  0.00    -0.049 A 
ATOM     28  C   UNL     1      -1.843   0.820  -0.197  0.00  0.00    +0.004 A 
ATOM     29  C   UNL     1      -0.810  -0.094  -0.260  0.00  0.00    +0.015 A 
ATOM     30  C   UNL     1       0.505   0.351  -0.337  0.00  0.00    +0.008 A 
ATOM     31  C   UNL     1       0.774   1.714  -0.344  0.00  0.00    +0.015 A 
ATOM     32  C   UNL     1      -0.264   2.622  -0.274  0.00  0.00    +0.004 A 
BRANCH  30  33
ATOM     33  S   UNL     1       1.826  -0.811  -0.426  0.00  0.00    -0.129 S 
ATOM     34  C   UNL     1       3.315   0.222  -0.509  0.00  0.00    +0.090 C 
ENDBRANCH  30  33
ENDBRANCH  26  27
ENDBRANCH  25  26
ENDBRANCH  22  25
ENDBRANCH  21  22
ENDBRANCH   2  21
TORSDOF 9
