REMARK  Name = ZINC39590660
REMARK  6 active torsions:
REMARK  status: ('A' for Active; 'I' for Inactive)
REMARK    1  A    between atoms: C_4  and  C_7
REMARK    2  A    between atoms: C_9  and  C_13
REMARK    3  A    between atoms: C_17  and  S_32
REMARK    4  A    between atoms: N_19  and  N_20
REMARK    5  A    between atoms: C_21  and  C_22
REMARK    6  A    between atoms: C_25  and  C_28
REMARK                            x       y       z     vdW  Elec       q    Type
REMARK                         _______ _______ _______ _____ _____    ______ ____
ROOT
ATOM      1  C   UNL     1       5.782  -3.012   1.181  0.00  0.00    +0.263 C 
ATOM      2  N   UNL     1       5.478  -2.236   2.385  0.00  0.00    -0.163 NA
ATOM      3  N   UNL     1       6.493  -1.965   3.023  0.00  0.00    -0.155 NA
ATOM      4  C   UNL     1       7.696  -2.501   2.384  0.00  0.00    +0.288 C 
ATOM      5  N   UNL     1       7.244  -3.197   1.165  0.00  0.00    -0.192 N 
ENDROOT
BRANCH   1   8
ATOM      6  C   UNL     1       3.699  -0.689  -0.037  0.00  0.00    +0.091 C 
ATOM      7  C   UNL     1       3.832  -2.029  -0.051  0.00  0.00    +0.035 C 
ATOM      8  C   UNL     1       5.335  -2.245  -0.065  0.00  0.00    +0.198 C 
ATOM      9  N   UNL     1       5.871  -0.874  -0.056  0.00  0.00    -0.176 NA
ATOM     10  N   UNL     1       4.919  -0.090  -0.047  0.00  0.00    -0.154 NA
BRANCH   6  14
ATOM     11  C   UNL     1      -0.017   1.379   0.010  0.00  0.00    +0.000 A 
ATOM     12  C   UNL     1       1.169   2.092   0.002  0.00  0.00    +0.001 A 
ATOM     13  C   UNL     1       2.377   1.426  -0.013  0.00  0.00    +0.010 A 
ATOM     14  C   UNL     1       2.402   0.033  -0.021  0.00  0.00    +0.002 A 
ATOM     15  C   UNL     1       1.205  -0.680  -0.013  0.00  0.00    +0.010 A 
ATOM     16  C   UNL     1       0.002  -0.004   0.002  0.00  0.00    +0.001 A 
ENDBRANCH   6  14
ENDBRANCH   1   8
BRANCH   5  17
ATOM     17  N   UNL     1       8.020  -3.874   0.214  0.00  0.00    -0.187 NA
ATOM     18  C   UNL     1       9.307  -3.940   0.357  0.00  0.00    +0.138 C 
BRANCH  18  19
ATOM     19  C   UNL     1      10.124  -4.652  -0.643  0.00  0.00    -0.005 A 
ATOM     20  C   UNL     1       9.515  -5.252  -1.748  0.00  0.00    +0.010 A 
ATOM     21  C   UNL     1      10.286  -5.917  -2.680  0.00  0.00    +0.013 A 
ATOM     22  C   UNL     1      11.658  -5.990  -2.522  0.00  0.00    +0.055 A 
ATOM     23  C   UNL     1      12.268  -5.398  -1.430  0.00  0.00    +0.013 A 
ATOM     24  C   UNL     1      11.511  -4.726  -0.493  0.00  0.00    +0.010 A 
BRANCH  22  25
ATOM     25  C   UNL     1      12.493  -6.718  -3.544  0.00  0.00    +0.417 C 
ATOM     26  F   UNL     1      12.889  -5.824  -4.544  0.00  0.00    -0.166 F 
ATOM     27  F   UNL     1      13.625  -7.256  -2.923  0.00  0.00    -0.166 F 
ATOM     28  F   UNL     1      11.738  -7.750  -4.113  0.00  0.00    -0.166 F 
ENDBRANCH  22  25
ENDBRANCH  18  19
ENDBRANCH   5  17
BRANCH   4  29
ATOM     29  S   UNL     1       8.825  -1.149   1.949  0.00  0.00    -0.130 S 
ATOM     30  H   UNL     1       9.128  -0.585   3.131  0.00  0.00    +0.105 HD
ENDBRANCH   4  29
TORSDOF 6
