REMARK  Name = ZINC02418831
REMARK  13 active torsions:
REMARK  status: ('A' for Active; 'I' for Inactive)
REMARK    1  A    between atoms: C_1  and  C_2
REMARK    2  A    between atoms: C_2  and  C_3
REMARK    3  A    between atoms: C_3  and  C_4
REMARK    4  A    between atoms: C_10  and  N_16
REMARK    5  A    between atoms: C_12  and  S_14
REMARK    6  A    between atoms: S_14  and  C_15
REMARK    7  A    between atoms: N_16  and  C_17
REMARK    8  A    between atoms: C_17  and  C_18
REMARK    9  A    between atoms: C_18  and  N_60
REMARK   10  A    between atoms: C_19  and  C_20
REMARK   11  A    between atoms: C_19  and  N_60
REMARK   12  A    between atoms: C_21  and  C_22
REMARK   13  A    between atoms: C_21  and  N_60
REMARK                            x       y       z     vdW  Elec       q    Type
REMARK                         _______ _______ _______ _____ _____    ______ ____
ROOT
ATOM      1  C   UNL     1       0.182   7.967   5.814  0.00  0.00    +0.046 A 
ATOM      2  C   UNL     1      -0.070   6.655   6.193  0.00  0.00    -0.022 A 
ATOM      3  C   UNL     1       0.061   5.639   5.274  0.00  0.00    -0.031 A 
ATOM      4  C   UNL     1       0.451   5.947   3.952  0.00  0.00    +0.037 A 
ATOM      5  C   UNL     1       0.647   5.012   2.828  0.00  0.00    +0.094 A 
ATOM      6  C   UNL     1       1.036   5.588   1.614  0.00  0.00    +0.080 A 
ATOM      7  C   UNL     1       1.249   4.806   0.486  0.00  0.00    +0.138 A 
ATOM      8  N   UNL     1       1.078   3.489   0.586  0.00  0.00    -0.206 NA
ATOM      9  C   UNL     1       0.704   2.955   1.742  0.00  0.00    +0.190 A 
ATOM     10  N   UNL     1       0.495   3.668   2.829  0.00  0.00    -0.221 NA
ATOM     11  S   UNL     1       1.141   7.324   1.954  0.00  0.00    -0.064 S 
ATOM     12  C   UNL     1       0.681   7.305   3.669  0.00  0.00    +0.111 A 
ATOM     13  N   UNL     1       0.546   8.248   4.578  0.00  0.00    -0.244 NA
ATOM     14  C   UNL     1      -0.264   4.311   5.915  0.00  0.00    +0.036 C 
ATOM     15  C   UNL     1      -1.026   4.667   7.210  0.00  0.00    +0.009 C 
ATOM     16  C   UNL     1      -0.494   6.081   7.529  0.00  0.00    +0.037 C 
ENDROOT
BRANCH   9  17
ATOM     17  S   UNL     1       0.485   1.209   1.829  0.00  0.00    -0.089 S 
ATOM     18  C   UNL     1       0.889   0.756   0.123  0.00  0.00    +0.093 C 
ENDBRANCH   9  17
BRANCH   7  19
ATOM     19  N   UNL     1       1.634   5.382  -0.714  0.00  0.00    -0.330 N 
ATOM     20  H   UNL     1       1.758   6.343  -0.774  0.00  0.00    +0.147 HD
BRANCH  19  21
ATOM     21  C   UNL     1       1.854   4.541  -1.893  0.00  0.00    +0.084 C 
BRANCH  21  22
ATOM     22  C   UNL     1       2.268   5.419  -3.076  0.00  0.00    -0.060 C 
BRANCH  22  23
ATOM     23  N   UNL     1       2.506   4.555  -4.251  0.00  0.00    +0.380 N 
ATOM     24  H   UNL     1       3.152   3.802  -3.986  0.00  0.00    -0.082 HD
BRANCH  23  25
ATOM     25  C   UNL     1       1.233   3.957  -4.705  0.00  0.00    -0.082 C 
ATOM     26  C   UNL     1       0.233   5.050  -5.087  0.00  0.00    -0.017 C 
ENDBRANCH  23  25
BRANCH  23  27
ATOM     27  C   UNL     1       3.112   5.344  -5.344  0.00  0.00    -0.082 C 
ATOM     28  C   UNL     1       3.679   4.381  -6.389  0.00  0.00    -0.017 C 
ENDBRANCH  23  27
ENDBRANCH  22  23
ENDBRANCH  21  22
ENDBRANCH  19  21
ENDBRANCH   7  19
BRANCH   1  29
ATOM     29  C   UNL     1       0.039   9.077   6.822  0.00  0.00    +0.055 C 
BRANCH  29  31
ATOM     30  C   UNL     1       1.231  10.422   8.558  0.00  0.00    +0.004 C 
ATOM     31  C   UNL     1       1.376   9.295   7.534  0.00  0.00    +0.003 C 
ENDBRANCH  29  31
ENDBRANCH   1  29
TORSDOF 9
