REMARK  Name = ZINC64416387
REMARK  10 active torsions:
REMARK  status: ('A' for Active; 'I' for Inactive)
REMARK    1  A    between atoms: C_1  and  C_2
REMARK    2  A    between atoms: C_2  and  N_21
REMARK    3  A    between atoms: C_4  and  C_16
REMARK    4  A    between atoms: N_6  and  C_9
REMARK    5  A    between atoms: C_16  and  C_17
REMARK    6  A    between atoms: C_17  and  O_19
REMARK    7  A    between atoms: O_19  and  C_20
REMARK    8  A    between atoms: N_21  and  C_22
REMARK    9  A    between atoms: C_22  and  C_23
REMARK   10  A    between atoms: C_23  and  C_24
REMARK                            x       y       z     vdW  Elec       q    Type
REMARK                         _______ _______ _______ _____ _____    ______ ____
ROOT
ATOM      1  C   UNL     1      -0.005   1.503   0.009  0.00  0.00    +0.061 C 
ATOM      2  C   UNL     1      -0.001  -0.004   0.002  0.00  0.00    +0.015 C 
ATOM      3  C   UNL     1       0.126  -0.701   1.192  0.00  0.00    +0.079 C 
ATOM      4  C   UNL     1       0.144  -0.150   2.555  0.00  0.00    +0.084 C 
ATOM      5  N   UNL     1       0.280  -1.145   3.378  0.00  0.00    -0.176 NA
ATOM      6  N   UNL     1       0.360  -2.360   2.696  0.00  0.00    -0.156 N 
ATOM      7  C   UNL     1       0.266  -2.152   1.367  0.00  0.00    +0.274 C 
ATOM      8  O   UNL     1       0.294  -2.998   0.489  0.00  0.00    -0.268 OA
ENDROOT
BRANCH   6   9
ATOM      9  C   UNL     1       0.510  -3.613   3.305  0.00  0.00    +0.061 A 
ATOM     10  C   UNL     1       0.584  -4.760   2.525  0.00  0.00    +0.028 A 
ATOM     11  C   UNL     1       0.732  -5.994   3.127  0.00  0.00    +0.040 A 
ATOM     12  C   UNL     1       0.805  -6.089   4.506  0.00  0.00    +0.124 A 
ATOM     13  C   UNL     1       0.731  -4.946   5.286  0.00  0.00    +0.040 A 
ATOM     14  C   UNL     1       0.590  -3.709   4.688  0.00  0.00    +0.028 A 
ATOM     15  F   UNL     1       0.949  -7.297   5.093  0.00  0.00    -0.205 F 
ENDBRANCH   6   9
BRANCH   2  16
ATOM     16  N   UNL     1      -0.121  -0.674  -1.162  0.00  0.00    -0.346 N 
ATOM     17  H   UNL     1      -0.118  -1.644  -1.166  0.00  0.00    +0.146 HD
BRANCH  16  18
ATOM     18  C   UNL     1      -0.255   0.064  -2.421  0.00  0.00    +0.105 C 
BRANCH  18  19
ATOM     19  C   UNL     1      -0.373  -0.926  -3.582  0.00  0.00    +0.052 C 
BRANCH  19  20
ATOM     20  C   UNL     1      -0.511  -0.167  -4.877  0.00  0.00    -0.040 C 
ATOM     21  C   UNL     1       0.479   0.159  -5.737  0.00  0.00    -0.001 A 
ATOM     22  C   UNL     1       1.927  -0.084  -5.726  0.00  0.00    +0.010 A 
ATOM     23  C   UNL     1       2.678   0.377  -6.752  0.00  0.00    +0.001 A 
ATOM     24  C   UNL     1       2.110   1.079  -7.823  0.00  0.00    +0.002 A 
ATOM     25  C   UNL     1       0.788   1.341  -7.905  0.00  0.00    +0.026 A 
ATOM     26  C   UNL     1      -0.096   0.903  -6.880  0.00  0.00    +0.043 A 
ATOM     27  N   UNL     1      -1.392   1.031  -6.732  0.00  0.00    -0.380 N 
ATOM     28  C   UNL     1      -1.787   0.377  -5.480  0.00  0.00    +0.144 C 
ATOM     29  H   UNL     1      -1.991   1.480  -7.350  0.00  0.00    +0.160 HD
ENDBRANCH  19  20
ENDBRANCH  18  19
ENDBRANCH  16  18
ENDBRANCH   2  16
BRANCH   4  30
ATOM     30  C   UNL     1       0.026   1.305   2.929  0.00  0.00    +0.178 C 
BRANCH  30  31
ATOM     31  C   UNL     1       0.210   1.457   4.417  0.00  0.00    +0.313 C 
ATOM     32  O   UNL     1       0.417   0.484   5.103  0.00  0.00    -0.250 OA
BRANCH  31  33
ATOM     33  O   UNL     1       0.146   2.674   4.980  0.00  0.00    -0.468 OA
ATOM     34  C   UNL     1       0.330   2.745   6.395  0.00  0.00    +0.280 C 
ENDBRANCH  31  33
ENDBRANCH  30  31
ENDBRANCH   4  30
TORSDOF 8
