REMARK  Name = ZINC50362041
REMARK  7 active torsions:
REMARK  status: ('A' for Active; 'I' for Inactive)
REMARK    1  A    between atoms: C_1  and  N_2
REMARK    2  A    between atoms: N_2  and  C_3
REMARK    3  A    between atoms: N_2  and  C_11
REMARK    4  A    between atoms: C_3  and  C_4
REMARK    5  A    between atoms: C_11  and  C_13
REMARK    6  A    between atoms: C_11  and  C_15
REMARK    7  A    between atoms: C_13  and  N_14
REMARK                            x       y       z     vdW  Elec       q    Type
REMARK                         _______ _______ _______ _____ _____    ______ ____
ROOT
ATOM      1  C   UNL     1       0.713  -0.646   1.151  0.00  0.00    -0.019 C 
ENDROOT
BRANCH   1   2
ATOM      2  C   UNL     1       2.081  -0.072   1.417  0.00  0.00    +0.092 A 
ATOM      3  C   UNL     1       2.592   0.215   2.627  0.00  0.00    +0.059 A 
ATOM      4  C   UNL     1       3.892   0.728   2.413  0.00  0.00    +0.070 A 
ATOM      5  C   UNL     1       4.098   0.723   1.082  0.00  0.00    +0.184 A 
ATOM      6  O   UNL     1       3.000   0.233   0.485  0.00  0.00    -0.454 OA
ATOM      7 BR   UNL     1       5.670   1.303   0.204  0.00  0.00    -0.007 Br
ATOM      8 BR   UNL     1       5.107   1.309   3.740  0.00  0.00    -0.046 Br
ENDBRANCH   1   2
BRANCH   1  10
ATOM      9  C   UNL     1       0.134   1.456   0.148  0.00  0.00    -0.095 C 
ATOM     10  N   UNL     1       0.135  -0.002  -0.036  0.00  0.00    +0.386 N 
ATOM     11  H   UNL     1       0.685  -0.238  -0.849  0.00  0.00    -0.081 HD
BRANCH  10  12
ATOM     12  C   UNL     1      -1.244  -0.472  -0.225  0.00  0.00    -0.041 C 
BRANCH  12  13
ATOM     13  C   UNL     1      -1.792   0.083  -1.515  0.00  0.00    -0.046 A 
ATOM     14  C   UNL     1      -2.620   1.189  -1.495  0.00  0.00    +0.003 A 
ATOM     15  C   UNL     1      -3.122   1.698  -2.678  0.00  0.00    +0.000 A 
ATOM     16  C   UNL     1      -2.796   1.101  -3.882  0.00  0.00    +0.001 A 
ATOM     17  C   UNL     1      -1.968  -0.005  -3.903  0.00  0.00    +0.020 A 
ATOM     18  C   UNL     1      -1.461  -0.512  -2.720  0.00  0.00    +0.042 A 
ATOM     19 CL   UNL     1      -0.415  -1.897  -2.746  0.00  0.00    -0.083 Cl
ENDBRANCH  12  13
ENDBRANCH  10  12
ENDBRANCH   1  10
BRANCH   1  20
ATOM     20  C   UNL     1       0.830  -2.152   0.908  0.00  0.00    -0.094 C 
BRANCH  20  21
ATOM     21  N   UNL     1       1.321  -2.807   2.128  0.00  0.00    +0.377 N 
ATOM     22  H   UNL     1       1.317  -3.808   1.997  0.00  0.00    -0.090 HD
ATOM     23  H   UNL     1       2.262  -2.498   2.320  0.00  0.00    -0.090 HD
ATOM     24  H   UNL     1       0.723  -2.567   2.904  0.00  0.00    -0.090 HD
ENDBRANCH  20  21
ENDBRANCH   1  20
TORSDOF 6
