REMARK  Name = ZINC01269972
REMARK  9 active torsions:
REMARK  status: ('A' for Active; 'I' for Inactive)
REMARK    1  A    between atoms: C_1  and  C_2
REMARK    2  A    between atoms: C_2  and  O_3
REMARK    3  A    between atoms: O_3  and  C_4
REMARK    4  A    between atoms: C_7  and  N_10
REMARK    5  A    between atoms: C_19  and  S_20
REMARK    6  A    between atoms: S_20  and  C_21
REMARK    7  A    between atoms: C_21  and  C_22
REMARK    8  A    between atoms: N_24  and  C_25
REMARK    9  A    between atoms: N_33  and  C_36
REMARK                            x       y       z     vdW  Elec       q    Type
REMARK                         _______ _______ _______ _____ _____    ______ ____
ROOT
ATOM      1  N   UNL     1      -1.983  -6.008   0.090  0.00  0.00    -0.255 N 
ATOM      2  C   UNL     1      -3.220  -6.529   0.184  0.00  0.00    +0.268 A 
ATOM      3  O   UNL     1      -4.189  -5.800   0.309  0.00  0.00    -0.267 OA
ATOM      4  C   UNL     1      -3.383  -7.949   0.136  0.00  0.00    +0.076 A 
ATOM      5  C   UNL     1      -4.619  -8.725   0.221  0.00  0.00    -0.020 A 
ATOM      6  C   UNL     1      -4.507 -10.069   0.151  0.00  0.00    +0.010 A 
ATOM      7  S   UNL     1      -2.773 -10.377  -0.031  0.00  0.00    -0.072 S 
ATOM      8  C   UNL     1      -2.200  -8.696  -0.010  0.00  0.00    +0.117 A 
ATOM      9  N   UNL     1      -1.008  -8.120  -0.098  0.00  0.00    -0.215 NA
ATOM     10  C   UNL     1      -0.886  -6.809  -0.056  0.00  0.00    +0.178 A 
ATOM     11  C   UNL     1      -5.625 -11.063   0.217  0.00  0.00    +0.126 C 
ATOM     12  N   UNL     1      -6.826 -10.373   0.726  0.00  0.00    -0.300 NA
ATOM     13  C   UNL     1      -7.053  -9.121  -0.008  0.00  0.00    +0.089 C 
ATOM     14  C   UNL     1      -5.995  -8.085   0.380  0.00  0.00    +0.052 C 
ATOM     15  C   UNL     1      -8.005 -11.247   0.655  0.00  0.00    +0.105 C 
ENDROOT
BRANCH   1  19
ATOM     16  C   UNL     1      -1.489  -1.868   0.228  0.00  0.00    +0.121 A 
ATOM     17  C   UNL     1      -1.886  -2.557   1.365  0.00  0.00    +0.047 A 
ATOM     18  C   UNL     1      -2.050  -3.928   1.320  0.00  0.00    +0.030 A 
ATOM     19  C   UNL     1      -1.817  -4.616   0.136  0.00  0.00    +0.052 A 
ATOM     20  C   UNL     1      -1.420  -3.925  -1.001  0.00  0.00    +0.030 A 
ATOM     21  C   UNL     1      -1.262  -2.554  -0.956  0.00  0.00    +0.047 A 
BRANCH  16  22
ATOM     22  O   UNL     1      -1.328  -0.519   0.273  0.00  0.00    -0.492 OA
BRANCH  22  24
ATOM     23  C   UNL     1      -1.347   1.629   1.382  0.00  0.00    +0.048 C 
ATOM     24  C   UNL     1      -1.578   0.123   1.525  0.00  0.00    +0.225 C 
ENDBRANCH  22  24
ENDBRANCH  16  22
ENDBRANCH   1  19
BRANCH  10  25
ATOM     25  S   UNL     1       0.713  -6.079  -0.182  0.00  0.00    -0.078 S 
BRANCH  25  26
ATOM     26  C   UNL     1       1.830  -7.498  -0.357  0.00  0.00    +0.173 C 
BRANCH  26  27
ATOM     27  C   UNL     1       3.250  -7.007  -0.477  0.00  0.00    +0.227 C 
ATOM     28  O   UNL     1       3.486  -5.818  -0.446  0.00  0.00    -0.275 OA
ATOM     29  N   UNL     1       4.259  -7.891  -0.617  0.00  0.00    -0.285 N 
ATOM     30  H   UNL     1       4.065  -8.836  -0.712  0.00  0.00    +0.155 HD
BRANCH  29  31
ATOM     31  C   UNL     1       5.585  -7.443  -0.626  0.00  0.00    +0.033 A 
ATOM     32  C   UNL     1       6.532  -8.090  -1.408  0.00  0.00    +0.024 A 
ATOM     33  C   UNL     1       7.840  -7.646  -1.415  0.00  0.00    +0.017 A 
ATOM     34  C   UNL     1       8.206  -6.557  -0.644  0.00  0.00    +0.018 A 
ATOM     35  C   UNL     1       7.264  -5.911   0.136  0.00  0.00    +0.017 A 
ATOM     36  C   UNL     1       5.954  -6.347   0.143  0.00  0.00    +0.024 A 
ATOM     37 BR   UNL     1       9.998  -5.953  -0.656  0.00  0.00    -0.050 Br
ENDBRANCH  29  31
ENDBRANCH  26  27
ENDBRANCH  25  26
ENDBRANCH  10  25
TORSDOF 7
