REMARK  Name = ZINC18255242
REMARK  10 active torsions:
REMARK  status: ('A' for Active; 'I' for Inactive)
REMARK    1  A    between atoms: C_1  and  C_2
REMARK    2  A    between atoms: C_2  and  O_3
REMARK    3  A    between atoms: O_3  and  C_4
REMARK    4  A    between atoms: C_4  and  C_6
REMARK    5  A    between atoms: C_7  and  C_28
REMARK    6  A    between atoms: C_8  and  C_24
REMARK    7  A    between atoms: C_10  and  N_11
REMARK    8  A    between atoms: C_12  and  C_14
REMARK    9  A    between atoms: C_15  and  C_23
REMARK   10  A    between atoms: N_26  and  C_27
REMARK                            x       y       z     vdW  Elec       q    Type
REMARK                         _______ _______ _______ _____ _____    ______ ____
ROOT
ATOM      1  C   UNL     1       0.837  -2.209  -0.017  0.00  0.00    +0.091 A 
ATOM      2  C   UNL     1       1.082  -0.844  -0.013  0.00  0.00    -0.015 A 
ATOM      3  C   UNL     1       0.002  -0.004   0.002  0.00  0.00    +0.079 A 
ATOM      4  S   UNL     1      -1.375  -1.136   0.017  0.00  0.00    -0.068 S 
ATOM      5  C   UNL     1      -0.497  -2.630  -0.006  0.00  0.00    +0.087 A 
ATOM      6  C   UNL     1       2.489  -0.304  -0.025  0.00  0.00    +0.046 C 
ENDROOT
BRANCH   3   7
ATOM      7  C   UNL     1      -0.018   1.460   0.010  0.00  0.00    +0.251 C 
ATOM      8  O   UNL     1       1.028   2.083   0.003  0.00  0.00    -0.270 OA
ATOM      9  N   UNL     1      -1.194   2.118   0.019  0.00  0.00    -0.314 N 
ATOM     10  C   UNL     1      -1.214   3.583   0.027  0.00  0.00    +0.128 C 
ATOM     11  H   UNL     1      -2.027   1.622   0.021  0.00  0.00    +0.149 HD
ENDBRANCH   3   7
BRANCH   5  12
ATOM     12  N   UNL     1      -0.992  -3.918  -0.007  0.00  0.00    -0.273 N 
ATOM     13  C   UNL     1      -2.323  -4.129   0.005  0.00  0.00    +0.284 C 
ATOM     14  O   UNL     1      -3.088  -3.183   0.017  0.00  0.00    -0.266 OA
ATOM     15  H   UNL     1      -0.382  -4.672  -0.016  0.00  0.00    +0.156 HD
BRANCH  13  16
ATOM     16  C   UNL     1      -2.850  -5.500   0.004  0.00  0.00    +0.194 A 
ATOM     17  C   UNL     1      -4.167  -5.831   0.016  0.00  0.00    +0.008 A 
ATOM     18  C   UNL     1      -4.217  -7.293   0.010  0.00  0.00    +0.024 A 
ATOM     19  C   UNL     1      -5.252  -8.232   0.015  0.00  0.00    +0.012 A 
ATOM     20  C   UNL     1      -4.955  -9.566   0.007  0.00  0.00    +0.001 A 
ATOM     21  C   UNL     1      -3.635  -9.993  -0.008  0.00  0.00    +0.004 A 
ATOM     22  C   UNL     1      -2.600  -9.083  -0.014  0.00  0.00    +0.047 A 
ATOM     23  C   UNL     1      -2.876  -7.720  -0.005  0.00  0.00    +0.136 A 
ATOM     24  O   UNL     1      -2.098  -6.620  -0.014  0.00  0.00    -0.450 OA
ATOM     25  C   UNL     1      -5.340  -4.885   0.032  0.00  0.00    +0.048 C 
ENDBRANCH  13  16
ENDBRANCH   5  12
BRANCH   1  26
ATOM     26  C   UNL     1       1.939  -3.177  -0.032  0.00  0.00    +0.342 C 
ATOM     27  O   UNL     1       2.406  -3.584   1.014  0.00  0.00    -0.245 OA
BRANCH  26  28
ATOM     28  O   UNL     1       2.434  -3.617  -1.207  0.00  0.00    -0.461 OA
BRANCH  28  30
ATOM     29  C   UNL     1       3.949  -4.954  -2.566  0.00  0.00    +0.048 C 
ATOM     30  C   UNL     1       3.524  -4.575  -1.146  0.00  0.00    +0.229 C 
ENDBRANCH  28  30
ENDBRANCH  26  28
ENDBRANCH   1  26
TORSDOF 6
