REMARK  Name = ZINC36476237
REMARK  6 active torsions:
REMARK  status: ('A' for Active; 'I' for Inactive)
REMARK    1  A    between atoms: C_1  and  O_2
REMARK    2  A    between atoms: O_2  and  N_3
REMARK    3  A    between atoms: C_4  and  C_5
REMARK    4  A    between atoms: C_4  and  C_19
REMARK    5  A    between atoms: C_5  and  C_6
REMARK    6  A    between atoms: C_6  and  N_7
REMARK                            x       y       z     vdW  Elec       q    Type
REMARK                         _______ _______ _______ _____ _____    ______ ____
ROOT
ATOM      1  C   UNL     1       2.208  -1.331   3.128  0.00  0.00    +0.091 C 
ENDROOT
BRANCH   1   2
ATOM      2  N   UNL     1       3.003  -1.888   4.231  0.00  0.00    -0.299 NA
ATOM      3  C   UNL     1       4.187  -2.594   3.721  0.00  0.00    +0.103 C 
ATOM      4  C   UNL     1       4.887  -3.311   4.880  0.00  0.00    +0.122 C 
ATOM      5  N   UNL     1       5.157  -2.330   5.942  0.00  0.00    -0.314 N 
ATOM      6  C   UNL     1       4.046  -1.487   6.410  0.00  0.00    +0.122 C 
ATOM      7  C   UNL     1       3.378  -0.842   5.190  0.00  0.00    +0.103 C 
ATOM      8  C   UNL     1       6.428  -2.202   6.489  0.00  0.00    +0.099 A 
ATOM      9  C   UNL     1       6.627  -1.366   7.584  0.00  0.00    +0.042 A 
ATOM     10  C   UNL     1       7.897  -1.248   8.118  0.00  0.00    +0.005 A 
ATOM     11  C   UNL     1       8.930  -1.973   7.538  0.00  0.00    +0.018 A 
ATOM     12  C   UNL     1       8.662  -2.784   6.454  0.00  0.00    +0.084 A 
ATOM     13  N   UNL     1       7.438  -2.881   5.968  0.00  0.00    -0.350 N 
ATOM     14  H   UNL     1       7.276  -3.461   5.208  0.00  0.00    +0.166 HD
ENDBRANCH   1   2
BRANCH   1  15
ATOM     15  C   UNL     1       1.628  -2.472   2.290  0.00  0.00    +0.074 C 
BRANCH  15  17
ATOM     16  N   UNL     1       0.698  -0.619   1.027  0.00  0.00    -0.089 NA
ATOM     17  C   UNL     1       0.812  -1.901   1.159  0.00  0.00    +0.088 C 
BRANCH  17  18
ATOM     18  C   UNL     1       0.144  -2.803   0.201  0.00  0.00    +0.001 A 
ATOM     19  C   UNL     1       0.060  -2.456  -1.149  0.00  0.00    +0.011 A 
ATOM     20  C   UNL     1      -0.565  -3.303  -2.039  0.00  0.00    +0.022 A 
ATOM     21  C   UNL     1      -1.111  -4.497  -1.597  0.00  0.00    +0.059 A 
ATOM     22  C   UNL     1      -1.032  -4.848  -0.259  0.00  0.00    +0.060 A 
ATOM     23  C   UNL     1      -0.402  -4.011   0.640  0.00  0.00    +0.031 A 
ATOM     24 CL   UNL     1      -1.718  -6.346   0.286  0.00  0.00    -0.082 Cl
ATOM     25 CL   UNL     1      -1.898  -5.557  -2.724  0.00  0.00    -0.082 Cl
ENDBRANCH  17  18
BRANCH  16  27
ATOM     26  C   UNL     1      -0.203   1.346   0.017  0.00  0.00    +0.313 C 
ATOM     27  O   UNL     1      -0.177  -0.083   0.052  0.00  0.00    -0.397 OA
ENDBRANCH  16  27
ENDBRANCH  15  17
ENDBRANCH   1  15
TORSDOF 5
