REMARK  Name = ZINC15276040
REMARK  3 active torsions:
REMARK  status: ('A' for Active; 'I' for Inactive)
REMARK    1  A    between atoms: C_1  and  C_2
REMARK    2  A    between atoms: N_10  and  C_13
REMARK    3  A    between atoms: C_13  and  C_14
REMARK                            x       y       z     vdW  Elec       q    Type
REMARK                         _______ _______ _______ _____ _____    ______ ____
ROOT
ATOM      1  C   UNL     1      -0.019   1.526   0.010  0.00  0.00    +0.025 C 
ATOM      2  C   UNL     1       0.002  -0.004   0.002  0.00  0.00    +0.064 C 
ATOM      3  C   UNL     1       0.779  -0.535  -1.199  0.00  0.00    +0.107 C 
ATOM      4  C   UNL     1       0.956  -2.014  -0.692  0.00  0.00    +0.122 C 
ATOM      5  C   UNL     1       1.338  -2.704  -1.900  0.00  0.00    +0.229 C 
ATOM      6  O   UNL     1       2.081  -3.656  -2.003  0.00  0.00    -0.275 OA
ATOM      7  N   UNL     1       0.674  -2.046  -2.908  0.00  0.00    -0.237 N 
ATOM      8  C   UNL     1       0.095  -0.863  -2.488  0.00  0.00    +0.227 C 
ATOM      9  O   UNL     1      -0.782  -0.228  -3.035  0.00  0.00    -0.275 OA
ATOM     10  C   UNL     1       1.268  -1.912   0.730  0.00  0.00    +0.136 C 
ATOM     11  N   UNL     1       0.820  -0.540   1.147  0.00  0.00    -0.296 NA
ATOM     12  C   UNL     1       0.569  -2.927   1.600  0.00  0.00    +0.004 A 
ATOM     13  C   UNL     1      -0.754  -3.271   1.765  0.00  0.00    +0.023 A 
ATOM     14  C   UNL     1      -1.102  -4.268   2.660  0.00  0.00    +0.018 A 
ATOM     15  C   UNL     1      -0.118  -4.915   3.386  0.00  0.00    +0.017 A 
ATOM     16  C   UNL     1       1.208  -4.573   3.222  0.00  0.00    +0.025 A 
ATOM     17  C   UNL     1       1.566  -3.571   2.323  0.00  0.00    +0.039 A 
ATOM     18  N   UNL     1       2.818  -3.054   1.985  0.00  0.00    -0.283 N 
ATOM     19  C   UNL     1       2.733  -2.081   1.060  0.00  0.00    +0.243 C 
ATOM     20  O   UNL     1       3.657  -1.458   0.582  0.00  0.00    -0.273 OA
ATOM     21 BR   UNL     1      -2.918  -4.743   2.891  0.00  0.00    -0.050 Br
ATOM     22  H   UNL     1       1.616   0.052   1.332  0.00  0.00    +0.123 HD
ATOM     23  H   UNL     1       3.653  -3.360   2.372  0.00  0.00    +0.155 HD
ENDROOT
BRANCH   7  24
ATOM     24  C   UNL     1       0.599  -2.536  -4.286  0.00  0.00    +0.151 C 
BRANCH  24  25
ATOM     25  C   UNL     1      -0.615  -3.415  -4.441  0.00  0.00    -0.030 A 
ATOM     26  C   UNL     1      -0.520  -4.773  -4.202  0.00  0.00    +0.005 A 
ATOM     27  C   UNL     1      -1.634  -5.580  -4.344  0.00  0.00    +0.000 A 
ATOM     28  C   UNL     1      -2.843  -5.028  -4.724  0.00  0.00    +0.000 A 
ATOM     29  C   UNL     1      -2.938  -3.669  -4.962  0.00  0.00    +0.000 A 
ATOM     30  C   UNL     1      -1.826  -2.862  -4.816  0.00  0.00    +0.005 A 
ENDBRANCH  24  25
ENDBRANCH   7  24
TORSDOF 2
