REMARK  Name = ZINC03247584
REMARK  8 active torsions:
REMARK  status: ('A' for Active; 'I' for Inactive)
REMARK    1  A    between atoms: C_4  and  C_7
REMARK    2  A    between atoms: C_7  and  N_8
REMARK    3  A    between atoms: C_9  and  N_39
REMARK    4  A    between atoms: C_10  and  C_17
REMARK    5  A    between atoms: C_17  and  C_19
REMARK    6  A    between atoms: C_19  and  S_20
REMARK    7  A    between atoms: S_20  and  C_21
REMARK    8  A    between atoms: N_31  and  C_32
REMARK                            x       y       z     vdW  Elec       q    Type
REMARK                         _______ _______ _______ _____ _____    ______ ____
ROOT
ATOM      1  C   UNL     1       5.928   0.470   3.161  0.00  0.00    +0.182 C 
ATOM      2  O   UNL     1       6.163   1.512   2.581  0.00  0.00    -0.291 OA
ENDROOT
BRANCH   1   5
ATOM      3  N   UNL     1       3.950  -1.367   0.652  0.00  0.00    -0.277 N 
ATOM      4  C   UNL     1       4.715  -0.382   1.208  0.00  0.00    +0.116 A 
ATOM      5  C   UNL     1       5.136  -0.520   2.542  0.00  0.00    +0.120 A 
ATOM      6  C   UNL     1       4.725  -1.727   3.270  0.00  0.00    +0.266 A 
ATOM      7  O   UNL     1       5.060  -1.898   4.428  0.00  0.00    -0.267 OA
ATOM      8  N   UNL     1       3.968  -2.641   2.630  0.00  0.00    -0.274 N 
ATOM      9  H   UNL     1       3.689  -3.444   3.098  0.00  0.00    +0.173 HD
ATOM     10  C   UNL     1       3.592  -2.453   1.355  0.00  0.00    +0.331 A 
ATOM     11  O   UNL     1       2.906  -3.299   0.815  0.00  0.00    -0.246 OA
BRANCH   4  12
ATOM     12  N   UNL     1       5.065   0.714   0.482  0.00  0.00    -0.344 N 
ATOM     13  H   UNL     1       4.844   0.762  -0.462  0.00  0.00    +0.144 HD
ATOM     14  H   UNL     1       5.535   1.448   0.908  0.00  0.00    +0.144 HD
ENDBRANCH   4  12
BRANCH   3  15
ATOM     15  C   UNL     1       3.506  -1.233  -0.738  0.00  0.00    +0.163 C 
BRANCH  15  19
ATOM     16  C   UNL     1      -0.250   0.800  -0.845  0.00  0.00    +0.000 A 
ATOM     17  C   UNL     1       0.928   1.520  -0.907  0.00  0.00    +0.000 A 
ATOM     18  C   UNL     1       2.143   0.863  -0.873  0.00  0.00    +0.005 A 
ATOM     19  C   UNL     1       2.181  -0.516  -0.775  0.00  0.00    -0.028 A 
ATOM     20  C   UNL     1       1.003  -1.236  -0.711  0.00  0.00    +0.005 A 
ATOM     21  C   UNL     1      -0.212  -0.579  -0.748  0.00  0.00    +0.000 A 
ENDBRANCH  15  19
ENDBRANCH   3  15
ENDBRANCH   1   5
BRANCH   1  22
ATOM     22  C   UNL     1       6.484   0.236   4.542  0.00  0.00    +0.157 C 
BRANCH  22  23
ATOM     23  S   UNL     1       7.452   1.681   5.058  0.00  0.00    -0.079 S 
BRANCH  23  24
ATOM     24  C   UNL     1       8.025   1.256   6.669  0.00  0.00    +0.177 A 
ATOM     25  N   UNL     1       7.693   0.089   7.164  0.00  0.00    -0.223 NA
ATOM     26  C   UNL     1       8.097  -0.300   8.389  0.00  0.00    +0.079 A 
ATOM     27  C   UNL     1       7.743  -1.546   8.916  0.00  0.00    +0.028 A 
ATOM     28  C   UNL     1       8.175  -1.900  10.163  0.00  0.00    +0.002 A 
ATOM     29  C   UNL     1       8.963  -1.041  10.918  0.00  0.00    +0.001 A 
ATOM     30  C   UNL     1       9.326   0.184  10.430  0.00  0.00    +0.015 A 
ATOM     31  C   UNL     1       8.899   0.572   9.161  0.00  0.00    +0.065 A 
ATOM     32  C   UNL     1       9.258   1.875   8.586  0.00  0.00    +0.267 A 
ATOM     33  O   UNL     1       9.946   2.669   9.202  0.00  0.00    -0.267 OA
ATOM     34  N   UNL     1       8.801   2.158   7.344  0.00  0.00    -0.255 N 
BRANCH  34  35
ATOM     35  C   UNL     1       9.120   3.386   6.748  0.00  0.00    +0.052 A 
ATOM     36  C   UNL     1       8.123   4.324   6.513  0.00  0.00    +0.028 A 
ATOM     37  C   UNL     1       8.440   5.533   5.925  0.00  0.00    +0.022 A 
ATOM     38  C   UNL     1       9.749   5.810   5.571  0.00  0.00    +0.041 A 
ATOM     39  C   UNL     1      10.744   4.876   5.805  0.00  0.00    +0.022 A 
ATOM     40  C   UNL     1      10.433   3.668   6.397  0.00  0.00    +0.028 A 
ATOM     41 CL   UNL     1      10.144   7.330   4.833  0.00  0.00    -0.084 Cl
ENDBRANCH  34  35
ENDBRANCH  23  24
ENDBRANCH  22  23
ENDBRANCH   1  22
TORSDOF 8
