REMARK  Name = ZINC35888462
REMARK  12 active torsions:
REMARK  status: ('A' for Active; 'I' for Inactive)
REMARK    1  A    between atoms: C_1  and  C_2
REMARK    2  A    between atoms: C_5  and  C_8
REMARK    3  A    between atoms: N_11  and  C_28
REMARK    4  A    between atoms: C_13  and  C_15
REMARK    5  A    between atoms: C_15  and  N_16
REMARK    6  A    between atoms: N_16  and  C_17
REMARK    7  A    between atoms: C_17  and  C_18
REMARK    8  A    between atoms: C_25  and  C_27
REMARK    9  A    between atoms: C_28  and  C_29
REMARK   10  A    between atoms: C_32  and  N_35
REMARK   11  A    between atoms: N_35  and  C_36
REMARK   12  A    between atoms: N_35  and  C_37
REMARK                            x       y       z     vdW  Elec       q    Type
REMARK                         _______ _______ _______ _____ _____    ______ ____
ROOT
ATOM      1  C   UNL     1      -0.261  -3.775   0.202  0.00  0.00    +0.005 C 
ATOM      2  C   UNL     1      -1.295  -4.416   1.153  0.00  0.00    -0.070 C 
ATOM      3  N   UNL     1      -0.698  -5.723   1.528  0.00  0.00    +0.383 N 
ATOM      4  C   UNL     1       0.747  -5.429   1.702  0.00  0.00    -0.073 C 
ATOM      5  C   UNL     1       1.084  -4.441   0.561  0.00  0.00    -0.005 C 
ATOM      6  H   UNL     1      -0.835  -6.398   0.790  0.00  0.00    -0.081 HD
ENDROOT
BRANCH   1  11
ATOM      7  C   UNL     1       0.020   1.927   1.095  0.00  0.00    +0.044 C 
ATOM      8  C   UNL     1      -0.053   0.440   0.862  0.00  0.00    -0.050 A 
ATOM      9  C   UNL     1      -0.081  -0.057  -0.427  0.00  0.00    +0.003 A 
ATOM     10  C   UNL     1      -0.148  -1.421  -0.641  0.00  0.00    +0.004 A 
ATOM     11  C   UNL     1      -0.187  -2.288   0.435  0.00  0.00    -0.046 A 
ATOM     12  C   UNL     1      -0.159  -1.791   1.724  0.00  0.00    +0.004 A 
ATOM     13  C   UNL     1      -0.087  -0.427   1.938  0.00  0.00    +0.003 A 
ENDBRANCH   1  11
BRANCH   5  14
ATOM     14  C   UNL     1       2.085  -3.390   1.045  0.00  0.00    +0.110 C 
BRANCH  14  15
ATOM     15  N   UNL     1       3.392  -4.019   1.250  0.00  0.00    -0.297 N 
ATOM     16  C   UNL     1       3.739  -4.468   2.473  0.00  0.00    +0.213 C 
ATOM     17  O   UNL     1       4.790  -5.053   2.628  0.00  0.00    -0.276 OA
ATOM     18  C   UNL     1       2.821  -4.245   3.646  0.00  0.00    +0.109 C 
BRANCH  15  19
ATOM     19  C   UNL     1       4.322  -4.160   0.127  0.00  0.00    +0.142 C 
BRANCH  19  20
ATOM     20  C   UNL     1       5.203  -2.940   0.048  0.00  0.00    -0.030 A 
ATOM     21  C   UNL     1       4.809  -1.851  -0.707  0.00  0.00    +0.008 A 
ATOM     22  C   UNL     1       5.616  -0.731  -0.779  0.00  0.00    +0.038 A 
ATOM     23  C   UNL     1       6.819  -0.700  -0.095  0.00  0.00    +0.123 A 
ATOM     24  C   UNL     1       7.213  -1.791   0.661  0.00  0.00    +0.038 A 
ATOM     25  C   UNL     1       6.402  -2.908   0.736  0.00  0.00    +0.008 A 
ATOM     26  F   UNL     1       7.609   0.394  -0.165  0.00  0.00    -0.205 F 
ENDBRANCH  19  20
ENDBRANCH  15  19
ENDBRANCH  14  15
ENDBRANCH   5  14
BRANCH   3  27
ATOM     27  C   UNL     1      -1.278  -6.210   2.787  0.00  0.00    -0.043 C 
BRANCH  27  28
ATOM     28  C   UNL     1      -2.736  -6.530   2.577  0.00  0.00    -0.064 A 
ATOM     29  C   UNL     1      -3.693  -5.552   2.777  0.00  0.00    +0.003 A 
ATOM     30  C   UNL     1      -5.029  -5.841   2.586  0.00  0.00    +0.023 A 
ATOM     31  C   UNL     1      -5.413  -7.117   2.193  0.00  0.00    +0.029 A 
ATOM     32  C   UNL     1      -4.449  -8.098   1.993  0.00  0.00    +0.023 A 
ATOM     33  C   UNL     1      -3.114  -7.800   2.180  0.00  0.00    +0.003 A 
BRANCH  31  34
ATOM     34  N   UNL     1      -6.764  -7.414   1.999  0.00  0.00    -0.336 N 
ATOM     35  C   UNL     1      -7.770  -6.355   2.113  0.00  0.00    +0.129 C 
ATOM     36  C   UNL     1      -7.175  -8.784   1.682  0.00  0.00    +0.129 C 
ENDBRANCH  31  34
ENDBRANCH  27  28
ENDBRANCH   3  27
TORSDOF 8
