REMARK  Name = ZINC02188775
REMARK  7 active torsions:
REMARK  status: ('A' for Active; 'I' for Inactive)
REMARK    1  A    between atoms: C_1  and  O_2
REMARK    2  A    between atoms: O_2  and  C_3
REMARK    3  A    between atoms: C_3  and  C_5
REMARK    4  A    between atoms: C_9  and  N_10
REMARK    5  A    between atoms: C_13  and  C_20
REMARK    6  A    between atoms: C_15  and  C_18
REMARK    7  A    between atoms: C_16  and  N_17
REMARK                            x       y       z     vdW  Elec       q    Type
REMARK                         _______ _______ _______ _____ _____    ______ ____
ROOT
ATOM      1  N   UNL     1      -1.850   6.935  -1.723  0.00  0.00    -0.254 N 
ATOM      2  C   UNL     1      -2.024   7.206  -3.056  0.00  0.00    +0.025 C 
ATOM      3  C   UNL     1      -1.878   8.462  -3.526  0.00  0.00    +0.025 C 
ATOM      4  C   UNL     1      -1.514   9.598  -2.604  0.00  0.00    +0.098 C 
ATOM      5  C   UNL     1      -1.775   9.238  -1.171  0.00  0.00    +0.077 C 
ATOM      6  C   UNL     1      -1.932   7.944  -0.788  0.00  0.00    +0.107 C 
ATOM      7  C   UNL     1      -2.055   8.750  -4.892  0.00  0.00    +0.162 C 
ATOM      8  O   UNL     1      -1.935   9.895  -5.280  0.00  0.00    -0.292 OA
ATOM      9  C   UNL     1      -2.392   7.667  -5.880  0.00  0.00    +0.080 C 
ATOM     10  C   UNL     1      -1.821   6.337  -5.374  0.00  0.00    +0.014 C 
ATOM     11  C   UNL     1      -2.386   6.067  -3.978  0.00  0.00    +0.052 C 
ENDROOT
BRANCH   1  16
ATOM     12  C   UNL     1      -2.505   4.656  -0.931  0.00  0.00    +0.091 A 
ATOM     13  C   UNL     1      -1.974   3.362  -0.540  0.00  0.00    -0.021 A 
ATOM     14  C   UNL     1      -0.628   3.253  -0.591  0.00  0.00    -0.004 A 
ATOM     15  S   UNL     1      -0.067   4.837  -1.148  0.00  0.00    -0.077 S 
ATOM     16  C   UNL     1      -1.596   5.634  -1.312  0.00  0.00    +0.092 A 
ATOM     17  C   UNL     1       0.194   2.050  -0.247  0.00  0.00    +0.043 C 
ATOM     18  C   UNL     1      -0.691   1.066   0.533  0.00  0.00    +0.005 C 
ATOM     19  C   UNL     1      -2.022   0.902  -0.207  0.00  0.00    +0.005 C 
ATOM     20  C   UNL     1      -2.840   2.189  -0.098  0.00  0.00    +0.037 C 
BRANCH  12  21
ATOM     21  C   UNL     1      -3.946   4.920  -0.924  0.00  0.00    +0.342 C 
ATOM     22  O   UNL     1      -4.622   4.635  -1.895  0.00  0.00    -0.245 OA
BRANCH  21  24
ATOM     23  C   UNL     1      -5.956   5.711   0.096  0.00  0.00    +0.280 C 
ATOM     24  O   UNL     1      -4.524   5.479   0.159  0.00  0.00    -0.464 OA
ENDBRANCH  21  24
ENDBRANCH  12  21
ENDBRANCH   1  16
BRANCH   4  25
ATOM     25  C   UNL     1      -0.052   9.922  -2.772  0.00  0.00    -0.028 A 
ATOM     26  C   UNL     1       0.344  11.181  -3.183  0.00  0.00    +0.012 A 
ATOM     27  C   UNL     1       1.667  11.440  -3.325  0.00  0.00    +0.045 A 
ATOM     28  S   UNL     1       2.400   9.877  -2.871  0.00  0.00    -0.105 S 
ATOM     29  C   UNL     1       0.894   8.986  -2.518  0.00  0.00    +0.049 A 
ENDBRANCH   4  25
BRANCH   6  30
ATOM     30  N   UNL     1      -2.168   7.639   0.532  0.00  0.00    -0.345 N 
ATOM     31  H   UNL     1      -2.191   6.713   0.819  0.00  0.00    +0.144 HD
ATOM     32  H   UNL     1      -2.311   8.351   1.175  0.00  0.00    +0.144 HD
ENDBRANCH   6  30
BRANCH   5  33
ATOM     33  C   UNL     1      -1.867  10.278  -0.190  0.00  0.00    +0.099 C 
ATOM     34  N   UNL     1      -1.939  11.102   0.588  0.00  0.00    -0.191 NA
ENDBRANCH   5  33
TORSDOF 6
