REMARK  Name = ZINC39966595
REMARK  9 active torsions:
REMARK  status: ('A' for Active; 'I' for Inactive)
REMARK    1  A    between atoms: C_1  and  C_2
REMARK    2  A    between atoms: C_9  and  N_13
REMARK    3  A    between atoms: C_10  and  C_11
REMARK    4  A    between atoms: C_14  and  C_16
REMARK    5  A    between atoms: C_16  and  S_17
REMARK    6  A    between atoms: S_17  and  C_18
REMARK    7  A    between atoms: C_21  and  C_26
REMARK    8  A    between atoms: N_22  and  C_23
REMARK    9  A    between atoms: C_23  and  C_24
REMARK                            x       y       z     vdW  Elec       q    Type
REMARK                         _______ _______ _______ _____ _____    ______ ____
ROOT
ATOM      1  S   UNL     1       3.318  -7.518   4.963  0.00  0.00    -0.077 S 
ENDROOT
BRANCH   1   2
ATOM      2  C   UNL     1       3.427  -9.200   5.477  0.00  0.00    +0.193 A 
ATOM      3  N   UNL     1       2.650 -10.184   5.089  0.00  0.00    -0.122 NA
ATOM      4  N   UNL     1       3.007 -11.280   5.659  0.00  0.00    -0.128 NA
ATOM      5  C   UNL     1       4.035 -11.062   6.445  0.00  0.00    +0.166 A 
ATOM      6  N   UNL     1       4.340  -9.724   6.349  0.00  0.00    -0.298 N 
BRANCH   5   7
ATOM      7  C   UNL     1       4.736 -12.066   7.273  0.00  0.00    +0.030 A 
ATOM      8  C   UNL     1       6.098 -12.140   7.255  0.00  0.00    +0.057 A 
ATOM      9  S   UNL     1       6.409 -13.477   8.396  0.00  0.00    -0.101 S 
ATOM     10  C   UNL     1       4.723 -13.835   8.819  0.00  0.00    -0.006 A 
ATOM     11  C   UNL     1       4.001 -12.949   8.090  0.00  0.00    -0.026 A 
ATOM     12  C   UNL     1       2.476 -12.917   8.133  0.00  0.00    +0.036 C 
ATOM     13  C   UNL     1       1.982 -13.458   9.470  0.00  0.00    +0.005 C 
ATOM     14  C   UNL     1       1.774 -14.969   9.398  0.00  0.00    +0.001 C 
ATOM     15  C   UNL     1       3.100 -15.668   9.115  0.00  0.00    +0.005 C 
ATOM     16  C   UNL     1       4.223 -14.869   9.775  0.00  0.00    +0.043 C 
ENDBRANCH   5   7
BRANCH   6  17
ATOM     17  C   UNL     1       5.417  -9.010   7.040  0.00  0.00    +0.152 C 
BRANCH  17  18
ATOM     18  C   UNL     1       4.948  -8.598   8.411  0.00  0.00    -0.013 C 
ATOM     19  C   UNL     1       5.633  -8.949   9.471  0.00  0.00    +0.005 C 
ENDBRANCH  17  18
ENDBRANCH   6  17
ENDBRANCH   1   2
BRANCH   1  20
ATOM     20  C   UNL     1       1.911  -7.499   3.818  0.00  0.00    +0.173 C 
BRANCH  20  22
ATOM     21  N   UNL     1       0.710  -5.844   2.427  0.00  0.00    -0.278 N 
ATOM     22  C   UNL     1       1.706  -6.099   3.298  0.00  0.00    +0.228 C 
ATOM     23  O   UNL     1       2.437  -5.203   3.663  0.00  0.00    -0.275 OA
ATOM     24  H   UNL     1       0.125  -6.560   2.135  0.00  0.00    +0.155 HD
BRANCH  21  32
ATOM     25  C   UNL     1       0.085   1.509  -0.085  0.00  0.00    +0.008 C 
ATOM     26  C   UNL     1       0.076  -0.021  -0.071  0.00  0.00    -0.009 C 
ATOM     27  C   UNL     1      -1.369  -0.525  -0.016  0.00  0.00    +0.008 C 
ATOM     28  C   UNL     1      -1.403  -2.037  -0.250  0.00  0.00    +0.037 C 
ATOM     29  C   UNL     1      -0.426  -2.701   0.709  0.00  0.00    -0.018 A 
ATOM     30  C   UNL     1       0.550  -1.992   1.319  0.00  0.00    -0.004 A 
ATOM     31  S   UNL     1       1.407  -3.177   2.315  0.00  0.00    -0.077 S 
ATOM     32  C   UNL     1       0.521  -4.555   1.947  0.00  0.00    +0.090 A 
ATOM     33  C   UNL     1      -0.441  -4.111   1.055  0.00  0.00    +0.084 A 
ATOM     34  C   UNL     1       0.830  -0.529   1.167  0.00  0.00    +0.046 C 
BRANCH  33  35
ATOM     35  C   UNL     1      -1.411  -5.005   0.498  0.00  0.00    +0.102 C 
ATOM     36  N   UNL     1      -2.180  -5.714   0.056  0.00  0.00    -0.191 NA
ENDBRANCH  33  35
ENDBRANCH  21  32
ENDBRANCH  20  22
ENDBRANCH   1  20
TORSDOF 8
