REMARK  Name = ZINC63126736
REMARK  11 active torsions:
REMARK  status: ('A' for Active; 'I' for Inactive)
REMARK    1  A    between atoms: C_1  and  C_2
REMARK    2  A    between atoms: C_2  and  C_4
REMARK    3  A    between atoms: C_2  and  O_7
REMARK    4  A    between atoms: O_7  and  C_8
REMARK    5  A    between atoms: C_8  and  C_10
REMARK    6  A    between atoms: C_10  and  C_12
REMARK    7  A    between atoms: C_10  and  N_22
REMARK    8  A    between atoms: C_12  and  C_13
REMARK    9  A    between atoms: C_23  and  O_25
REMARK   10  A    between atoms: O_25  and  C_26
REMARK   11  A    between atoms: C_26  and  C_27
REMARK                            x       y       z     vdW  Elec       q    Type
REMARK                         _______ _______ _______ _____ _____    ______ ____
ROOT
ATOM      1  C   UNL     1       0.551  -1.158  -3.540  0.00  0.00    +0.189 C 
ENDROOT
BRANCH   1   2
ATOM      2  N   UNL     1      -0.478  -1.305  -4.573  0.00  0.00    -0.268 N 
ATOM      3  C   UNL     1      -0.847  -0.241  -5.313  0.00  0.00    +0.401 C 
ATOM      4  O   UNL     1      -0.325   0.840  -5.124  0.00  0.00    -0.226 OA
ATOM      5  H   UNL     1      -0.894  -2.168  -4.724  0.00  0.00    +0.153 HD
BRANCH   3   6
ATOM      6  O   UNL     1      -1.792  -0.376  -6.262  0.00  0.00    -0.446 OA
BRANCH   6   7
ATOM      7  C   UNL     1      -2.133   0.794  -7.009  0.00  0.00    +0.269 C 
BRANCH   7   8
ATOM      8  C   UNL     1      -3.200   0.453  -8.017  0.00  0.00    -0.010 A 
ATOM      9  C   UNL     1      -2.844   0.024  -9.282  0.00  0.00    +0.007 A 
ATOM     10  C   UNL     1      -3.822  -0.289 -10.207  0.00  0.00    +0.000 A 
ATOM     11  C   UNL     1      -5.157  -0.173  -9.867  0.00  0.00    +0.000 A 
ATOM     12  C   UNL     1      -5.513   0.255  -8.601  0.00  0.00    +0.000 A 
ATOM     13  C   UNL     1      -4.535   0.563  -7.675  0.00  0.00    +0.007 A 
ENDBRANCH   7   8
ENDBRANCH   6   7
ENDBRANCH   3   6
ENDBRANCH   1   2
BRANCH   1  14
ATOM     14  C   UNL     1      -0.085  -0.672  -2.263  0.00  0.00    +0.329 C 
ATOM     15  O   UNL     1      -1.276  -0.469  -2.220  0.00  0.00    -0.249 OA
BRANCH  14  16
ATOM     16  O   UNL     1       0.671  -0.465  -1.174  0.00  0.00    -0.451 OA
BRANCH  16  18
ATOM     17  C   UNL     1      -0.019   1.526   0.010  0.00  0.00    +0.062 C 
ATOM     18  C   UNL     1       0.002  -0.004   0.002  0.00  0.00    +0.258 C 
BRANCH  18  19
ATOM     19  C   UNL     1       0.731  -0.503   1.223  0.00  0.00    +0.251 C 
ATOM     20  O   UNL     1       1.774  -1.109   1.101  0.00  0.00    -0.272 OA
ATOM     21  N   UNL     1       0.223  -0.277   2.451  0.00  0.00    -0.326 N 
ATOM     22  H   UNL     1      -0.611   0.208   2.548  0.00  0.00    +0.145 HD
ATOM     23  H   UNL     1       0.692  -0.598   3.236  0.00  0.00    +0.145 HD
ENDBRANCH  18  19
ENDBRANCH  16  18
ENDBRANCH  14  16
ENDBRANCH   1  14
BRANCH   1  24
ATOM     24  C   UNL     1       1.222  -2.511  -3.293  0.00  0.00    +0.067 C 
BRANCH  24  25
ATOM     25  C   UNL     1       1.961  -2.939  -4.535  0.00  0.00    -0.039 C 
ATOM     26  C   UNL     1       3.273  -2.751  -4.805  0.00  0.00    -0.001 A 
ATOM     27  C   UNL     1       4.362  -2.114  -4.055  0.00  0.00    +0.010 A 
ATOM     28  C   UNL     1       5.599  -2.077  -4.599  0.00  0.00    +0.001 A 
ATOM     29  C   UNL     1       5.867  -2.630  -5.859  0.00  0.00    +0.002 A 
ATOM     30  C   UNL     1       4.919  -3.231  -6.608  0.00  0.00    +0.026 A 
ATOM     31  C   UNL     1       3.582  -3.327  -6.133  0.00  0.00    +0.043 A 
ATOM     32  N   UNL     1       2.504  -3.852  -6.663  0.00  0.00    -0.380 N 
ATOM     33  C   UNL     1       1.388  -3.672  -5.727  0.00  0.00    +0.144 C 
ATOM     34  H   UNL     1       2.452  -4.289  -7.527  0.00  0.00    +0.160 HD
ENDBRANCH  24  25
ENDBRANCH   1  24
TORSDOF 10
