REMARK  Name = ZINC02066231
REMARK  6 active torsions:
REMARK  status: ('A' for Active; 'I' for Inactive)
REMARK    1  A    between atoms: C_10  and  N_11
REMARK    2  A    between atoms: N_11  and  C_12
REMARK    3  A    between atoms: C_12  and  C_14
REMARK    4  A    between atoms: C_12  and  N_18
REMARK    5  A    between atoms: C_19  and  C_21
REMARK    6  A    between atoms: C_24  and  N_27
REMARK                            x       y       z     vdW  Elec       q    Type
REMARK                         _______ _______ _______ _____ _____    ______ ____
ROOT
ATOM      1  C   UNL     1      -3.705   2.180   0.142  0.00  0.00    +0.210 C 
ENDROOT
BRANCH   1   2
ATOM      2  C   UNL     1      -4.566   1.555   1.242  0.00  0.00    +0.225 C 
ATOM      3 CL   UNL     1      -3.677   1.617   2.809  0.00  0.00    -0.080 Cl
ATOM      4 CL   UNL     1      -6.111   2.472   1.390  0.00  0.00    -0.080 Cl
ATOM      5 CL   UNL     1      -4.923  -0.162   0.822  0.00  0.00    -0.080 Cl
ENDBRANCH   1   2
BRANCH   1   6
ATOM      6  N   UNL     1      -4.427   2.129  -1.132  0.00  0.00    -0.290 N 
ATOM      7  C   UNL     1      -4.456   3.212  -1.934  0.00  0.00    +0.246 C 
ATOM      8  O   UNL     1      -3.883   4.231  -1.600  0.00  0.00    -0.270 OA
ATOM      9  H   UNL     1      -4.885   1.316  -1.398  0.00  0.00    +0.151 HD
BRANCH   7  10
ATOM     10  C   UNL     1      -5.185   3.161  -3.219  0.00  0.00    +0.037 A 
ATOM     11  C   UNL     1      -5.839   1.990  -3.607  0.00  0.00    +0.015 A 
ATOM     12  C   UNL     1      -6.522   1.951  -4.805  0.00  0.00    +0.033 A 
ATOM     13  C   UNL     1      -6.550   3.064  -5.626  0.00  0.00    +0.126 A 
ATOM     14  C   UNL     1      -5.899   4.226  -5.250  0.00  0.00    +0.033 A 
ATOM     15  C   UNL     1      -5.217   4.280  -4.052  0.00  0.00    +0.015 A 
BRANCH  13  16
ATOM     16  N   UNL     1      -7.280   3.013  -6.913  0.00  0.00    +0.056 N 
ATOM     17  O   UNL     1      -7.307   3.992  -7.637  0.00  0.00    -0.126 OA
ATOM     18  O   UNL     1      -7.855   1.992  -7.247  0.00  0.00    -0.126 OA
ENDBRANCH  13  16
ENDBRANCH   7  10
ENDBRANCH   1   6
BRANCH   1  19
ATOM     19  N   UNL     1      -2.449   1.435   0.021  0.00  0.00    -0.322 N 
ATOM     20  H   UNL     1      -2.460   0.465   0.011  0.00  0.00    +0.148 HD
BRANCH  19  30
ATOM     21  C   UNL     1       2.407   0.068  -0.065  0.00  0.00    +0.001 A 
ATOM     22  C   UNL     1       1.209  -0.636   0.041  0.00  0.00    +0.001 A 
ATOM     23  C   UNL     1       0.013   0.014   0.041  0.00  0.00    +0.010 A 
ATOM     24  C   UNL     1      -0.018   1.413  -0.069  0.00  0.00    +0.003 A 
ATOM     25  C   UNL     1       1.199   2.129  -0.177  0.00  0.00    -0.016 A 
ATOM     26  C   UNL     1       2.415   1.425  -0.173  0.00  0.00    +0.008 A 
ATOM     27  C   UNL     1       1.169   3.530  -0.286  0.00  0.00    +0.008 A 
ATOM     28  C   UNL     1      -0.023   4.187  -0.287  0.00  0.00    +0.002 A 
ATOM     29  C   UNL     1      -1.225   3.495  -0.182  0.00  0.00    +0.023 A 
ATOM     30  C   UNL     1      -1.240   2.120  -0.078  0.00  0.00    +0.036 A 
ENDBRANCH  19  30
ENDBRANCH   1  19
TORSDOF 6
