REMARK  Name = ZINC18201248
REMARK  3 active torsions:
REMARK  status: ('A' for Active; 'I' for Inactive)
REMARK    1  A    between atoms: C_1  and  S_2
REMARK    2  A    between atoms: S_2  and  C_3
REMARK    3  A    between atoms: C_6  and  C_9
REMARK                            x       y       z     vdW  Elec       q    Type
REMARK                         _______ _______ _______ _____ _____    ______ ____
ROOT
ATOM      1  C   UNL     1      -5.834  -1.544   0.050  0.00  0.00    +0.093 C 
ATOM      2  C   UNL     1      -6.149  -2.358  -1.179  0.00  0.00    +0.067 A 
ATOM      3  C   UNL     1      -6.365  -3.701  -1.131  0.00  0.00    +0.114 A 
ATOM      4  N   UNL     1      -6.641  -4.383  -2.296  0.00  0.00    -0.295 N 
ATOM      5  C   UNL     1      -6.702  -3.733  -3.471  0.00  0.00    +0.328 A 
ATOM      6  O   UNL     1      -6.947  -4.354  -4.488  0.00  0.00    -0.247 OA
ATOM      7  N   UNL     1      -6.496  -2.405  -3.538  0.00  0.00    -0.275 N 
ATOM      8  C   UNL     1      -6.221  -1.701  -2.424  0.00  0.00    +0.260 A 
ATOM      9  O   UNL     1      -6.035  -0.498  -2.492  0.00  0.00    -0.267 OA
ATOM     10  N   UNL     1      -6.324  -4.410   0.050  0.00  0.00    -0.300 N 
ATOM     11  C   UNL     1      -6.351  -3.713   1.237  0.00  0.00    +0.048 C 
ATOM     12  C   UNL     1      -6.128  -2.360   1.282  0.00  0.00    +0.034 C 
ATOM     13  C   UNL     1      -6.221  -1.907   2.617  0.00  0.00    +0.193 C 
ATOM     14  O   UNL     1      -6.081  -0.761   2.999  0.00  0.00    -0.287 OA
ATOM     15  C   UNL     1      -6.521  -3.081   3.465  0.00  0.00    +0.031 A 
ATOM     16  C   UNL     1      -6.598  -4.201   2.598  0.00  0.00    +0.007 A 
ATOM     17  C   UNL     1      -6.866  -5.467   3.092  0.00  0.00    +0.010 A 
ATOM     18  C   UNL     1      -7.055  -5.582   4.473  0.00  0.00    +0.001 A 
ATOM     19  C   UNL     1      -6.981  -4.494   5.310  0.00  0.00    +0.001 A 
ATOM     20  C   UNL     1      -6.711  -3.209   4.827  0.00  0.00    +0.012 A 
ATOM     21  H   UNL     1      -6.277  -5.379   0.045  0.00  0.00    +0.154 HD
ATOM     22  H   UNL     1      -6.546  -1.952  -4.394  0.00  0.00    +0.173 HD
ATOM     23  H   UNL     1      -6.792  -5.341  -2.268  0.00  0.00    +0.172 HD
ENDROOT
BRANCH   1  27
ATOM     24  C   UNL     1      -1.702  -0.454   0.016  0.00  0.00    +0.008 A 
ATOM     25  C   UNL     1      -2.682   0.531   0.025  0.00  0.00    +0.015 A 
ATOM     26  C   UNL     1      -4.016   0.176   0.036  0.00  0.00    +0.005 A 
ATOM     27  C   UNL     1      -4.377  -1.159   0.038  0.00  0.00    -0.035 A 
ATOM     28  C   UNL     1      -3.404  -2.143   0.029  0.00  0.00    +0.005 A 
ATOM     29  C   UNL     1      -2.068  -1.794   0.012  0.00  0.00    +0.015 A 
BRANCH  24  31
ATOM     30  C   UNL     1      -0.022   1.810   0.012  0.00  0.00    +0.090 C 
ATOM     31  S   UNL     1       0.002  -0.004   0.002  0.00  0.00    -0.129 S 
ENDBRANCH  24  31
ENDBRANCH   1  27
TORSDOF 2
