REMARK  Name = ZINC18394840
REMARK  8 active torsions:
REMARK  status: ('A' for Active; 'I' for Inactive)
REMARK    1  A    between atoms: C_1  and  C_2
REMARK    2  A    between atoms: C_3  and  C_23
REMARK    3  A    between atoms: C_4  and  C_22
REMARK    4  A    between atoms: C_7  and  C_8
REMARK    5  A    between atoms: C_8  and  C_10
REMARK    6  A    between atoms: C_10  and  N_11
REMARK    7  A    between atoms: C_15  and  C_17
REMARK    8  A    between atoms: C_23  and  C_25
REMARK                            x       y       z     vdW  Elec       q    Type
REMARK                         _______ _______ _______ _____ _____    ______ ____
ROOT
ATOM      1  C   UNL     1      -6.464   2.283   1.472  0.00  0.00    +0.201 C 
ATOM      2  O   UNL     1      -5.699   2.056   2.388  0.00  0.00    -0.289 OA
ENDROOT
BRANCH   1   9
ATOM      3  C   UNL     1      -7.761   2.216   4.295  0.00  0.00    +0.047 C 
ATOM      4  C   UNL     1      -8.438   2.475   2.974  0.00  0.00    -0.012 A 
ATOM      5  C   UNL     1      -9.811   2.743   2.768  0.00  0.00    +0.041 A 
ATOM      6  C   UNL     1      -9.994   2.911   1.404  0.00  0.00    +0.024 A 
ATOM      7  N   UNL     1      -8.811   2.764   0.792  0.00  0.00    -0.355 N 
ATOM      8  H   UNL     1      -8.661   2.833  -0.164  0.00  0.00    +0.166 HD
ATOM      9  C   UNL     1      -7.838   2.499   1.735  0.00  0.00    +0.088 A 
ATOM     10  C   UNL     1     -11.305   3.209   0.723  0.00  0.00    +0.064 C 
BRANCH   5  11
ATOM     11  C   UNL     1     -10.847   2.823   3.803  0.00  0.00    +0.162 C 
ATOM     12  O   UNL     1     -11.081   3.881   4.347  0.00  0.00    -0.292 OA
ATOM     13  C   UNL     1     -11.622   1.589   4.190  0.00  0.00    +0.091 C 
ENDBRANCH   5  11
ENDBRANCH   1   9
BRANCH   1  14
ATOM     14  C   UNL     1      -5.949   2.334   0.057  0.00  0.00    +0.231 C 
BRANCH  14  15
ATOM     15  N   UNL     1      -4.506   2.080   0.052  0.00  0.00    -0.187 N 
ATOM     16  C   UNL     1      -3.902   0.878  -0.057  0.00  0.00    +0.439 A 
ATOM     17  O   UNL     1      -4.457  -0.199  -0.169  0.00  0.00    -0.221 OA
ATOM     18  O   UNL     1      -2.575   1.088  -0.024  0.00  0.00    -0.385 OA
ATOM     19  C   UNL     1      -2.346   2.413   0.114  0.00  0.00    +0.285 A 
ATOM     20  N   UNL     1      -3.489   3.039   0.160  0.00  0.00    -0.123 NA
BRANCH  19  21
ATOM     21  C   UNL     1      -1.020   3.046   0.194  0.00  0.00    +0.191 A 
ATOM     22  C   UNL     1       0.179   2.401   0.147  0.00  0.00    +0.055 A 
ATOM     23  C   UNL     1       1.175   3.390   0.251  0.00  0.00    +0.042 A 
ATOM     24  C   UNL     1       0.545   4.577   0.360  0.00  0.00    +0.196 A 
ATOM     25  O   UNL     1      -0.780   4.366   0.329  0.00  0.00    -0.458 OA
ENDBRANCH  19  21
ENDBRANCH  14  15
ENDBRANCH   1  14
TORSDOF 5
