REMARK  Name = ZINC02249474
REMARK  7 active torsions:
REMARK  status: ('A' for Active; 'I' for Inactive)
REMARK    1  A    between atoms: C_1  and  C_2
REMARK    2  A    between atoms: C_5  and  C_8
REMARK    3  A    between atoms: C_23  and  S_36
REMARK    4  A    between atoms: C_26  and  C_28
REMARK    5  A    between atoms: C_31  and  O_34
REMARK    6  A    between atoms: O_34  and  C_35
REMARK    7  A    between atoms: S_36  and  C_37
REMARK                            x       y       z     vdW  Elec       q    Type
REMARK                         _______ _______ _______ _____ _____    ______ ____
ROOT
ATOM      1  C   UNL     1       0.059  -4.275  -0.021  0.00  0.00    +0.234 C 
ATOM      2  C   UNL     1       1.464  -4.755   0.204  0.00  0.00    +0.025 C 
ATOM      3  C   UNL     1       1.920  -4.981   1.454  0.00  0.00    +0.058 C 
ATOM      4  C   UNL     1       0.979  -4.747   2.579  0.00  0.00    +0.042 A 
ATOM      5  C   UNL     1       1.428  -4.632   3.887  0.00  0.00    +0.033 A 
ATOM      6  C   UNL     1       0.517  -4.413   4.904  0.00  0.00    +0.042 A 
ATOM      7  C   UNL     1      -0.834  -4.308   4.619  0.00  0.00    +0.023 A 
ATOM      8  C   UNL     1      -1.288  -4.422   3.317  0.00  0.00    +0.048 A 
ATOM      9  C   UNL     1      -0.387  -4.643   2.290  0.00  0.00    +0.131 A 
ATOM     10  O   UNL     1      -0.803  -4.765   1.008  0.00  0.00    -0.479 OA
ATOM     11 CL   UNL     1       1.069  -4.269   6.544  0.00  0.00    -0.084 Cl
ATOM     12  N   UNL     1       3.187  -5.407   1.679  0.00  0.00    -0.326 N 
ATOM     13  C   UNL     1       4.069  -5.644   0.732  0.00  0.00    +0.216 C 
ATOM     14  N   UNL     1       5.346  -6.067   0.786  0.00  0.00    -0.192 NA
ATOM     15  C   UNL     1       5.846  -6.167  -0.429  0.00  0.00    +0.174 C 
ATOM     16  N   UNL     1       4.889  -5.802  -1.339  0.00  0.00    -0.239 N 
ATOM     17  N   UNL     1       3.752  -5.465  -0.600  0.00  0.00    -0.209 N 
ATOM     18  C   UNL     1       2.406  -4.999  -0.953  0.00  0.00    +0.159 C 
ATOM     19  H   UNL     1       3.461  -5.546   2.599  0.00  0.00    +0.169 HD
ATOM     20  H   UNL     1       4.982  -5.781  -2.305  0.00  0.00    +0.172 HD
ENDROOT
BRANCH   1  25
ATOM     21  C   UNL     1      -0.018   1.503   0.010  0.00  0.00    +0.044 C 
ATOM     22  C   UNL     1       0.002  -0.004   0.002  0.00  0.00    -0.050 A 
ATOM     23  C   UNL     1       0.006  -0.689  -1.199  0.00  0.00    +0.004 A 
ATOM     24  C   UNL     1       0.025  -2.071  -1.206  0.00  0.00    +0.008 A 
ATOM     25  C   UNL     1       0.040  -2.768  -0.013  0.00  0.00    -0.003 A 
ATOM     26  C   UNL     1       0.037  -2.084   1.188  0.00  0.00    +0.008 A 
ATOM     27  C   UNL     1       0.023  -0.702   1.195  0.00  0.00    +0.004 A 
ENDBRANCH   1  25
BRANCH  18  28
ATOM     28  C   UNL     1       2.541  -3.714  -1.728  0.00  0.00    -0.021 A 
ATOM     29  C   UNL     1       3.391  -2.721  -1.276  0.00  0.00    +0.009 A 
ATOM     30  C   UNL     1       3.517  -1.542  -1.985  0.00  0.00    +0.046 A 
ATOM     31  C   UNL     1       2.789  -1.354  -3.151  0.00  0.00    +0.120 A 
ATOM     32  C   UNL     1       1.938  -2.352  -3.603  0.00  0.00    +0.046 A 
ATOM     33  C   UNL     1       1.820  -3.531  -2.894  0.00  0.00    +0.009 A 
BRANCH  31  34
ATOM     34  O   UNL     1       2.911  -0.195  -3.850  0.00  0.00    -0.495 OA
ATOM     35  C   UNL     1       2.132  -0.071  -5.041  0.00  0.00    +0.277 C 
ENDBRANCH  31  34
ENDBRANCH  18  28
BRANCH  15  36
ATOM     36  S   UNL     1       7.484  -6.685  -0.821  0.00  0.00    -0.092 S 
ATOM     37  C   UNL     1       8.236  -7.021   0.795  0.00  0.00    +0.093 C 
ENDBRANCH  15  36
TORSDOF 4
