REMARK  Name = ZINC64066686
REMARK  9 active torsions:
REMARK  status: ('A' for Active; 'I' for Inactive)
REMARK    1  A    between atoms: C_1  and  C_2
REMARK    2  A    between atoms: C_7  and  C_8
REMARK    3  A    between atoms: C_10  and  C_23
REMARK    4  A    between atoms: N_13  and  C_15
REMARK    5  A    between atoms: C_23  and  N_24
REMARK    6  A    between atoms: N_24  and  C_25
REMARK    7  A    between atoms: N_24  and  C_26
REMARK    8  A    between atoms: C_26  and  C_27
REMARK    9  A    between atoms: C_31  and  C_33
REMARK                            x       y       z     vdW  Elec       q    Type
REMARK                         _______ _______ _______ _____ _____    ______ ____
ROOT
ATOM      1  C   UNL     1       0.348  -0.989   0.849  0.00  0.00    +0.109 C 
ATOM      2  C   UNL     1       1.355  -0.277   1.794  0.00  0.00    +0.045 C 
ATOM      3  C   UNL     1       0.696  -0.522   3.172  0.00  0.00    +0.131 C 
ATOM      4  N   UNL     1      -0.215  -1.661   2.974  0.00  0.00    -0.263 N 
ATOM      5  N   UNL     1      -0.104  -2.127   1.689  0.00  0.00    -0.232 NA
ATOM      6  H   UNL     1      -0.985  -2.492   1.358  0.00  0.00    +0.145 HD
ENDROOT
BRANCH   4   7
ATOM      7  C   UNL     1      -1.069  -2.188   3.950  0.00  0.00    +0.080 A 
ATOM      8  C   UNL     1      -1.980  -1.364   4.595  0.00  0.00    +0.030 A 
ATOM      9  C   UNL     1      -2.821  -1.887   5.559  0.00  0.00    +0.040 A 
ATOM     10  C   UNL     1      -2.757  -3.232   5.881  0.00  0.00    +0.126 A 
ATOM     11  C   UNL     1      -1.849  -4.057   5.240  0.00  0.00    +0.078 A 
ATOM     12  C   UNL     1      -1.009  -3.540   4.270  0.00  0.00    +0.148 A 
ATOM     13  F   UNL     1      -0.128  -4.346   3.639  0.00  0.00    -0.203 F 
ATOM     14  F   UNL     1      -3.581  -3.739   6.824  0.00  0.00    -0.205 F 
ENDBRANCH   4   7
BRANCH   1  21
ATOM     15  C   UNL     1       0.785   0.817  -1.364  0.00  0.00    +0.044 C 
ATOM     16  C   UNL     1       1.244  -0.615  -1.458  0.00  0.00    -0.046 A 
ATOM     17  C   UNL     1       1.880  -1.064  -2.601  0.00  0.00    +0.003 A 
ATOM     18  C   UNL     1       2.301  -2.377  -2.688  0.00  0.00    +0.000 A 
ATOM     19  C   UNL     1       2.087  -3.243  -1.631  0.00  0.00    +0.000 A 
ATOM     20  C   UNL     1       1.453  -2.794  -0.488  0.00  0.00    +0.005 A 
ATOM     21  C   UNL     1       1.035  -1.479  -0.400  0.00  0.00    -0.026 A 
ENDBRANCH   1  21
BRANCH   2  22
ATOM     22  C   UNL     1       2.736  -0.930   1.718  0.00  0.00    +0.091 C 
BRANCH  22  23
ATOM     23  N   UNL     1       3.687  -0.159   2.531  0.00  0.00    -0.298 NA
ATOM     24  C   UNL     1       3.901   1.179   1.963  0.00  0.00    +0.105 C 
BRANCH  23  25
ATOM     25  C   UNL     1       4.959  -0.879   2.677  0.00  0.00    +0.156 C 
BRANCH  25  26
ATOM     26  C   UNL     1       4.792  -1.998   3.672  0.00  0.00    +0.099 A 
ATOM     27  H   UNL     1       6.240  -3.376   3.105  0.00  0.00    +0.167 HD
ATOM     28  N   UNL     1       3.914  -2.033   4.637  0.00  0.00    -0.349 N 
ATOM     29  C   UNL     1       4.053  -3.179   5.321  0.00  0.00    +0.105 A 
ATOM     30  C   UNL     1       5.055  -3.881   4.757  0.00  0.00    +0.030 A 
ATOM     31  N   UNL     1       5.520  -3.135   3.708  0.00  0.00    -0.346 N 
ATOM     32  C   UNL     1       5.563  -5.230   5.195  0.00  0.00    +0.065 C 
ATOM     33  H   UNL     1       3.264  -1.340   4.830  0.00  0.00    +0.166 HD
ENDBRANCH  25  26
ENDBRANCH  23  25
ENDBRANCH  22  23
ENDBRANCH   2  22
TORSDOF 6
