REMARK  Name = ZINC08870834
REMARK  9 active torsions:
REMARK  status: ('A' for Active; 'I' for Inactive)
REMARK    1  A    between atoms: C_7  and  N_17
REMARK    2  A    between atoms: C_9  and  S_12
REMARK    3  A    between atoms: C_10  and  O_11
REMARK    4  A    between atoms: S_12  and  C_13
REMARK    5  A    between atoms: C_13  and  C_14
REMARK    6  A    between atoms: C_14  and  C_15
REMARK    7  A    between atoms: N_17  and  S_18
REMARK    8  A    between atoms: S_18  and  C_21
REMARK    9  A    between atoms: C_25  and  N_27
REMARK                            x       y       z     vdW  Elec       q    Type
REMARK                         _______ _______ _______ _____ _____    ______ ____
ROOT
ATOM      1  C   UNL     1       1.536   1.803   0.288  0.00  0.00    +0.001 A 
ATOM      2  C   UNL     1       0.401   1.013   0.464  0.00  0.00    +0.001 A 
ATOM      3  C   UNL     1      -0.836   1.574   0.547  0.00  0.00    +0.012 A 
ATOM      4  C   UNL     1      -0.974   2.971   0.466  0.00  0.00    +0.026 A 
ATOM      5  C   UNL     1       0.181   3.774   0.286  0.00  0.00    +0.008 A 
ATOM      6  C   UNL     1       1.440   3.158   0.199  0.00  0.00    +0.010 A 
ATOM      7  C   UNL     1       0.048   5.176   0.198  0.00  0.00    +0.057 A 
ATOM      8  C   UNL     1      -1.200   5.750   0.286  0.00  0.00    +0.043 A 
ATOM      9  C   UNL     1      -2.339   4.959   0.463  0.00  0.00    +0.052 A 
ATOM     10  C   UNL     1      -2.237   3.584   0.553  0.00  0.00    +0.138 A 
ENDROOT
BRANCH  10  11
ATOM     11  O   UNL     1      -3.354   2.825   0.725  0.00  0.00    -0.505 OA
ATOM     12  H   UNL     1      -3.768   2.542  -0.101  0.00  0.00    +0.292 HD
ENDBRANCH  10  11
BRANCH   7  13
ATOM     13  N   UNL     1       1.177   5.978   0.021  0.00  0.00    -0.216 N 
ATOM     14  H   UNL     1       1.915   5.663  -0.525  0.00  0.00    +0.174 HD
BRANCH  13  15
ATOM     15  S   UNL     1       1.258   7.465   0.745  0.00  0.00    +0.072 S 
ATOM     16  O   UNL     1       2.562   7.969   0.492  0.00  0.00    -0.150 OA
ATOM     17  O   UNL     1       0.083   8.166   0.364  0.00  0.00    -0.150 OA
BRANCH  15  18
ATOM     18  C   UNL     1       1.148   7.205   2.484  0.00  0.00    +0.111 A 
ATOM     19  C   UNL     1      -0.088   7.203   3.105  0.00  0.00    +0.030 A 
ATOM     20  C   UNL     1      -0.175   6.994   4.469  0.00  0.00    +0.024 A 
ATOM     21  C   UNL     1       0.974   6.797   5.213  0.00  0.00    +0.071 A 
ATOM     22  C   UNL     1       2.210   6.804   4.592  0.00  0.00    +0.146 A 
ATOM     23  C   UNL     1       2.296   7.008   3.228  0.00  0.00    +0.063 A 
ATOM     24 CL   UNL     1       0.865   6.541   6.927  0.00  0.00    -0.081 Cl
BRANCH  22  25
ATOM     25  N   UNL     1       3.440   6.593   5.388  0.00  0.00    +0.058 N 
ATOM     26  O   UNL     1       4.528   6.599   4.841  0.00  0.00    -0.126 OA
ATOM     27  O   UNL     1       3.364   6.413   6.590  0.00  0.00    -0.126 OA
ENDBRANCH  22  25
ENDBRANCH  15  18
ENDBRANCH  13  15
ENDBRANCH   7  13
BRANCH   9  28
ATOM     28  S   UNL     1      -3.922   5.725   0.573  0.00  0.00    -0.121 S 
BRANCH  28  29
ATOM     29  C   UNL     1      -3.567   7.495   0.406  0.00  0.00    +0.086 C 
BRANCH  29  30
ATOM     30  C   UNL     1      -4.873   8.288   0.484  0.00  0.00    +0.136 C 
BRANCH  30  31
ATOM     31  C   UNL     1      -4.577   9.759   0.346  0.00  0.00    +0.357 C 
ATOM     32  O   UNL     1      -3.439  10.135   0.199  0.00  0.00    -0.246 OA
ATOM     33  O   UNL     1      -5.579  10.652   0.385  0.00  0.00    -0.246 OA
ENDBRANCH  30  31
ENDBRANCH  29  30
ENDBRANCH  28  29
ENDBRANCH   9  28
TORSDOF 9
