REMARK  Name = ZINC06873919
REMARK  5 active torsions:
REMARK  status: ('A' for Active; 'I' for Inactive)
REMARK    1  A    between atoms: C_1  and  C_2
REMARK    2  A    between atoms: C_7  and  N_12
REMARK    3  A    between atoms: C_9  and  C_11
REMARK    4  A    between atoms: N_12  and  S_13
REMARK    5  A    between atoms: S_13  and  C_16
REMARK                            x       y       z     vdW  Elec       q    Type
REMARK                         _______ _______ _______ _____ _____    ______ ____
ROOT
ATOM      1  S   UNL     1       2.295  -3.962   2.363  0.00  0.00    +0.060 S 
ATOM      2  O   UNL     1       3.246  -3.948   1.308  0.00  0.00    -0.153 OA
ATOM      3  O   UNL     1       2.666  -4.162   3.720  0.00  0.00    -0.153 OA
ENDROOT
BRANCH   1   4
ATOM      4  C   UNL     1       1.124  -5.218   1.970  0.00  0.00    +0.127 A 
ATOM      5  C   UNL     1       1.289  -5.981   0.827  0.00  0.00    +0.077 A 
ATOM      6  C   UNL     1       0.370  -6.967   0.518  0.00  0.00    +0.144 A 
ATOM      7  C   UNL     1      -0.719  -7.191   1.359  0.00  0.00    +0.077 A 
ATOM      8  C   UNL     1      -0.879  -6.426   2.502  0.00  0.00    +0.049 A 
ATOM      9  C   UNL     1       0.047  -5.444   2.808  0.00  0.00    +0.069 A 
ATOM     10 CL   UNL     1      -0.147  -4.488   4.245  0.00  0.00    -0.081 Cl
ATOM     11  N   UNL     1      -1.643  -8.194   1.033  0.00  0.00    -0.280 N 
ATOM     12  C   UNL     1      -1.306  -9.119   0.108  0.00  0.00    +0.255 C 
ATOM     13  O   UNL     1      -2.101  -9.977  -0.212  0.00  0.00    -0.272 OA
ATOM     14  C   UNL     1       0.062  -9.080  -0.524  0.00  0.00    +0.325 C 
ATOM     15  O   UNL     1       0.517  -7.726  -0.601  0.00  0.00    -0.481 OA
ATOM     16  H   UNL     1      -2.511  -8.223   1.465  0.00  0.00    +0.155 HD
ENDBRANCH   1   4
BRANCH   1  17
ATOM     17  N   UNL     1       1.496  -2.512   2.301  0.00  0.00    -0.187 NA
ATOM     18  H   UNL     1       1.381  -1.987   3.108  0.00  0.00    +0.148 HD
BRANCH  17  24
ATOM     19  C   UNL     1       0.693   1.532  -0.428  0.00  0.00    +0.008 C 
ATOM     20  C   UNL     1       0.551   0.009  -0.367  0.00  0.00    -0.010 C 
ATOM     21  C   UNL     1      -0.926  -0.370  -0.482  0.00  0.00    +0.003 C 
ATOM     22  C   UNL     1      -1.068  -1.892  -0.420  0.00  0.00    +0.002 C 
ATOM     23  C   UNL     1      -0.513  -2.403   0.911  0.00  0.00    +0.020 C 
ATOM     24  C   UNL     1       0.965  -2.023   1.026  0.00  0.00    +0.080 C 
ATOM     25  C   UNL     1       1.107  -0.501   0.965  0.00  0.00    +0.007 C 
ATOM     26  C   UNL     1       0.326   0.131   2.119  0.00  0.00    +0.009 C 
ENDBRANCH  17  24
ENDBRANCH   1  17
TORSDOF 3
