REMARK  Name = ZINC63698960
REMARK  4 active torsions:
REMARK  status: ('A' for Active; 'I' for Inactive)
REMARK    1  A    between atoms: C_1  and  C_2
REMARK    2  A    between atoms: C_4  and  C_23
REMARK    3  A    between atoms: N_12  and  C_14
REMARK    4  A    between atoms: C_27  and  N_29
REMARK                            x       y       z     vdW  Elec       q    Type
REMARK                         _______ _______ _______ _____ _____    ______ ____
ROOT
ATOM      1  C   UNL     1      -0.078   1.439  -0.666  0.00  0.00    +0.062 C 
ATOM      2  C   UNL     1      -0.086  -0.067  -0.631  0.00  0.00    +0.019 C 
ATOM      3  C   UNL     1      -1.102  -0.789  -0.255  0.00  0.00    -0.008 C 
ATOM      4  C   UNL     1      -2.526  -0.406   0.066  0.00  0.00    +0.058 C 
ATOM      5  C   UNL     1      -3.406  -1.132  -0.963  0.00  0.00    +0.108 C 
ATOM      6  C   UNL     1      -2.890  -2.500  -1.271  0.00  0.00    +0.215 C 
ATOM      7  O   UNL     1      -3.683  -3.274  -1.763  0.00  0.00    -0.276 OA
ATOM      8  N   UNL     1      -1.658  -2.970  -1.067  0.00  0.00    -0.295 N 
ATOM      9  C   UNL     1      -0.662  -2.243  -0.290  0.00  0.00    +0.194 C 
ATOM     10  N   UNL     1       0.658  -2.192  -0.929  0.00  0.00    -0.164 NA
ATOM     11  N   UNL     1       0.987  -0.864  -1.002  0.00  0.00    -0.277 N 
ATOM     12  H   UNL     1      -1.417  -3.828  -1.449  0.00  0.00    +0.151 HD
ATOM     13  H   UNL     1       1.855  -0.527  -1.273  0.00  0.00    +0.166 HD
ENDROOT
BRANCH  10  14
ATOM     14  C   UNL     1       1.650  -2.943  -0.149  0.00  0.00    +0.270 C 
ATOM     15  N   UNL     1       1.268  -4.359  -0.076  0.00  0.00    -0.350 N 
ATOM     16  C   UNL     1       1.098  -4.653   1.180  0.00  0.00    +0.061 A 
ATOM     17  C   UNL     1       0.718  -5.892   1.873  0.00  0.00    +0.027 A 
ATOM     18  C   UNL     1       0.619  -5.898   3.218  0.00  0.00    +0.002 A 
ATOM     19  C   UNL     1       0.865  -4.757   4.002  0.00  0.00    +0.002 A 
ATOM     20  C   UNL     1       1.219  -3.571   3.467  0.00  0.00    +0.027 A 
ATOM     21  C   UNL     1       1.359  -3.445   2.010  0.00  0.00    +0.061 A 
ATOM     22  N   UNL     1       1.681  -2.451   1.234  0.00  0.00    -0.350 N 
ATOM     23  H   UNL     1       1.161  -4.964  -0.827  0.00  0.00    +0.163 HD
ATOM     24  H   UNL     1       1.900  -1.549   1.518  0.00  0.00    +0.163 HD
ENDBRANCH  10  14
BRANCH   4  25
ATOM     25  C   UNL     1      -2.703   1.085  -0.059  0.00  0.00    -0.038 A 
ATOM     26  C   UNL     1      -2.891   1.657  -1.303  0.00  0.00    +0.004 A 
ATOM     27  C   UNL     1      -3.053   3.025  -1.417  0.00  0.00    +0.003 A 
ATOM     28  C   UNL     1      -3.027   3.821  -0.287  0.00  0.00    +0.033 A 
ATOM     29  C   UNL     1      -2.839   3.249   0.957  0.00  0.00    +0.126 A 
ATOM     30  C   UNL     1      -2.682   1.880   1.071  0.00  0.00    +0.037 A 
BRANCH  29  31
ATOM     31  N   UNL     1      -2.810   4.101   2.167  0.00  0.00    +0.056 N 
ATOM     32  O   UNL     1      -2.951   5.298   2.067  0.00  0.00    -0.126 OA
ATOM     33  O   UNL     1      -2.646   3.601   3.255  0.00  0.00    -0.126 OA
ENDBRANCH  29  31
ENDBRANCH   4  25
TORSDOF 3
