REMARK  Name = ZINC39606557
REMARK  10 active torsions:
REMARK  status: ('A' for Active; 'I' for Inactive)
REMARK    1  A    between atoms: C_1  and  C_2
REMARK    2  A    between atoms: C_2  and  C_3
REMARK    3  A    between atoms: C_3  and  C_5
REMARK    4  A    between atoms: C_3  and  C_6
REMARK    5  A    between atoms: C_6  and  N_7
REMARK    6  A    between atoms: C_8  and  C_10
REMARK    7  A    between atoms: C_21  and  C_23
REMARK    8  A    between atoms: C_29  and  O_31
REMARK    9  A    between atoms: O_31  and  C_32
REMARK   10  A    between atoms: C_32  and  C_33
REMARK                            x       y       z     vdW  Elec       q    Type
REMARK                         _______ _______ _______ _____ _____    ______ ____
ROOT
ATOM      1  C   UNL     1       2.697  -4.272  -3.689  0.00  0.00    +0.100 C 
ATOM      2  C   UNL     1       1.918  -4.049  -5.005  0.00  0.00    +0.121 C 
ATOM      3  N   UNL     1       2.244  -5.231  -5.838  0.00  0.00    -0.300 N 
ATOM      4  C   UNL     1       2.254  -6.364  -4.882  0.00  0.00    +0.115 C 
ATOM      5  C   UNL     1       2.915  -5.793  -3.612  0.00  0.00    -0.004 C 
ATOM      6  C   UNL     1       2.241  -6.360  -2.366  0.00  0.00    -0.010 C 
ATOM      7  C   UNL     1       2.521  -7.863  -2.280  0.00  0.00    -0.082 C 
ATOM      8  N   UNL     1       3.970  -8.091  -2.224  0.00  0.00    +0.379 N 
ATOM      9  C   UNL     1       4.598  -7.626  -3.466  0.00  0.00    -0.082 C 
ATOM     10  C   UNL     1       4.406  -6.113  -3.603  0.00  0.00    -0.010 C 
ATOM     11  C   UNL     1       2.478  -5.268  -7.164  0.00  0.00    +0.219 C 
ATOM     12  O   UNL     1       2.734  -6.322  -7.706  0.00  0.00    -0.275 OA
ATOM     13  H   UNL     1       4.358  -7.585  -1.442  0.00  0.00    -0.086 HD
ATOM     14  H   UNL     1       4.149  -9.077  -2.105  0.00  0.00    -0.086 HD
ENDROOT
BRANCH  11  15
ATOM     15  C   UNL     1       2.423  -3.998  -7.974  0.00  0.00    +0.078 C 
ATOM     16  C   UNL     1       1.028  -3.381  -7.861  0.00  0.00    +0.032 C 
ATOM     17  C   UNL     1       0.986  -2.073  -8.657  0.00  0.00    +0.112 C 
ATOM     18  N   UNL     1       1.415  -2.345 -10.036  0.00  0.00    -0.267 N 
ATOM     19  C   UNL     1       2.703  -3.018 -10.255  0.00  0.00    +0.112 C 
ATOM     20  C   UNL     1       2.725  -4.315  -9.441  0.00  0.00    +0.032 C 
ATOM     21  C   UNL     1       0.643  -1.983 -11.080  0.00  0.00    +0.403 C 
ATOM     22  O   UNL     1      -0.420  -1.427 -10.885  0.00  0.00    -0.226 OA
BRANCH  21  23
ATOM     23  O   UNL     1       1.049  -2.238 -12.338  0.00  0.00    -0.445 OA
BRANCH  23  24
ATOM     24  C   UNL     1       0.181  -1.828 -13.396  0.00  0.00    +0.269 C 
BRANCH  24  25
ATOM     25  C   UNL     1       0.796  -2.194 -14.722  0.00  0.00    -0.010 A 
ATOM     26  C   UNL     1       1.632  -1.300 -15.365  0.00  0.00    +0.007 A 
ATOM     27  C   UNL     1       2.197  -1.636 -16.581  0.00  0.00    +0.000 A 
ATOM     28  C   UNL     1       1.927  -2.865 -17.154  0.00  0.00    +0.000 A 
ATOM     29  C   UNL     1       1.091  -3.758 -16.510  0.00  0.00    +0.000 A 
ATOM     30  C   UNL     1       0.530  -3.425 -15.291  0.00  0.00    +0.007 A 
ENDBRANCH  24  25
ENDBRANCH  23  24
ENDBRANCH  21  23
ENDBRANCH  11  15
BRANCH   1  32
ATOM     31  N   UNL     1       2.506  -3.356  -1.400  0.00  0.00    -0.315 N 
ATOM     32  C   UNL     1       1.885  -3.797  -2.512  0.00  0.00    +0.218 C 
ATOM     33  O   UNL     1       0.674  -3.813  -2.565  0.00  0.00    -0.275 OA
ATOM     34  H   UNL     1       3.474  -3.344  -1.357  0.00  0.00    +0.149 HD
BRANCH  31  35
ATOM     35  C   UNL     1       1.716  -2.895  -0.255  0.00  0.00    +0.107 C 
BRANCH  35  36
ATOM     36  C   UNL     1       2.657  -2.451   0.867  0.00  0.00    +0.003 C 
ATOM     37  C   UNL     1       3.457  -1.230   0.409  0.00  0.00    +0.009 C 
BRANCH  36  39
ATOM     38  C   UNL     1       2.780  -1.763   3.266  0.00  0.00    +0.004 C 
ATOM     39  C   UNL     1       1.836  -2.087   2.106  0.00  0.00    +0.001 C 
ENDBRANCH  36  39
ENDBRANCH  35  36
ENDBRANCH  31  35
ENDBRANCH   1  32
TORSDOF 8
