REMARK  Name = ZINC15695323
REMARK  7 active torsions:
REMARK  status: ('A' for Active; 'I' for Inactive)
REMARK    1  A    between atoms: C_1  and  C_2
REMARK    2  A    between atoms: C_2  and  C_4
REMARK    3  A    between atoms: C_2  and  N_12
REMARK    4  A    between atoms: C_13  and  C_15
REMARK    5  A    between atoms: C_15  and  C_16
REMARK    6  A    between atoms: C_16  and  N_17
REMARK    7  A    between atoms: N_20  and  C_21
REMARK                            x       y       z     vdW  Elec       q    Type
REMARK                         _______ _______ _______ _____ _____    ______ ____
ROOT
ATOM      1  C   UNL     1      -6.469   0.559   2.894  0.00  0.00    +0.115 C 
ENDROOT
BRANCH   1   2
ATOM      2  N   UNL     1      -7.426   1.212   3.790  0.00  0.00    -0.299 N 
ATOM      3  C   UNL     1      -8.421   0.496   4.351  0.00  0.00    +0.300 C 
ATOM      4  O   UNL     1      -8.524  -0.692   4.113  0.00  0.00    -0.253 OA
ATOM      5  N   UNL     1      -9.302   1.097   5.175  0.00  0.00    -0.294 N 
ATOM      6  H   UNL     1      -7.344   2.160   3.979  0.00  0.00    +0.150 HD
ATOM      7  H   UNL     1      -9.220   2.045   5.364  0.00  0.00    +0.151 HD
BRANCH   5   8
ATOM      8  C   UNL     1     -10.383   0.319   5.784  0.00  0.00    +0.037 C 
ATOM      9  C   UNL     1     -11.259  -0.285   4.685  0.00  0.00    +0.029 C 
ATOM     10  C   UNL     1     -12.388  -1.098   5.322  0.00  0.00    -0.008 C 
ATOM     11  C   UNL     1     -13.239  -0.183   6.206  0.00  0.00    +0.007 C 
ATOM     12  C   UNL     1     -12.363   0.421   7.305  0.00  0.00    -0.008 C 
ATOM     13  C   UNL     1     -11.233   1.234   6.669  0.00  0.00    +0.029 C 
ATOM     14  C   UNL     1     -11.766  -0.701   8.157  0.00  0.00    +0.007 C 
ATOM     15  C   UNL     1     -10.916  -1.615   7.273  0.00  0.00    -0.008 C 
ATOM     16  C   UNL     1     -11.792  -2.220   6.173  0.00  0.00    +0.007 C 
ATOM     17  C   UNL     1      -9.787  -0.803   6.636  0.00  0.00    +0.029 C 
ENDBRANCH   5   8
ENDBRANCH   1   2
BRANCH   1  18
ATOM     18  C   UNL     1      -5.450   1.587   2.398  0.00  0.00    +0.114 C 
BRANCH  18  20
ATOM     19  N   UNL     1      -3.471   1.631   0.916  0.00  0.00    -0.309 N 
ATOM     20  C   UNL     1      -4.466   0.915   1.476  0.00  0.00    +0.215 C 
ATOM     21  O   UNL     1      -4.568  -0.270   1.240  0.00  0.00    -0.276 OA
ATOM     22  H   UNL     1      -3.389   2.578   1.105  0.00  0.00    +0.149 HD
BRANCH  19  24
ATOM     23  C   UNL     1      -3.087   0.938  -1.398  0.00  0.00    +0.033 C 
ATOM     24  C   UNL     1      -2.513   0.977   0.020  0.00  0.00    +0.100 C 
BRANCH  24  25
ATOM     25  C   UNL     1      -1.220   1.750   0.017  0.00  0.00    -0.025 A 
ATOM     26  C   UNL     1      -0.013   1.076   0.008  0.00  0.00    +0.008 A 
ATOM     27  C   UNL     1       1.175   1.782   0.000  0.00  0.00    +0.041 A 
ATOM     28  C   UNL     1       1.157   3.166   0.008  0.00  0.00    +0.158 A 
ATOM     29  C   UNL     1      -0.053   3.842   0.022  0.00  0.00    +0.159 A 
ATOM     30  C   UNL     1      -1.241   3.132   0.030  0.00  0.00    +0.046 A 
ATOM     31  F   UNL     1      -0.073   5.193   0.029  0.00  0.00    -0.202 F 
ATOM     32  F   UNL     1       2.318   3.858   0.001  0.00  0.00    -0.202 F 
ENDBRANCH  24  25
ENDBRANCH  19  24
ENDBRANCH  18  20
ENDBRANCH   1  18
TORSDOF 6
