REMARK  Name = ZINC43222853
REMARK  9 active torsions:
REMARK  status: ('A' for Active; 'I' for Inactive)
REMARK    1  A    between atoms: C_1  and  C_2
REMARK    2  A    between atoms: C_2  and  C_4
REMARK    3  A    between atoms: C_2  and  N_10
REMARK    4  A    between atoms: C_11  and  C_13
REMARK    5  A    between atoms: C_18  and  C_20
REMARK    6  A    between atoms: N_22  and  C_23
REMARK    7  A    between atoms: N_22  and  C_30
REMARK    8  A    between atoms: C_23  and  C_24
REMARK    9  A    between atoms: C_30  and  C_31
REMARK                            x       y       z     vdW  Elec       q    Type
REMARK                         _______ _______ _______ _____ _____    ______ ____
ROOT
ATOM      1  C   UNL     1       0.560  -0.802  -3.532  0.00  0.00    +0.068 C 
ATOM      2  C   UNL     1       1.288  -2.103  -3.132  0.00  0.00    -0.069 C 
ATOM      3  N   UNL     1       0.465  -3.189  -3.724  0.00  0.00    +0.380 N 
ATOM      4  C   UNL     1       0.057  -2.658  -5.050  0.00  0.00    -0.069 C 
ATOM      5  C   UNL     1      -0.249  -1.164  -4.795  0.00  0.00    +0.068 C 
ATOM      6  H   UNL     1       1.014  -4.029  -3.833  0.00  0.00    -0.086 HD
ATOM      7  H   UNL     1      -0.347  -3.369  -3.151  0.00  0.00    -0.086 HD
ENDROOT
BRANCH   1   9
ATOM      8  N   UNL     1       0.139  -0.022  -1.223  0.00  0.00    -0.312 N 
ATOM      9  C   UNL     1      -0.364  -0.358  -2.427  0.00  0.00    +0.215 C 
ATOM     10  O   UNL     1      -1.560  -0.303  -2.623  0.00  0.00    -0.276 OA
ATOM     11  H   UNL     1       1.095  -0.066  -1.067  0.00  0.00    +0.149 HD
BRANCH   8  13
ATOM     12  C   UNL     1      -1.038   1.907  -0.287  0.00  0.00    +0.028 C 
ATOM     13  C   UNL     1      -0.760   0.409  -0.149  0.00  0.00    +0.073 C 
BRANCH  13  14
ATOM     14  C   UNL     1      -0.104   0.135   1.206  0.00  0.00    +0.009 C 
ATOM     15  C   UNL     1       0.174  -1.363   1.344  0.00  0.00    +0.005 C 
ATOM     16  C   UNL     1       0.830  -1.637   2.699  0.00  0.00    +0.000 C 
ATOM     17  C   UNL     1      -0.108  -1.187   3.820  0.00  0.00    +0.000 C 
ATOM     18  C   UNL     1      -0.386   0.311   3.682  0.00  0.00    +0.000 C 
ATOM     19  C   UNL     1      -1.042   0.585   2.327  0.00  0.00    +0.005 C 
ENDBRANCH  13  14
ENDBRANCH   8  13
ENDBRANCH   1   9
BRANCH   5  20
ATOM     20  C   UNL     1       0.203  -0.328  -5.964  0.00  0.00    +0.218 C 
ATOM     21  O   UNL     1       1.190   0.371  -5.864  0.00  0.00    -0.275 OA
ATOM     22  N   UNL     1      -0.489  -0.356  -7.120  0.00  0.00    -0.293 N 
BRANCH  22  23
ATOM     23  C   UNL     1      -0.001   0.388  -8.284  0.00  0.00    +0.143 C 
BRANCH  23  24
ATOM     24  C   UNL     1       0.908  -0.495  -9.099  0.00  0.00    -0.030 A 
ATOM     25  C   UNL     1       2.264  -0.524  -8.833  0.00  0.00    +0.005 A 
ATOM     26  C   UNL     1       3.098  -1.334  -9.581  0.00  0.00    +0.000 A 
ATOM     27  C   UNL     1       2.576  -2.115 -10.595  0.00  0.00    +0.000 A 
ATOM     28  C   UNL     1       1.220  -2.086 -10.861  0.00  0.00    +0.000 A 
ATOM     29  C   UNL     1       0.385  -1.280 -10.110  0.00  0.00    +0.005 A 
ENDBRANCH  23  24
ENDBRANCH  22  23
BRANCH  22  30
ATOM     30  C   UNL     1      -1.729  -1.130  -7.213  0.00  0.00    +0.143 C 
BRANCH  30  31
ATOM     31  C   UNL     1      -2.907  -0.223  -6.967  0.00  0.00    -0.030 A 
ATOM     32  C   UNL     1      -3.462  -0.138  -5.704  0.00  0.00    +0.005 A 
ATOM     33  C   UNL     1      -4.543   0.694  -5.478  0.00  0.00    +0.000 A 
ATOM     34  C   UNL     1      -5.069   1.441  -6.515  0.00  0.00    +0.000 A 
ATOM     35  C   UNL     1      -4.513   1.356  -7.778  0.00  0.00    +0.000 A 
ATOM     36  C   UNL     1      -3.430   0.528  -8.003  0.00  0.00    +0.005 A 
ENDBRANCH  30  31
ENDBRANCH  22  30
ENDBRANCH   5  20
TORSDOF 8
