REMARK  Name = ZINC59369567
REMARK  5 active torsions:
REMARK  status: ('A' for Active; 'I' for Inactive)
REMARK    1  A    between atoms: C_1  and  C_2
REMARK    2  A    between atoms: N_8  and  C_9
REMARK    3  A    between atoms: C_9  and  C_10
REMARK    4  A    between atoms: C_9  and  N_17
REMARK    5  A    between atoms: C_21  and  C_24
REMARK                            x       y       z     vdW  Elec       q    Type
REMARK                         _______ _______ _______ _____ _____    ______ ____
ROOT
ATOM      1  C   UNL     1      -0.157  -4.718  -0.931  0.00  0.00    +0.189 C 
ENDROOT
BRANCH   1   9
ATOM      2  C   UNL     1      -0.733   1.588   0.337  0.00  0.00    +0.045 C 
ATOM      3  C   UNL     1      -0.623   0.085   0.377  0.00  0.00    -0.034 A 
ATOM      4  C   UNL     1      -0.760  -0.596   1.579  0.00  0.00    +0.008 A 
ATOM      5  C   UNL     1      -0.652  -1.975   1.572  0.00  0.00    +0.042 A 
ATOM      6  C   UNL     1      -0.411  -2.629   0.367  0.00  0.00    +0.098 A 
ATOM      7  N   UNL     1      -0.286  -1.943  -0.758  0.00  0.00    -0.349 N 
ATOM      8  C   UNL     1      -0.390  -0.627  -0.782  0.00  0.00    +0.087 A 
ATOM      9  N   UNL     1      -0.301  -4.014   0.345  0.00  0.00    -0.309 N 
ATOM     10  H   UNL     1      -0.320  -4.515   1.176  0.00  0.00    +0.149 HD
ATOM     11  H   UNL     1      -0.118  -2.419  -1.587  0.00  0.00    +0.167 HD
ENDBRANCH   1   9
BRANCH   1  12
ATOM     12  N   UNL     1      -1.421  -5.372  -1.274  0.00  0.00    -0.309 N 
ATOM     13  C   UNL     1      -2.229  -4.843  -2.275  0.00  0.00    +0.098 A 
ATOM     14  C   UNL     1      -1.759  -3.793  -3.056  0.00  0.00    +0.042 A 
ATOM     15  C   UNL     1      -2.573  -3.276  -4.048  0.00  0.00    +0.008 A 
ATOM     16  C   UNL     1      -3.834  -3.830  -4.226  0.00  0.00    -0.034 A 
ATOM     17  C   UNL     1      -4.236  -4.871  -3.414  0.00  0.00    +0.087 A 
ATOM     18  N   UNL     1      -3.436  -5.347  -2.478  0.00  0.00    -0.349 N 
ATOM     19  C   UNL     1      -4.755  -3.299  -5.294  0.00  0.00    +0.045 C 
ATOM     20  H   UNL     1      -1.696  -6.175  -0.803  0.00  0.00    +0.149 HD
ATOM     21  H   UNL     1      -3.742  -6.082  -1.924  0.00  0.00    +0.167 HD
ENDBRANCH   1  12
BRANCH   1  22
ATOM     22  C   UNL     1       0.930  -5.755  -0.813  0.00  0.00    -0.009 A 
ATOM     23  C   UNL     1       1.986  -5.554   0.056  0.00  0.00    +0.008 A 
ATOM     24  C   UNL     1       2.983  -6.505   0.165  0.00  0.00    +0.015 A 
ATOM     25  C   UNL     1       2.923  -7.659  -0.596  0.00  0.00    +0.018 A 
ATOM     26  C   UNL     1       1.867  -7.860  -1.465  0.00  0.00    +0.015 A 
ATOM     27  C   UNL     1       0.868  -6.910  -1.570  0.00  0.00    +0.008 A 
ATOM     28 BR   UNL     1       4.287  -8.961  -0.448  0.00  0.00    -0.050 Br
ENDBRANCH   1  22
TORSDOF 3
