REMARK  Name = ZINC39673316
REMARK  10 active torsions:
REMARK  status: ('A' for Active; 'I' for Inactive)
REMARK    1  A    between atoms: C_1  and  C_2
REMARK    2  A    between atoms: C_2  and  C_3
REMARK    3  A    between atoms: C_3  and  C_4
REMARK    4  A    between atoms: C_3  and  C_6
REMARK    5  A    between atoms: C_4  and  C_5
REMARK    6  A    between atoms: C_10  and  C_19
REMARK    7  A    between atoms: N_21  and  C_22
REMARK    8  A    between atoms: C_22  and  C_23
REMARK    9  A    between atoms: C_26  and  O_29
REMARK   10  A    between atoms: O_29  and  C_30
REMARK                            x       y       z     vdW  Elec       q    Type
REMARK                         _______ _______ _______ _____ _____    ______ ____
ROOT
ATOM      1  C   UNL     1       0.557  -1.958  -1.197  0.00  0.00    +0.219 C 
ATOM      2  O   UNL     1      -0.162  -2.511  -0.391  0.00  0.00    -0.275 OA
ATOM      3  N   UNL     1       1.177  -2.678  -2.152  0.00  0.00    -0.300 N 
ATOM      4  C   UNL     1       2.010  -2.177  -3.271  0.00  0.00    +0.121 C 
ATOM      5  C   UNL     1       3.171  -3.192  -3.379  0.00  0.00    +0.100 C 
ATOM      6  C   UNL     1       2.620  -4.485  -2.756  0.00  0.00    -0.004 C 
ATOM      7  C   UNL     1       1.187  -4.152  -2.317  0.00  0.00    +0.115 C 
ATOM      8  C   UNL     1       3.456  -4.886  -1.544  0.00  0.00    -0.010 C 
ATOM      9  C   UNL     1       2.924  -6.205  -0.976  0.00  0.00    -0.082 C 
ATOM     10  N   UNL     1       2.992  -7.246  -2.008  0.00  0.00    +0.379 N 
ATOM     11  C   UNL     1       2.112  -6.897  -3.130  0.00  0.00    -0.082 C 
ATOM     12  C   UNL     1       2.610  -5.607  -3.789  0.00  0.00    -0.010 C 
ATOM     13  H   UNL     1       3.941  -7.329  -2.339  0.00  0.00    -0.086 HD
ATOM     14  H   UNL     1       2.699  -8.128  -1.614  0.00  0.00    -0.086 HD
ENDROOT
BRANCH   5  15
ATOM     15  C   UNL     1       3.538  -3.417  -4.823  0.00  0.00    +0.218 C 
ATOM     16  O   UNL     1       2.713  -3.236  -5.694  0.00  0.00    -0.275 OA
ATOM     17  N   UNL     1       4.782  -3.821  -5.147  0.00  0.00    -0.311 N 
ATOM     18  H   UNL     1       5.442  -3.966  -4.450  0.00  0.00    +0.149 HD
BRANCH  17  19
ATOM     19  C   UNL     1       5.139  -4.040  -6.551  0.00  0.00    +0.139 C 
BRANCH  19  20
ATOM     20  C   UNL     1       6.577  -4.483  -6.640  0.00  0.00    -0.030 A 
ATOM     21  C   UNL     1       7.583  -3.543  -6.766  0.00  0.00    +0.009 A 
ATOM     22  C   UNL     1       8.901  -3.946  -6.848  0.00  0.00    +0.046 A 
ATOM     23  C   UNL     1       9.216  -5.297  -6.805  0.00  0.00    +0.127 A 
ATOM     24  C   UNL     1       8.205  -6.239  -6.678  0.00  0.00    +0.046 A 
ATOM     25  C   UNL     1       6.888  -5.829  -6.591  0.00  0.00    +0.009 A 
BRANCH  23  26
ATOM     26  O   UNL     1      10.512  -5.697  -6.886  0.00  0.00    -0.434 OA
BRANCH  26  27
ATOM     27  C   UNL     1      10.762  -7.103  -6.835  0.00  0.00    +0.541 C 
ATOM     28  F   UNL     1      10.285  -7.617  -5.624  0.00  0.00    -0.166 F 
ATOM     29  F   UNL     1      10.107  -7.732  -7.899  0.00  0.00    -0.166 F 
ENDBRANCH  26  27
ENDBRANCH  23  26
ENDBRANCH  19  20
ENDBRANCH  17  19
ENDBRANCH   5  15
BRANCH   1  30
ATOM     30  C   UNL     1       0.755  -0.466  -1.130  0.00  0.00    +0.075 C 
BRANCH  30  32
ATOM     31  C   UNL     1      -0.110   1.740  -1.924  0.00  0.00    +0.004 C 
ATOM     32  C   UNL     1      -0.377   0.234  -1.884  0.00  0.00    +0.009 C 
ENDBRANCH  30  32
BRANCH  30  33
ATOM     33  C   UNL     1       0.749  -0.015   0.332  0.00  0.00    +0.009 C 
ATOM     34  C   UNL     1       1.963  -0.606   1.052  0.00  0.00    +0.004 C 
ENDBRANCH  30  33
ENDBRANCH   1  30
TORSDOF 8
