REMARK  Name = ZINC36624357
REMARK  7 active torsions:
REMARK  status: ('A' for Active; 'I' for Inactive)
REMARK    1  A    between atoms: C_4  and  C_7
REMARK    2  A    between atoms: C_7  and  C_9
REMARK    3  A    between atoms: C_7  and  N_29
REMARK    4  A    between atoms: C_9  and  N_10
REMARK    5  A    between atoms: C_11  and  C_13
REMARK    6  A    between atoms: C_15  and  S_20
REMARK    7  A    between atoms: S_20  and  N_23
REMARK                            x       y       z     vdW  Elec       q    Type
REMARK                         _______ _______ _______ _____ _____    ______ ____
ROOT
ATOM      1  N   UNL     1       5.278  -2.024  -1.392  0.00  0.00    -0.313 N 
ATOM      2  C   UNL     1       5.787  -2.554  -2.522  0.00  0.00    +0.245 C 
ATOM      3  O   UNL     1       5.184  -2.443  -3.571  0.00  0.00    -0.270 OA
ATOM      4  H   UNL     1       5.760  -2.112  -0.555  0.00  0.00    +0.149 HD
ENDROOT
BRANCH   2   5
ATOM      5  C   UNL     1       7.080  -3.270  -2.485  0.00  0.00    +0.057 A 
ATOM      6  C   UNL     1       7.773  -3.404  -1.281  0.00  0.00    +0.043 A 
ATOM      7  C   UNL     1       8.979  -4.073  -1.253  0.00  0.00    +0.106 A 
ATOM      8  C   UNL     1       9.502  -4.612  -2.416  0.00  0.00    +0.030 A 
ATOM      9  C   UNL     1       8.822  -4.483  -3.613  0.00  0.00    +0.022 A 
ATOM     10  C   UNL     1       7.610  -3.820  -3.654  0.00  0.00    +0.053 A 
ATOM     11 CL   UNL     1       6.753  -3.666  -5.156  0.00  0.00    -0.083 Cl
BRANCH   7  12
ATOM     12  S   UNL     1       9.855  -4.244   0.266  0.00  0.00    +0.061 S 
ATOM     13  O   UNL     1      11.221  -4.439  -0.073  0.00  0.00    -0.153 OA
ATOM     14  O   UNL     1       9.422  -3.182   1.105  0.00  0.00    -0.153 OA
BRANCH  12  15
ATOM     15  N   UNL     1       9.338  -5.648   0.975  0.00  0.00    -0.177 NA
ATOM     16  C   UNL     1       8.187  -5.646   1.889  0.00  0.00    +0.109 C 
ATOM     17  C   UNL     1       7.171  -6.685   1.405  0.00  0.00    +0.017 C 
ATOM     18  C   UNL     1       7.863  -8.044   1.268  0.00  0.00    +0.003 C 
ATOM     19  C   UNL     1       8.984  -7.945   0.231  0.00  0.00    +0.017 C 
ATOM     20  C   UNL     1      10.017  -6.921   0.697  0.00  0.00    +0.109 C 
ENDBRANCH  12  15
ENDBRANCH   7  12
ENDBRANCH   2   5
BRANCH   1  21
ATOM     21  C   UNL     1       3.997  -1.314  -1.428  0.00  0.00    +0.094 C 
BRANCH  21  22
ATOM     22  C   UNL     1       3.715  -0.701  -0.055  0.00  0.00    -0.020 C 
BRANCH  22  26
ATOM     23  C   UNL     1       6.625   2.313   0.781  0.00  0.00    +0.000 A 
ATOM     24  C   UNL     1       6.756   1.053   1.334  0.00  0.00    +0.000 A 
ATOM     25  C   UNL     1       5.815   0.077   1.063  0.00  0.00    +0.002 A 
ATOM     26  C   UNL     1       4.741   0.363   0.240  0.00  0.00    -0.059 A 
ATOM     27  C   UNL     1       4.610   1.623  -0.312  0.00  0.00    +0.002 A 
ATOM     28  C   UNL     1       5.552   2.598  -0.043  0.00  0.00    +0.000 A 
ENDBRANCH  22  26
BRANCH  22  29
ATOM     29  N   UNL     1       2.374  -0.101  -0.053  0.00  0.00    +0.385 N 
ATOM     30  C   UNL     1       1.344  -1.149  -0.267  0.00  0.00    -0.078 C 
ATOM     31  C   UNL     1       0.058  -0.505   0.310  0.00  0.00    -0.020 C 
ATOM     32  C   UNL     1       0.581   0.268   1.542  0.00  0.00    -0.020 C 
ATOM     33  C   UNL     1       2.081   0.489   1.271  0.00  0.00    -0.078 C 
ATOM     34  H   UNL     1       2.307   0.605  -0.771  0.00  0.00    -0.081 HD
ENDBRANCH  22  29
ENDBRANCH  21  22
ENDBRANCH   1  21
TORSDOF 7
