REMARK  Name = ZINC09430955
REMARK  10 active torsions:
REMARK  status: ('A' for Active; 'I' for Inactive)
REMARK    1  A    between atoms: C_1  and  C_2
REMARK    2  A    between atoms: C_5  and  C_37
REMARK    3  A    between atoms: C_6  and  C_8
REMARK    4  A    between atoms: C_8  and  N_9
REMARK    5  A    between atoms: C_12  and  C_15
REMARK    6  A    between atoms: C_15  and  N_16
REMARK    7  A    between atoms: C_17  and  C_19
REMARK    8  A    between atoms: C_19  and  C_20
REMARK    9  A    between atoms: C_20  and  C_21
REMARK   10  A    between atoms: C_33  and  C_36
REMARK                            x       y       z     vdW  Elec       q    Type
REMARK                         _______ _______ _______ _____ _____    ______ ____
ROOT
ATOM      1  N   UNL     1       4.223  -4.957   6.508  0.00  0.00    -0.315 N 
ATOM      2  C   UNL     1       5.490  -5.375   6.696  0.00  0.00    +0.213 C 
ATOM      3  O   UNL     1       6.350  -5.089   5.889  0.00  0.00    -0.276 OA
ATOM      4  H   UNL     1       3.536  -5.186   7.153  0.00  0.00    +0.149 HD
ENDROOT
BRANCH   1   5
ATOM      5  C   UNL     1       3.884  -4.156   5.329  0.00  0.00    +0.107 C 
BRANCH   5   9
ATOM      6  N   UNL     1      -0.174  -3.866   4.012  0.00  0.00    +0.382 N 
ATOM      7  C   UNL     1       0.555  -2.603   4.179  0.00  0.00    -0.078 C 
ATOM      8  C   UNL     1       2.061  -2.876   4.193  0.00  0.00    -0.014 C 
ATOM      9  C   UNL     1       2.392  -3.815   5.356  0.00  0.00    +0.003 C 
ATOM     10  C   UNL     1       1.571  -5.100   5.212  0.00  0.00    -0.014 C 
ATOM     11  C   UNL     1       0.084  -4.744   5.160  0.00  0.00    -0.078 C 
ATOM     12  H   UNL     1       0.135  -4.321   3.166  0.00  0.00    -0.081 HD
BRANCH   6  13
ATOM     13  C   UNL     1      -1.614  -3.591   3.921  0.00  0.00    -0.043 C 
BRANCH  13  19
ATOM     14  C   UNL     1      -2.528   0.801   1.703  0.00  0.00    +0.044 C 
ATOM     15  C   UNL     1      -2.333  -0.690   1.614  0.00  0.00    -0.050 A 
ATOM     16  C   UNL     1      -2.411  -1.325   0.388  0.00  0.00    +0.003 A 
ATOM     17  C   UNL     1      -2.231  -2.693   0.306  0.00  0.00    +0.004 A 
ATOM     18  C   UNL     1      -1.973  -3.427   1.450  0.00  0.00    -0.049 A 
ATOM     19  C   UNL     1      -1.894  -2.792   2.675  0.00  0.00    -0.061 A 
ATOM     20  C   UNL     1      -2.070  -1.423   2.756  0.00  0.00    +0.005 A 
ATOM     21  C   UNL     1      -1.779  -4.918   1.361  0.00  0.00    +0.044 C 
ENDBRANCH  13  19
ENDBRANCH   6  13
ENDBRANCH   5   9
ENDBRANCH   1   5
BRANCH   2  22
ATOM     22  C   UNL     1       5.840  -6.199   7.909  0.00  0.00    +0.103 C 
BRANCH  22  23
ATOM     23  C   UNL     1       7.331  -6.539   7.882  0.00  0.00    +0.087 C 
BRANCH  23  24
ATOM     24  C   UNL     1       7.680  -7.363   9.095  0.00  0.00    +0.156 A 
ATOM     25  N   UNL     1       8.066  -6.900  10.258  0.00  0.00    -0.132 NA
ATOM     26  N   UNL     1       8.283  -7.873  11.073  0.00  0.00    -0.128 NA
ATOM     27  C   UNL     1       8.042  -9.020  10.457  0.00  0.00    +0.178 A 
ATOM     28  N   UNL     1       7.646  -8.710   9.179  0.00  0.00    -0.195 N 
ATOM     29  N   UNL     1       7.316  -9.728   8.283  0.00  0.00    -0.148 NA
ATOM     30  C   UNL     1       7.377 -10.986   8.651  0.00  0.00    +0.142 A 
ATOM     31  C   UNL     1       7.775 -11.337   9.956  0.00  0.00    +0.049 A 
ATOM     32  C   UNL     1       8.111 -10.370  10.849  0.00  0.00    +0.053 A 
ATOM     33  N   UNL     1       7.043 -11.985   7.742  0.00  0.00    -0.314 N 
ATOM     34  C   UNL     1       6.748 -11.654   6.341  0.00  0.00    +0.107 C 
ATOM     35  C   UNL     1       5.383 -12.244   5.972  0.00  0.00    +0.022 C 
ATOM     36  C   UNL     1       5.380 -13.743   6.278  0.00  0.00    -0.011 C 
ATOM     37  C   UNL     1       5.611 -13.960   7.776  0.00  0.00    +0.022 C 
ATOM     38  C   UNL     1       6.984 -13.391   8.164  0.00  0.00    +0.107 C 
ATOM     39  C   UNL     1       4.030 -14.342   5.879  0.00  0.00    +0.007 C 
ENDBRANCH  23  24
ENDBRANCH  22  23
ENDBRANCH   2  22
TORSDOF 7
