REMARK  Name = ZINC10452917
REMARK  13 active torsions:
REMARK  status: ('A' for Active; 'I' for Inactive)
REMARK    1  A    between atoms: C_1  and  C_2
REMARK    2  A    between atoms: C_2  and  C_3
REMARK    3  A    between atoms: C_2  and  C_4
REMARK    4  A    between atoms: C_7  and  C_10
REMARK    5  A    between atoms: N_12  and  C_13
REMARK    6  A    between atoms: C_13  and  N_15
REMARK    7  A    between atoms: N_15  and  N_16
REMARK    8  A    between atoms: C_17  and  C_19
REMARK    9  A    between atoms: C_19  and  O_20
REMARK   10  A    between atoms: O_20  and  C_21
REMARK   11  A    between atoms: C_26  and  C_27
REMARK   12  A    between atoms: C_27  and  C_28
REMARK   13  A    between atoms: C_27  and  C_29
REMARK                            x       y       z     vdW  Elec       q    Type
REMARK                         _______ _______ _______ _____ _____    ______ ____
ROOT
ATOM      1  N   UNL     1       3.478   1.933  -0.021  0.00  0.00    -0.245 N 
ATOM      2  H   UNL     1       4.324   1.459  -0.031  0.00  0.00    +0.172 HD
ENDROOT
BRANCH   1   3
ATOM      3  N   UNL     1       3.459   3.333  -0.013  0.00  0.00    -0.232 N 
ATOM      4  C   UNL     1       4.617   4.023  -0.020  0.00  0.00    +0.267 C 
ATOM      5  O   UNL     1       5.675   3.431  -0.034  0.00  0.00    -0.271 OA
ATOM      6  H   UNL     1       2.612   3.807  -0.002  0.00  0.00    +0.173 HD
BRANCH   4   7
ATOM      7  C   UNL     1       4.596   5.530  -0.012  0.00  0.00    +0.326 C 
BRANCH   7   8
ATOM      8  O   UNL     1       5.937   6.024  -0.022  0.00  0.00    -0.482 OA
BRANCH   8   9
ATOM      9  C   UNL     1       6.096   7.374  -0.017  0.00  0.00    +0.125 A 
ATOM     10  C   UNL     1       4.986   8.205  -0.007  0.00  0.00    +0.046 A 
ATOM     11  C   UNL     1       5.151   9.577   0.004  0.00  0.00    +0.004 A 
ATOM     12  C   UNL     1       6.422  10.121  -0.005  0.00  0.00    +0.001 A 
ATOM     13  C   UNL     1       7.530   9.295  -0.020  0.00  0.00    +0.007 A 
ATOM     14  C   UNL     1       7.370   7.923  -0.026  0.00  0.00    -0.003 A 
BRANCH  14  15
ATOM     15  C   UNL     1       8.579   7.023  -0.043  0.00  0.00    +0.016 C 
ATOM     16  C   UNL     1       9.407   7.304  -1.298  0.00  0.00    +0.012 C 
ATOM     17  C   UNL     1       9.431   7.290   1.200  0.00  0.00    +0.012 C 
ENDBRANCH  14  15
ENDBRANCH   8   9
ENDBRANCH   7   8
ENDBRANCH   4   7
ENDBRANCH   1   3
BRANCH   1  18
ATOM     18  C   UNL     1       2.320   1.243  -0.013  0.00  0.00    +0.153 C 
ATOM     19  S   UNL     1       2.343  -0.469  -0.023  0.00  0.00    -0.017 S 
BRANCH  18  22
ATOM     20  C   UNL     1      -0.014   1.211   0.009  0.00  0.00    +0.250 C 
ATOM     21  O   UNL     1       0.002  -0.004   0.002  0.00  0.00    -0.270 OA
ATOM     22  N   UNL     1       1.143   1.901   0.001  0.00  0.00    -0.263 N 
ATOM     23  H   UNL     1       1.130   2.871   0.007  0.00  0.00    +0.157 HD
BRANCH  20  27
ATOM     24  C   UNL     1      -3.721   3.284   0.038  0.00  0.00    -0.045 A 
ATOM     25  C   UNL     1      -3.706   1.901   0.030  0.00  0.00    +0.004 A 
ATOM     26  C   UNL     1      -2.505   1.221   0.021  0.00  0.00    +0.013 A 
ATOM     27  C   UNL     1      -1.304   1.932   0.019  0.00  0.00    +0.037 A 
ATOM     28  C   UNL     1      -1.327   3.328   0.032  0.00  0.00    +0.013 A 
ATOM     29  C   UNL     1      -2.534   3.995   0.036  0.00  0.00    +0.004 A 
BRANCH  24  31
ATOM     30  C   UNL     1      -5.123   4.891   1.304  0.00  0.00    +0.012 C 
ATOM     31  C   UNL     1      -5.036   4.020   0.049  0.00  0.00    +0.013 C 
ATOM     32  C   UNL     1      -5.135   4.906  -1.194  0.00  0.00    +0.012 C 
ENDBRANCH  24  31
ENDBRANCH  20  27
ENDBRANCH  18  22
ENDBRANCH   1  18
TORSDOF 9
