REMARK  Name = ZINC38182897
REMARK  9 active torsions:
REMARK  status: ('A' for Active; 'I' for Inactive)
REMARK    1  A    between atoms: C_1  and  C_2
REMARK    2  A    between atoms: C_5  and  N_8
REMARK    3  A    between atoms: C_9  and  C_11
REMARK    4  A    between atoms: C_11  and  C_12
REMARK    5  A    between atoms: N_16  and  C_29
REMARK    6  A    between atoms: N_18  and  N_19
REMARK    7  A    between atoms: C_20  and  C_21
REMARK    8  A    between atoms: C_26  and  O_27
REMARK    9  A    between atoms: C_32  and  O_35
REMARK                            x       y       z     vdW  Elec       q    Type
REMARK                         _______ _______ _______ _____ _____    ______ ____
ROOT
ATOM      1  C   UNL     1      -0.250  -7.758   1.867  0.00  0.00    +0.149 C 
ATOM      2  C   UNL     1       0.323  -8.995   2.539  0.00  0.00    +0.239 C 
ATOM      3  O   UNL     1      -0.317 -10.018   2.659  0.00  0.00    -0.274 OA
ATOM      4  N   UNL     1       1.563  -8.887   2.985  0.00  0.00    -0.217 N 
ATOM      5  C   UNL     1       2.298  -7.726   2.852  0.00  0.00    +0.190 C 
ATOM      6  N   UNL     1       3.531  -7.494   3.250  0.00  0.00    -0.126 NA
ATOM      7  S   UNL     1       1.181  -6.610   2.012  0.00  0.00    -0.075 S 
ENDROOT
BRANCH   4   8
ATOM      8  C   UNL     1       2.153  -9.991   3.616  0.00  0.00    +0.043 A 
ATOM      9  C   UNL     1       2.308 -10.002   4.995  0.00  0.00    +0.027 A 
ATOM     10  C   UNL     1       2.889 -11.090   5.616  0.00  0.00    +0.047 A 
ATOM     11  C   UNL     1       3.318 -12.172   4.862  0.00  0.00    +0.117 A 
ATOM     12  C   UNL     1       3.163 -12.162   3.483  0.00  0.00    +0.047 A 
ATOM     13  C   UNL     1       2.577 -11.077   2.862  0.00  0.00    +0.027 A 
BRANCH  11  14
ATOM     14  O   UNL     1       3.890 -13.243   5.473  0.00  0.00    -0.507 OA
ATOM     15  H   UNL     1       3.260 -13.928   5.737  0.00  0.00    +0.292 HD
ENDBRANCH  11  14
ENDBRANCH   4   8
BRANCH   6  16
ATOM     16  N   UNL     1       4.249  -8.458   3.718  0.00  0.00    -0.155 NA
ATOM     17  C   UNL     1       4.943  -8.285   4.810  0.00  0.00    +0.146 C 
BRANCH  17  18
ATOM     18  C   UNL     1       5.853  -9.341   5.279  0.00  0.00    +0.036 A 
ATOM     19  C   UNL     1       6.515  -9.207   6.503  0.00  0.00    +0.013 A 
ATOM     20  C   UNL     1       7.367 -10.201   6.936  0.00  0.00    +0.001 A 
ATOM     21  C   UNL     1       7.569 -11.332   6.163  0.00  0.00    +0.004 A 
ATOM     22  C   UNL     1       6.921 -11.478   4.951  0.00  0.00    +0.046 A 
ATOM     23  C   UNL     1       6.057 -10.492   4.503  0.00  0.00    +0.125 A 
BRANCH  23  24
ATOM     24  O   UNL     1       5.415 -10.637   3.315  0.00  0.00    -0.506 OA
ATOM     25  H   UNL     1       5.934 -10.352   2.550  0.00  0.00    +0.292 HD
ENDBRANCH  23  24
ENDBRANCH  17  18
ENDBRANCH   6  16
BRANCH   1  26
ATOM     26  C   UNL     1      -0.594  -8.033   0.401  0.00  0.00    +0.120 C 
BRANCH  26  28
ATOM     27  N   UNL     1      -1.565  -6.798  -1.510  0.00  0.00    -0.285 N 
ATOM     28  C   UNL     1      -1.184  -6.792  -0.217  0.00  0.00    +0.219 C 
ATOM     29  O   UNL     1      -1.317  -5.787   0.449  0.00  0.00    -0.275 OA
ATOM     30  H   UNL     1      -1.524  -7.620  -2.023  0.00  0.00    +0.155 HD
BRANCH  27  35
ATOM     31  C   UNL     1      -3.402  -2.019  -3.952  0.00  0.00    +0.044 C 
ATOM     32  C   UNL     1      -2.914  -3.288  -3.303  0.00  0.00    -0.050 A 
ATOM     33  C   UNL     1      -1.947  -3.231  -2.317  0.00  0.00    +0.005 A 
ATOM     34  C   UNL     1      -1.497  -4.393  -1.721  0.00  0.00    +0.023 A 
ATOM     35  C   UNL     1      -2.018  -5.619  -2.112  0.00  0.00    +0.033 A 
ATOM     36  C   UNL     1      -2.990  -5.673  -3.102  0.00  0.00    +0.023 A 
ATOM     37  C   UNL     1      -3.439  -4.507  -3.692  0.00  0.00    +0.005 A 
ENDBRANCH  27  35
ENDBRANCH  26  28
ENDBRANCH   1  26
TORSDOF 8
