REMARK  Name = ZINC65250657
REMARK  8 active torsions:
REMARK  status: ('A' for Active; 'I' for Inactive)
REMARK    1  A    between atoms: C_1  and  C_2
REMARK    2  A    between atoms: C_6  and  N_20
REMARK    3  A    between atoms: C_7  and  C_12
REMARK    4  A    between atoms: C_14  and  C_17
REMARK    5  A    between atoms: N_20  and  C_21
REMARK    6  A    between atoms: C_26  and  C_27
REMARK    7  A    between atoms: C_27  and  O_29
REMARK    8  A    between atoms: O_29  and  C_30
REMARK                            x       y       z     vdW  Elec       q    Type
REMARK                         _______ _______ _______ _____ _____    ______ ____
ROOT
ATOM      1  C   UNL     1       0.252   1.952  -0.609  0.00  0.00    +0.065 C 
ATOM      2  C   UNL     1       0.282   0.453  -0.451  0.00  0.00    +0.041 A 
ATOM      3  C   UNL     1      -0.026  -0.349  -1.544  0.00  0.00    +0.024 A 
ATOM      4  C   UNL     1      -0.003  -1.711  -1.414  0.00  0.00    +0.015 A 
ATOM      5  C   UNL     1       0.338  -2.252  -0.164  0.00  0.00    +0.041 A 
ATOM      6  C   UNL     1       0.384  -3.649   0.044  0.00  0.00    +0.056 A 
ATOM      7  C   UNL     1       0.733  -4.107   1.323  0.00  0.00    +0.079 A 
ATOM      8  C   UNL     1       1.019  -3.172   2.330  0.00  0.00    +0.128 A 
ATOM      9  N   UNL     1       0.968  -1.883   2.107  0.00  0.00    -0.235 NA
ATOM     10  C   UNL     1       0.642  -1.380   0.909  0.00  0.00    +0.162 A 
ATOM     11  N   UNL     1       0.605  -0.059   0.714  0.00  0.00    -0.232 NA
ENDROOT
BRANCH   7  12
ATOM     12  C   UNL     1       0.799  -5.552   1.607  0.00  0.00    +0.262 A 
ATOM     13  N   UNL     1       1.040  -6.101   2.778  0.00  0.00    -0.191 NA
ATOM     14  C   UNL     1       1.025  -7.431   2.670  0.00  0.00    +0.175 A 
ATOM     15  N   UNL     1       0.775  -7.756   1.433  0.00  0.00    -0.061 NA
ATOM     16  O   UNL     1       0.617  -6.542   0.714  0.00  0.00    -0.333 OA
BRANCH  14  17
ATOM     17  C   UNL     1       1.260  -8.402   3.799  0.00  0.00    +0.060 C 
ATOM     18  C   UNL     1       1.402  -9.882   3.438  0.00  0.00    +0.012 C 
ATOM     19  C   UNL     1       0.133  -9.382   4.133  0.00  0.00    +0.012 C 
ENDBRANCH  14  17
ENDBRANCH   7  12
BRANCH   6  20
ATOM     20  N   UNL     1       0.094  -4.534  -0.975  0.00  0.00    -0.313 N 
ATOM     21  H   UNL     1      -0.279  -5.405  -0.770  0.00  0.00    +0.152 HD
BRANCH  20  22
ATOM     22  C   UNL     1       0.336  -4.175  -2.296  0.00  0.00    +0.045 A 
ATOM     23  C   UNL     1      -0.719  -4.050  -3.191  0.00  0.00    +0.024 A 
ATOM     24  C   UNL     1      -0.476  -3.693  -4.501  0.00  0.00    +0.002 A 
ATOM     25  C   UNL     1       0.819  -3.457  -4.936  0.00  0.00    +0.001 A 
ATOM     26  C   UNL     1       1.879  -3.576  -4.064  0.00  0.00    +0.017 A 
ATOM     27  C   UNL     1       1.649  -3.931  -2.732  0.00  0.00    +0.080 A 
BRANCH  27  28
ATOM     28  C   UNL     1       2.777  -4.054  -1.792  0.00  0.00    +0.341 C 
ATOM     29  O   UNL     1       2.588  -4.476  -0.668  0.00  0.00    -0.245 OA
BRANCH  28  30
ATOM     30  O   UNL     1       4.018  -3.697  -2.178  0.00  0.00    -0.464 OA
ATOM     31  C   UNL     1       5.064  -3.843  -1.216  0.00  0.00    +0.280 C 
ENDBRANCH  28  30
ENDBRANCH  27  28
ENDBRANCH  20  22
ENDBRANCH   6  20
TORSDOF 6
