REMARK  Name = ZINC39979534
REMARK  7 active torsions:
REMARK  status: ('A' for Active; 'I' for Inactive)
REMARK    1  A    between atoms: C_4  and  C_7
REMARK    2  A    between atoms: C_7  and  C_8
REMARK    3  A    between atoms: C_10  and  C_28
REMARK    4  A    between atoms: C_11  and  N_27
REMARK    5  A    between atoms: C_16  and  C_19
REMARK    6  A    between atoms: C_19  and  S_20
REMARK    7  A    between atoms: S_20  and  C_21
REMARK                            x       y       z     vdW  Elec       q    Type
REMARK                         _______ _______ _______ _____ _____    ______ ____
ROOT
ATOM      1  C   UNL     1       4.171  -0.963   1.399  0.00  0.00    +0.072 C 
ATOM      2  C   UNL     1       4.511   0.348   2.083  0.00  0.00    +0.093 C 
ATOM      3  C   UNL     1       5.783   0.681   2.387  0.00  0.00    +0.195 C 
ATOM      4  O   UNL     1       6.883  -0.063   2.168  0.00  0.00    -0.448 OA
ATOM      5  C   UNL     1       6.799  -1.081   1.168  0.00  0.00    +0.343 C 
ATOM      6  C   UNL     1       5.445  -1.763   1.403  0.00  0.00    +0.027 C 
ATOM      7  C   UNL     1       5.725  -3.030   1.586  0.00  0.00    +0.079 C 
ATOM      8  N   UNL     1       7.070  -3.217   1.602  0.00  0.00    -0.154 NA
ATOM      9  N   UNL     1       7.747  -2.175   1.398  0.00  0.00    -0.138 NA
ENDROOT
BRANCH   3  10
ATOM     10  N   UNL     1       5.975   1.903   2.980  0.00  0.00    -0.329 N 
ATOM     11  H   UNL     1       5.216   2.480   3.160  0.00  0.00    +0.145 HD
ATOM     12  H   UNL     1       6.870   2.192   3.219  0.00  0.00    +0.145 HD
ENDBRANCH   3  10
BRANCH   2  13
ATOM     13  C   UNL     1       3.455   1.256   2.414  0.00  0.00    +0.100 C 
ATOM     14  N   UNL     1       2.617   1.977   2.677  0.00  0.00    -0.191 NA
ENDBRANCH   2  13
BRANCH   1  15
ATOM     15  C   UNL     1       3.711  -0.707  -0.038  0.00  0.00    +0.048 C 
BRANCH  15  19
ATOM     16  C   UNL     1      -0.017   1.378   0.010  0.00  0.00    +0.000 A 
ATOM     17  C   UNL     1       1.171   2.086   0.002  0.00  0.00    +0.000 A 
ATOM     18  C   UNL     1       2.377   1.411  -0.013  0.00  0.00    +0.003 A 
ATOM     19  C   UNL     1       2.396   0.029  -0.020  0.00  0.00    -0.046 A 
ATOM     20  C   UNL     1       1.208  -0.679  -0.012  0.00  0.00    +0.003 A 
ATOM     21  C   UNL     1       0.002  -0.004   0.002  0.00  0.00    +0.000 A 
ENDBRANCH  15  19
ENDBRANCH   1  15
BRANCH   7  22
ATOM     22  C   UNL     1       4.701  -4.122   1.756  0.00  0.00    +0.131 C 
BRANCH  22  23
ATOM     23  S   UNL     1       4.601  -5.099   0.231  0.00  0.00    -0.119 S 
BRANCH  23  24
ATOM     24  C   UNL     1       3.379  -6.317   0.585  0.00  0.00    +0.008 A 
ATOM     25  C   UNL     1       2.752  -6.336   1.825  0.00  0.00    +0.015 A 
ATOM     26  C   UNL     1       1.795  -7.292   2.099  0.00  0.00    +0.001 A 
ATOM     27  C   UNL     1       1.459  -8.232   1.140  0.00  0.00    +0.000 A 
ATOM     28  C   UNL     1       2.081  -8.217  -0.095  0.00  0.00    +0.001 A 
ATOM     29  C   UNL     1       3.035  -7.259  -0.378  0.00  0.00    +0.015 A 
ENDBRANCH  23  24
ENDBRANCH  22  23
ENDBRANCH   7  22
TORSDOF 7
