REMARK  Name = ZINC36619859
REMARK  4 active torsions:
REMARK  status: ('A' for Active; 'I' for Inactive)
REMARK    1  A    between atoms: C_1  and  C_2
REMARK    2  A    between atoms: C_14  and  C_16
REMARK    3  A    between atoms: C_16  and  C_17
REMARK    4  A    between atoms: C_17  and  N_18
REMARK                            x       y       z     vdW  Elec       q    Type
REMARK                         _______ _______ _______ _____ _____    ______ ____
ROOT
ATOM      1  C   UNL     1      -0.019   1.526   0.010  0.00  0.00    +0.019 C 
ATOM      2  C   UNL     1       0.002  -0.004   0.002  0.00  0.00    +0.050 C 
ATOM      3  C   UNL     1      -1.426  -0.528   0.007  0.00  0.00    +0.033 C 
ATOM      4  C   UNL     1      -1.573  -2.005  -0.245  0.00  0.00    +0.115 C 
ATOM      5  N   UNL     1      -1.028  -2.798   0.868  0.00  0.00    -0.270 N 
ATOM      6  C   UNL     1       0.319  -3.182   0.816  0.00  0.00    +0.050 A 
ATOM      7  C   UNL     1       0.648  -4.508   0.560  0.00  0.00    +0.024 A 
ATOM      8  C   UNL     1       1.977  -4.878   0.462  0.00  0.00    +0.002 A 
ATOM      9  C   UNL     1       2.984  -3.941   0.612  0.00  0.00    +0.001 A 
ATOM     10  C   UNL     1       2.666  -2.621   0.886  0.00  0.00    +0.016 A 
ATOM     11  C   UNL     1       1.338  -2.259   1.007  0.00  0.00    +0.030 A 
ATOM     12  S   UNL     1       0.888  -0.603   1.472  0.00  0.00    -0.120 S 
ATOM     13  C   UNL     1      -1.806  -3.146   1.912  0.00  0.00    +0.222 C 
ATOM     14  O   UNL     1      -2.970  -2.806   1.941  0.00  0.00    -0.275 OA
ENDROOT
BRANCH  13  15
ATOM     15  C   UNL     1      -1.229  -3.958   3.042  0.00  0.00    +0.119 C 
BRANCH  15  16
ATOM     16  C   UNL     1      -2.314  -4.215   4.091  0.00  0.00    +0.157 C 
BRANCH  16  17
ATOM     17  N   UNL     1      -1.753  -5.005   5.190  0.00  0.00    -0.225 N 
ATOM     18  C   UNL     1      -1.203  -4.366   6.243  0.00  0.00    +0.275 A 
ATOM     19  O   UNL     1      -1.171  -3.148   6.281  0.00  0.00    -0.266 OA
ATOM     20  C   UNL     1      -0.642  -5.163   7.342  0.00  0.00    +0.053 A 
ATOM     21  C   UNL     1      -0.059  -4.569   8.460  0.00  0.00    +0.014 A 
ATOM     22  C   UNL     1       0.451  -5.364   9.463  0.00  0.00    +0.001 A 
ATOM     23  C   UNL     1       0.389  -6.748   9.370  0.00  0.00    +0.001 A 
ATOM     24  C   UNL     1      -0.183  -7.356   8.274  0.00  0.00    +0.014 A 
ATOM     25  C   UNL     1      -0.706  -6.571   7.247  0.00  0.00    +0.055 A 
ATOM     26  C   UNL     1      -1.326  -7.166   6.058  0.00  0.00    +0.295 A 
ATOM     27  O   UNL     1      -1.403  -8.515   5.936  0.00  0.00    -0.264 OA
ATOM     28  N   UNL     1      -1.809  -6.397   5.122  0.00  0.00    -0.125 NA
ENDBRANCH  16  17
ENDBRANCH  15  16
ENDBRANCH  13  15
TORSDOF 3
