REMARK  Name = ZINC15105682
REMARK  15 active torsions:
REMARK  status: ('A' for Active; 'I' for Inactive)
REMARK    1  A    between atoms: C_1  and  C_2
REMARK    2  A    between atoms: C_2  and  C_3
REMARK    3  A    between atoms: C_2  and  C_4
REMARK    4  A    between atoms: C_4  and  N_5
REMARK    5  A    between atoms: C_6  and  N_37
REMARK    6  A    between atoms: C_7  and  N_14
REMARK    7  A    between atoms: N_14  and  C_15
REMARK    8  A    between atoms: C_15  and  C_16
REMARK    9  A    between atoms: C_16  and  C_17
REMARK   10  A    between atoms: C_16  and  C_18
REMARK   11  A    between atoms: C_19  and  C_21
REMARK   12  A    between atoms: C_21  and  N_77
REMARK   13  A    between atoms: C_27  and  C_29
REMARK   14  A    between atoms: C_32  and  O_35
REMARK   15  A    between atoms: O_35  and  C_36
REMARK                            x       y       z     vdW  Elec       q    Type
REMARK                         _______ _______ _______ _____ _____    ______ ____
ROOT
ATOM      1  N   UNL     1      -0.254   1.388  -0.138  0.00  0.00    -0.266 N 
ATOM      2  C   UNL     1      -0.266   0.062   0.110  0.00  0.00    +0.203 C 
ATOM      3  O   UNL     1       0.774  -0.564   0.115  0.00  0.00    -0.277 OA
ENDROOT
BRANCH   1   6
ATOM      4  N   UNL     1      -2.948   3.796   0.526  0.00  0.00    -0.280 N 
ATOM      5  C   UNL     1      -1.755   3.122   0.645  0.00  0.00    +0.127 A 
ATOM      6  C   UNL     1      -1.469   2.099  -0.235  0.00  0.00    +0.140 A 
ATOM      7  C   UNL     1      -2.407   1.780  -1.235  0.00  0.00    +0.277 A 
ATOM      8  O   UNL     1      -2.177   0.883  -2.029  0.00  0.00    -0.266 OA
ATOM      9  N   UNL     1      -3.563   2.467  -1.305  0.00  0.00    -0.273 N 
ATOM     10  H   UNL     1      -4.234   2.236  -2.009  0.00  0.00    +0.173 HD
ATOM     11  C   UNL     1      -3.825   3.462  -0.438  0.00  0.00    +0.331 A 
ATOM     12  O   UNL     1      -4.875   4.069  -0.527  0.00  0.00    -0.246 OA
BRANCH   5  13
ATOM     13  N   UNL     1      -0.860   3.463   1.630  0.00  0.00    -0.343 N 
ATOM     14  H   UNL     1       0.010   3.034   1.665  0.00  0.00    +0.144 HD
ATOM     15  H   UNL     1      -1.096   4.133   2.290  0.00  0.00    +0.144 HD
ENDBRANCH   5  13
BRANCH   4  16
ATOM     16  C   UNL     1      -3.265   4.885   1.453  0.00  0.00    +0.131 C 
BRANCH  16  18
ATOM     17  C   UNL     1      -3.192   7.360   1.788  0.00  0.00    +0.009 C 
ATOM     18  C   UNL     1      -2.752   6.208   0.881  0.00  0.00    +0.003 C 
ATOM     19  C   UNL     1      -1.225   6.173   0.806  0.00  0.00    +0.009 C 
ENDBRANCH  16  18
ENDBRANCH   4  16
ENDBRANCH   1   6
BRANCH   1  20
ATOM     20  C   UNL     1       1.021   2.089  -0.313  0.00  0.00    +0.117 C 
BRANCH  20  21
ATOM     21  C   UNL     1       1.348   2.188  -1.804  0.00  0.00    +0.001 C 
ATOM     22  C   UNL     1       2.619   3.020  -1.993  0.00  0.00    +0.009 C 
ATOM     23  C   UNL     1       1.567   0.785  -2.373  0.00  0.00    +0.009 C 
ENDBRANCH  20  21
ENDBRANCH   1  20
BRANCH   2  24
ATOM     24  C   UNL     1      -1.570  -0.642   0.381  0.00  0.00    +0.020 C 
BRANCH  24  31
ATOM     25  C   UNL     1      -0.796  -2.615  -0.804  0.00  0.00    -0.077 C 
ATOM     26  C   UNL     1       0.072  -3.806  -0.486  0.00  0.00    -0.019 C 
ATOM     27  C   UNL     1      -0.707  -5.126  -0.617  0.00  0.00    -0.002 C 
ATOM     28  C   UNL     1      -2.135  -5.012  -0.045  0.00  0.00    -0.001 C 
ATOM     29  C   UNL     1      -2.182  -4.238   1.248  0.00  0.00    -0.011 C 
ATOM     30  C   UNL     1      -2.473  -2.754   0.936  0.00  0.00    -0.037 C 
ATOM     31  N   UNL     1      -1.297  -2.086   0.503  0.00  0.00    +0.390 N 
ATOM     32  H   UNL     1      -0.567  -2.228   1.211  0.00  0.00    -0.080 HD
BRANCH  30  33
ATOM     33  C   UNL     1      -2.954  -2.074   2.192  0.00  0.00    -0.061 A 
ATOM     34  C   UNL     1      -2.040  -1.629   3.129  0.00  0.00    +0.005 A 
ATOM     35  C   UNL     1      -2.478  -1.000   4.279  0.00  0.00    +0.046 A 
ATOM     36  C   UNL     1      -3.837  -0.826   4.498  0.00  0.00    +0.120 A 
ATOM     37  C   UNL     1      -4.753  -1.279   3.559  0.00  0.00    +0.046 A 
ATOM     38  C   UNL     1      -4.309  -1.902   2.408  0.00  0.00    +0.005 A 
BRANCH  36  39
ATOM     39  O   UNL     1      -4.271  -0.212   5.630  0.00  0.00    -0.495 OA
ATOM     40  C   UNL     1      -3.273   0.228   6.553  0.00  0.00    +0.277 C 
ENDBRANCH  36  39
ENDBRANCH  30  33
ENDBRANCH  24  31
ENDBRANCH   2  24
TORSDOF 10
