REMARK  Name = ZINC01128636
REMARK  6 active torsions:
REMARK  status: ('A' for Active; 'I' for Inactive)
REMARK    1  A    between atoms: C_11  and  N_22
REMARK    2  A    between atoms: C_13  and  S_15
REMARK    3  A    between atoms: S_15  and  C_16
REMARK    4  A    between atoms: N_20  and  N_21
REMARK    5  A    between atoms: N_22  and  S_23
REMARK    6  A    between atoms: S_23  and  C_26
REMARK                            x       y       z     vdW  Elec       q    Type
REMARK                         _______ _______ _______ _____ _____    ______ ____
ROOT
ATOM      1  C   UNL     1       1.262   2.366  -0.021  0.00  0.00    +0.001 A 
ATOM      2  C   UNL     1       1.135   3.719   0.107  0.00  0.00    +0.008 A 
ATOM      3  C   UNL     1      -0.153   4.275   0.170  0.00  0.00    -0.017 A 
ATOM      4  C   UNL     1      -0.418   5.649   0.300  0.00  0.00    +0.008 A 
ATOM      5  C   UNL     1      -1.716   6.067   0.350  0.00  0.00    +0.001 A 
ATOM      6  C   UNL     1      -2.791   5.178   0.276  0.00  0.00    +0.005 A 
ATOM      7  C   UNL     1      -2.570   3.840   0.150  0.00  0.00    -0.024 A 
ATOM      8  C   UNL     1      -1.251   3.399   0.098  0.00  0.00    -0.009 A 
ATOM      9  C   UNL     1      -1.107   2.022  -0.038  0.00  0.00    -0.019 A 
ATOM     10  C   UNL     1       0.156   1.515  -0.091  0.00  0.00    +0.006 A 
ATOM     11  C   UNL     1      -2.492   1.425  -0.076  0.00  0.00    +0.125 C 
ATOM     12  C   UNL     1      -3.457   2.624   0.044  0.00  0.00    +0.108 C 
ENDROOT
BRANCH  11  13
ATOM     13  N   UNL     1      -2.684   0.504   1.047  0.00  0.00    -0.181 NA
ATOM     14  H   UNL     1      -2.908   0.850   1.925  0.00  0.00    +0.149 HD
BRANCH  13  15
ATOM     15  S   UNL     1      -2.518  -1.128   0.818  0.00  0.00    +0.059 S 
ATOM     16  O   UNL     1      -2.735  -1.740   2.082  0.00  0.00    -0.153 OA
ATOM     17  O   UNL     1      -3.287  -1.457  -0.330  0.00  0.00    -0.153 OA
BRANCH  15  18
ATOM     18  C   UNL     1      -0.833  -1.426   0.398  0.00  0.00    +0.105 A 
ATOM     19  C   UNL     1      -0.439  -1.413  -0.927  0.00  0.00    +0.030 A 
ATOM     20  C   UNL     1       0.884  -1.641  -1.257  0.00  0.00    +0.022 A 
ATOM     21  C   UNL     1       1.811  -1.894  -0.262  0.00  0.00    +0.041 A 
ATOM     22  C   UNL     1       1.415  -1.913   1.063  0.00  0.00    +0.022 A 
ATOM     23  C   UNL     1       0.093  -1.679   1.393  0.00  0.00    +0.030 A 
ATOM     24 CL   UNL     1       3.471  -2.189  -0.676  0.00  0.00    -0.084 Cl
ENDBRANCH  15  18
ENDBRANCH  13  15
ENDBRANCH  11  13
BRANCH  12  25
ATOM     25  S   UNL     1      -4.504   2.737  -1.428  0.00  0.00    -0.074 S 
BRANCH  25  26
ATOM     26  C   UNL     1      -5.574   1.365  -1.149  0.00  0.00    +0.209 A 
ATOM     27  N   UNL     1      -5.604   0.604  -0.080  0.00  0.00    -0.121 NA
ATOM     28  N   UNL     1      -6.507  -0.301  -0.214  0.00  0.00    -0.135 NA
ATOM     29  C   UNL     1      -7.101  -0.173  -1.367  0.00  0.00    +0.244 A 
ATOM     30  N   UNL     1      -6.532   0.897  -2.001  0.00  0.00    -0.231 N 
BRANCH  30  31
ATOM     31  N   UNL     1      -6.854   1.392  -3.233  0.00  0.00    -0.295 N 
ATOM     32  H   UNL     1      -6.307   0.949  -3.955  0.00  0.00    +0.163 HD
ATOM     33  H   UNL     1      -7.842   1.293  -3.416  0.00  0.00    +0.163 HD
ENDBRANCH  30  31
ENDBRANCH  25  26
ENDBRANCH  12  25
TORSDOF 6
