REMARK  Name = ZINC37578205
REMARK  12 active torsions:
REMARK  status: ('A' for Active; 'I' for Inactive)
REMARK    1  A    between atoms: C_1  and  C_2
REMARK    2  A    between atoms: C_5  and  C_8
REMARK    3  A    between atoms: C_8  and  N_9
REMARK    4  A    between atoms: C_16  and  C_18
REMARK    5  A    between atoms: N_20  and  C_21
REMARK    6  A    between atoms: C_21  and  C_23
REMARK    7  A    between atoms: C_21  and  C_24
REMARK    8  A    between atoms: N_26  and  C_27
REMARK    9  A    between atoms: C_27  and  C_28
REMARK   10  A    between atoms: C_28  and  C_29
REMARK   11  A    between atoms: C_29  and  C_30
REMARK   12  A    between atoms: C_29  and  C_31
REMARK                            x       y       z     vdW  Elec       q    Type
REMARK                         _______ _______ _______ _____ _____    ______ ____
ROOT
ATOM      1  N   UNL     1       1.447  -4.746  -0.032  0.00  0.00    -0.292 N 
ATOM      2  C   UNL     1       2.139  -4.970  -1.291  0.00  0.00    +0.110 C 
ATOM      3  C   UNL     1       2.977  -3.776  -1.747  0.00  0.00    +0.042 C 
ATOM      4  C   UNL     1       3.769  -3.214  -0.560  0.00  0.00    +0.146 C 
ATOM      5  N   UNL     1       4.330  -4.311   0.233  0.00  0.00    -0.258 N 
ATOM      6  C   UNL     1       3.567  -5.138   1.016  0.00  0.00    +0.124 A 
ATOM      7  C   UNL     1       4.394  -6.040   1.598  0.00  0.00    +0.067 A 
ATOM      8  C   UNL     1       5.685  -5.707   1.130  0.00  0.00    +0.148 A 
ATOM      9  N   UNL     1       5.559  -4.666   0.324  0.00  0.00    -0.166 NA
ATOM     10  C   UNL     1       2.103  -4.973   1.133  0.00  0.00    +0.265 C 
ATOM     11  O   UNL     1       1.527  -5.039   2.201  0.00  0.00    -0.268 OA
ENDROOT
BRANCH   8  12
ATOM     12  C   UNL     1       6.945  -6.396   1.476  0.00  0.00    +0.265 C 
ATOM     13  O   UNL     1       6.929  -7.347   2.233  0.00  0.00    -0.268 OA
ATOM     14  N   UNL     1       8.112  -5.970   0.954  0.00  0.00    -0.299 N 
ATOM     15  H   UNL     1       8.125  -5.210   0.350  0.00  0.00    +0.150 HD
BRANCH  14  16
ATOM     16  C   UNL     1       9.361  -6.653   1.297  0.00  0.00    +0.156 C 
ATOM     17  C   UNL     1       9.556  -7.856   0.373  0.00  0.00    +0.038 C 
BRANCH  16  18
ATOM     18  C   UNL     1      10.517  -5.700   1.131  0.00  0.00    +0.233 C 
ATOM     19  O   UNL     1      10.317  -4.562   0.762  0.00  0.00    -0.274 OA
ATOM     20  N   UNL     1      11.774  -6.112   1.393  0.00  0.00    -0.314 N 
ATOM     21  H   UNL     1      11.934  -7.022   1.688  0.00  0.00    +0.149 HD
BRANCH  20  22
ATOM     22  C   UNL     1      12.897  -5.186   1.231  0.00  0.00    +0.104 C 
BRANCH  22  23
ATOM     23  C   UNL     1      14.202  -5.900   1.590  0.00  0.00    +0.022 C 
BRANCH  23  24
ATOM     24  C   UNL     1      15.375  -4.933   1.421  0.00  0.00    -0.016 C 
ATOM     25  C   UNL     1      15.246  -3.792   2.433  0.00  0.00    +0.007 C 
ATOM     26  C   UNL     1      16.690  -5.679   1.659  0.00  0.00    +0.007 C 
ENDBRANCH  23  24
ENDBRANCH  22  23
ENDBRANCH  20  22
ENDBRANCH  16  18
ENDBRANCH  14  16
ENDBRANCH   8  12
BRANCH   1  27
ATOM     27  C   UNL     1       0.059  -4.275  -0.021  0.00  0.00    +0.143 C 
BRANCH  27  32
ATOM     28  C   UNL     1      -0.018   1.503   0.010  0.00  0.00    +0.044 C 
ATOM     29  C   UNL     1       0.002  -0.004   0.002  0.00  0.00    -0.050 A 
ATOM     30  C   UNL     1       0.006  -0.689  -1.199  0.00  0.00    +0.003 A 
ATOM     31  C   UNL     1       0.025  -2.071  -1.206  0.00  0.00    +0.005 A 
ATOM     32  C   UNL     1       0.040  -2.768  -0.013  0.00  0.00    -0.030 A 
ATOM     33  C   UNL     1       0.037  -2.084   1.188  0.00  0.00    +0.005 A 
ATOM     34  C   UNL     1       0.023  -0.702   1.195  0.00  0.00    +0.003 A 
ENDBRANCH  27  32
ENDBRANCH   1  27
TORSDOF 8
