REMARK  Name = ZINC35808734
REMARK  11 active torsions:
REMARK  status: ('A' for Active; 'I' for Inactive)
REMARK    1  A    between atoms: C_1  and  C_2
REMARK    2  A    between atoms: C_12  and  C_22
REMARK    3  A    between atoms: C_15  and  C_18
REMARK    4  A    between atoms: C_18  and  C_19
REMARK    5  A    between atoms: C_19  and  S_20
REMARK    6  A    between atoms: S_20  and  C_21
REMARK    7  A    between atoms: N_24  and  C_25
REMARK    8  A    between atoms: C_27  and  O_33
REMARK    9  A    between atoms: C_30  and  O_31
REMARK   10  A    between atoms: O_31  and  C_32
REMARK   11  A    between atoms: O_33  and  C_34
REMARK                            x       y       z     vdW  Elec       q    Type
REMARK                         _______ _______ _______ _____ _____    ______ ____
ROOT
ATOM      1  C   UNL     1      -0.078   1.452  -0.081  0.00  0.00    +0.046 C 
ATOM      2  C   UNL     1      -0.056  -0.055  -0.068  0.00  0.00    -0.028 A 
ATOM      3  C   UNL     1      -0.069  -0.754  -1.257  0.00  0.00    +0.025 A 
ATOM      4  C   UNL     1      -0.049  -2.137  -1.255  0.00  0.00    +0.042 A 
ATOM      5  C   UNL     1      -0.014  -2.824  -0.052  0.00  0.00    +0.024 A 
ATOM      6  C   UNL     1       0.000  -2.129   1.136  0.00  0.00    -0.026 A 
ATOM      7  C   UNL     1      -0.016  -0.738   1.146  0.00  0.00    +0.039 A 
ATOM      8  N   UNL     1       0.009  -0.264   2.459  0.00  0.00    -0.286 N 
ATOM      9  C   UNL     1       0.047  -1.264   3.359  0.00  0.00    +0.211 C 
ATOM     10  O   UNL     1       0.074  -1.149   4.567  0.00  0.00    -0.277 OA
ATOM     11  C   UNL     1       0.037  -2.553   2.579  0.00  0.00    +0.049 C 
ATOM     12  C   UNL     1      -1.183  -3.413   2.933  0.00  0.00    +0.076 C 
ATOM     13  C   UNL     1      -0.592  -4.757   3.423  0.00  0.00    -0.004 C 
ATOM     14  C   UNL     1       0.822  -4.766   2.789  0.00  0.00    -0.068 C 
ATOM     15  N   UNL     1       1.244  -3.343   2.870  0.00  0.00    +0.394 N 
ATOM     16 CL   UNL     1      -0.068  -3.011  -2.755  0.00  0.00    -0.084 Cl
ATOM     17  H   UNL     1      -0.000   0.677   2.696  0.00  0.00    +0.155 HD
ATOM     18  H   UNL     1       1.959  -3.152   2.184  0.00  0.00    -0.083 HD
ATOM     19  H   UNL     1       1.583  -3.133   3.797  0.00  0.00    -0.083 HD
ENDROOT
BRANCH  12  20
ATOM     20  C   UNL     1      -1.985  -2.759   4.028  0.00  0.00    +0.220 C 
ATOM     21  O   UNL     1      -1.801  -3.073   5.185  0.00  0.00    -0.275 OA
ATOM     22  N   UNL     1      -2.908  -1.825   3.722  0.00  0.00    -0.282 N 
ATOM     23  H   UNL     1      -3.097  -1.616   2.794  0.00  0.00    +0.155 HD
BRANCH  22  24
ATOM     24  C   UNL     1      -3.594  -1.156   4.744  0.00  0.00    +0.079 A 
ATOM     25  C   UNL     1      -3.749  -1.757   5.985  0.00  0.00    +0.072 A 
ATOM     26  C   UNL     1      -4.428  -1.093   6.995  0.00  0.00    +0.122 A 
ATOM     27  C   UNL     1      -4.952   0.171   6.765  0.00  0.00    +0.049 A 
ATOM     28  C   UNL     1      -4.799   0.771   5.529  0.00  0.00    +0.051 A 
ATOM     29  C   UNL     1      -4.116   0.115   4.519  0.00  0.00    +0.141 A 
BRANCH  29  30
ATOM     30  O   UNL     1      -3.960   0.709   3.305  0.00  0.00    -0.493 OA
ATOM     31  C   UNL     1      -4.521   2.014   3.144  0.00  0.00    +0.277 C 
ENDBRANCH  29  30
BRANCH  26  32
ATOM     32  O   UNL     1      -4.582  -1.681   8.211  0.00  0.00    -0.495 OA
ATOM     33  C   UNL     1      -5.292  -0.940   9.205  0.00  0.00    +0.277 C 
ENDBRANCH  26  32
ENDBRANCH  22  24
ENDBRANCH  12  20
BRANCH  14  34
ATOM     34  C   UNL     1       1.768  -5.660   3.594  0.00  0.00    -0.005 C 
BRANCH  34  35
ATOM     35  C   UNL     1       3.128  -5.721   2.896  0.00  0.00    +0.067 C 
BRANCH  35  36
ATOM     36  S   UNL     1       4.250  -6.781   3.850  0.00  0.00    -0.164 S 
ATOM     37  C   UNL     1       5.796  -6.748   2.903  0.00  0.00    +0.084 C 
ENDBRANCH  35  36
ENDBRANCH  34  35
ENDBRANCH  14  34
TORSDOF 7
