REMARK  Name = ZINC36862618
REMARK  5 active torsions:
REMARK  status: ('A' for Active; 'I' for Inactive)
REMARK    1  A    between atoms: C_1  and  C_2
REMARK    2  A    between atoms: C_2  and  N_3
REMARK    3  A    between atoms: C_5  and  N_20
REMARK    4  A    between atoms: C_7  and  C_8
REMARK    5  A    between atoms: N_10  and  C_11
REMARK                            x       y       z     vdW  Elec       q    Type
REMARK                         _______ _______ _______ _____ _____    ______ ____
ROOT
ATOM      1  C   UNL     1      -2.201   0.402  -2.413  0.00  0.00    +0.265 C 
ATOM      2  O   UNL     1      -1.398   1.281  -2.665  0.00  0.00    -0.268 OA
ATOM      3  N   UNL     1      -2.813  -0.259  -3.416  0.00  0.00    -0.278 N 
ATOM      4  H   UNL     1      -3.490  -0.924  -3.216  0.00  0.00    +0.155 HD
ENDROOT
BRANCH   3   5
ATOM      5  C   UNL     1      -2.471   0.015  -4.745  0.00  0.00    +0.062 A 
ATOM      6  C   UNL     1      -1.136   0.128  -5.112  0.00  0.00    +0.041 A 
ATOM      7  C   UNL     1      -0.802   0.398  -6.425  0.00  0.00    +0.032 A 
ATOM      8  C   UNL     1      -1.796   0.556  -7.375  0.00  0.00    +0.020 A 
ATOM      9  C   UNL     1      -3.127   0.445  -7.013  0.00  0.00    +0.032 A 
ATOM     10  C   UNL     1      -3.467   0.168  -5.702  0.00  0.00    +0.041 A 
ATOM     11 BR   UNL     1      -5.286   0.006  -5.211  0.00  0.00    -0.048 Br
ATOM     12 BR   UNL     1      -1.334   0.927  -9.171  0.00  0.00    -0.050 Br
ATOM     13 BR   UNL     1       0.223  -0.086  -3.814  0.00  0.00    -0.048 Br
ENDBRANCH   3   5
BRANCH   1  18
ATOM     14  N   UNL     1      -2.035   0.717   0.096  0.00  0.00    -0.342 N 
ATOM     15  C   UNL     1      -2.540   0.109   1.202  0.00  0.00    +0.109 A 
ATOM     16  C   UNL     1      -3.321  -0.932   0.811  0.00  0.00    +0.043 A 
ATOM     17  C   UNL     1      -3.303  -0.977  -0.590  0.00  0.00    +0.055 A 
ATOM     18  C   UNL     1      -2.502   0.061  -1.020  0.00  0.00    +0.106 A 
BRANCH  16  19
ATOM     19  N   UNL     1      -4.021  -1.810   1.660  0.00  0.00    -0.357 N 
ATOM     20  H   UNL     1      -3.969  -1.697   2.622  0.00  0.00    +0.142 HD
ATOM     21  H   UNL     1      -4.554  -2.526   1.283  0.00  0.00    +0.142 HD
ENDBRANCH  16  19
BRANCH  14  23
ATOM     22  C   UNL     1      -1.965   3.148  -0.167  0.00  0.00    +0.027 C 
ATOM     23  C   UNL     1      -1.146   1.881   0.092  0.00  0.00    +0.118 C 
ENDBRANCH  14  23
ENDBRANCH   1  18
TORSDOF 4
