REMARK  Name = ZINC36585825
REMARK  16 active torsions:
REMARK  status: ('A' for Active; 'I' for Inactive)
REMARK    1  A    between atoms: C_1  and  C_2
REMARK    2  A    between atoms: C_2  and  C_3
REMARK    3  A    between atoms: C_2  and  C_4
REMARK    4  A    between atoms: C_2  and  N_5
REMARK    5  A    between atoms: C_6  and  C_8
REMARK    6  A    between atoms: C_8  and  C_10
REMARK    7  A    between atoms: C_8  and  N_19
REMARK    8  A    between atoms: C_11  and  O_18
REMARK    9  A    between atoms: C_13  and  O_17
REMARK   10  A    between atoms: C_15  and  O_16
REMARK   11  A    between atoms: N_19  and  C_32
REMARK   12  A    between atoms: C_20  and  C_22
REMARK   13  A    between atoms: C_24  and  N_29
REMARK   14  A    between atoms: C_32  and  C_33
REMARK   15  A    between atoms: C_32  and  C_34
REMARK   16  A    between atoms: C_32  and  C_35
REMARK                            x       y       z     vdW  Elec       q    Type
REMARK                         _______ _______ _______ _____ _____    ______ ____
ROOT
ATOM      1  C   UNL     1       4.863  -2.262  -3.393  0.00  0.00    +0.200 C 
ENDROOT
BRANCH   1   2
ATOM      2  C   UNL     1       5.546  -2.283  -4.736  0.00  0.00    +0.065 A 
ATOM      3  C   UNL     1       6.791  -1.691  -4.891  0.00  0.00    +0.129 A 
ATOM      4  C   UNL     1       7.419  -1.711  -6.127  0.00  0.00    +0.091 A 
ATOM      5  C   UNL     1       6.803  -2.322  -7.208  0.00  0.00    +0.124 A 
ATOM      6  C   UNL     1       5.559  -2.915  -7.053  0.00  0.00    +0.091 A 
ATOM      7  C   UNL     1       4.932  -2.899  -5.816  0.00  0.00    +0.129 A 
BRANCH   7   8
ATOM      8  O   UNL     1       3.715  -3.484  -5.663  0.00  0.00    -0.506 OA
ATOM      9  H   UNL     1       2.970  -2.891  -5.830  0.00  0.00    +0.292 HD
ENDBRANCH   7   8
BRANCH   5  10
ATOM     10  O   UNL     1       7.418  -2.341  -8.419  0.00  0.00    -0.507 OA
ATOM     11  H   UNL     1       7.987  -3.110  -8.560  0.00  0.00    +0.292 HD
ENDBRANCH   5  10
BRANCH   3  12
ATOM     12  O   UNL     1       7.394  -1.091  -3.831  0.00  0.00    -0.506 OA
ATOM     13  H   UNL     1       7.901  -1.697  -3.273  0.00  0.00    +0.292 HD
ENDBRANCH   3  12
ENDBRANCH   1   2
BRANCH   1  15
ATOM     14  N   UNL     1       5.709  -4.398  -2.478  0.00  0.00    -0.309 N 
ATOM     15  C   UNL     1       5.678  -3.053  -2.402  0.00  0.00    +0.239 C 
ATOM     16  O   UNL     1       6.306  -2.480  -1.538  0.00  0.00    -0.273 OA
ATOM     17  H   UNL     1       5.207  -4.857  -3.169  0.00  0.00    +0.149 HD
BRANCH  14  19
ATOM     18  C   UNL     1       5.995  -4.889  -0.099  0.00  0.00    +0.031 C 
ATOM     19  C   UNL     1       6.502  -5.168  -1.515  0.00  0.00    +0.026 C 
ATOM     20  C   UNL     1       7.972  -4.758  -1.621  0.00  0.00    +0.031 C 
ATOM     21  C   UNL     1       6.365  -6.661  -1.821  0.00  0.00    +0.031 C 
ENDBRANCH  14  19
ENDBRANCH   1  15
BRANCH   1  22
ATOM     22  N   UNL     1       4.741  -0.877  -2.929  0.00  0.00    -0.277 N 
ATOM     23  C   UNL     1       5.240   0.129  -3.673  0.00  0.00    +0.252 C 
ATOM     24  O   UNL     1       5.236   0.048  -4.886  0.00  0.00    -0.270 OA
BRANCH  23  25
ATOM     25  C   UNL     1       5.791   1.330  -3.016  0.00  0.00    +0.086 A 
ATOM     26  C   UNL     1       5.178   1.849  -1.873  0.00  0.00    +0.049 A 
ATOM     27  C   UNL     1       5.697   2.971  -1.264  0.00  0.00    +0.127 A 
ATOM     28  C   UNL     1       6.825   3.587  -1.780  0.00  0.00    +0.036 A 
ATOM     29  C   UNL     1       7.440   3.085  -2.909  0.00  0.00    +0.054 A 
ATOM     30  C   UNL     1       6.935   1.953  -3.532  0.00  0.00    +0.191 A 
ATOM     31  O   UNL     1       7.542   1.456  -4.638  0.00  0.00    -0.287 OA
BRANCH  27  32
ATOM     32  N   UNL     1       5.046   3.519  -0.053  0.00  0.00    +0.056 N 
ATOM     33  O   UNL     1       4.117   2.933   0.452  0.00  0.00    -0.126 OA
ATOM     34  O   UNL     1       5.443   4.554   0.430  0.00  0.00    -0.126 OA
ENDBRANCH  27  32
ENDBRANCH  23  25
BRANCH  22  35
ATOM     35  C   UNL     1       4.077  -0.587  -1.656  0.00  0.00    +0.030 C 
ATOM     36  C   UNL     1       3.541  -1.887  -1.052  0.00  0.00    +0.031 C 
ATOM     37  C   UNL     1       5.080   0.048  -0.690  0.00  0.00    +0.031 C 
ATOM     38  C   UNL     1       2.917   0.381  -1.895  0.00  0.00    +0.031 C 
ENDBRANCH  22  35
ENDBRANCH   1  22
TORSDOF 10
