REMARK  Name = ZINC57773566
REMARK  11 active torsions:
REMARK  status: ('A' for Active; 'I' for Inactive)
REMARK    1  A    between atoms: C_1  and  C_2
REMARK    2  A    between atoms: C_2  and  N_3
REMARK    3  A    between atoms: N_3  and  C_4
REMARK    4  A    between atoms: N_3  and  C_6
REMARK    5  A    between atoms: C_4  and  C_5
REMARK    6  A    between atoms: C_6  and  C_7
REMARK    7  A    between atoms: C_7  and  N_8
REMARK    8  A    between atoms: C_9  and  C_11
REMARK    9  A    between atoms: C_11  and  C_17
REMARK   10  A    between atoms: C_17  and  C_18
REMARK   11  A    between atoms: C_20  and  C_23
REMARK                            x       y       z     vdW  Elec       q    Type
REMARK                         _______ _______ _______ _____ _____    ______ ____
ROOT
ATOM      1  C   UNL     1      -0.321  -5.519   3.607  0.00  0.00    +0.039 C 
ATOM      2  C   UNL     1       0.428  -6.305   2.527  0.00  0.00    +0.013 C 
ATOM      3  C   UNL     1       1.902  -5.887   2.536  0.00  0.00    -0.018 C 
ATOM      4  C   UNL     1       2.484  -6.120   3.932  0.00  0.00    -0.083 C 
ATOM      5  N   UNL     1       1.742  -5.321   4.914  0.00  0.00    +0.380 N 
ATOM      6  C   UNL     1       0.343  -5.765   4.963  0.00  0.00    -0.066 C 
ATOM      7  H   UNL     1       2.162  -5.435   5.825  0.00  0.00    -0.086 HD
ATOM      8  H   UNL     1       1.776  -4.348   4.650  0.00  0.00    -0.086 HD
ENDROOT
BRANCH   1  10
ATOM      9  N   UNL     1      -0.803  -3.594   2.129  0.00  0.00    -0.317 N 
ATOM     10  C   UNL     1      -0.273  -4.048   3.282  0.00  0.00    +0.218 C 
ATOM     11  O   UNL     1       0.242  -3.272   4.060  0.00  0.00    -0.275 OA
ATOM     12  H   UNL     1      -1.214  -4.215   1.507  0.00  0.00    +0.149 HD
BRANCH   9  13
ATOM     13  C   UNL     1      -0.756  -2.164   1.814  0.00  0.00    +0.085 C 
BRANCH  13  14
ATOM     14  C   UNL     1      -1.421  -1.919   0.458  0.00  0.00    -0.060 C 
BRANCH  14  15
ATOM     15  N   UNL     1      -1.374  -0.485   0.142  0.00  0.00    +0.380 N 
ATOM     16  H   UNL     1      -1.792   0.039   0.895  0.00  0.00    -0.082 HD
BRANCH  15  18
ATOM     17  C   UNL     1       0.082   1.451  -0.216  0.00  0.00    -0.017 C 
ATOM     18  C   UNL     1       0.024  -0.066  -0.029  0.00  0.00    -0.082 C 
ENDBRANCH  15  18
BRANCH  15  19
ATOM     19  C   UNL     1      -2.116  -0.233  -1.101  0.00  0.00    -0.082 C 
ATOM     20  C   UNL     1      -3.600  -0.533  -0.879  0.00  0.00    -0.017 C 
ENDBRANCH  15  19
ENDBRANCH  14  15
ENDBRANCH  13  14
ENDBRANCH   9  13
ENDBRANCH   1  10
BRANCH   1  21
ATOM     21  C   UNL     1      -1.778  -5.983   3.659  0.00  0.00    +0.091 C 
BRANCH  21  22
ATOM     22  C   UNL     1      -2.431  -5.742   2.323  0.00  0.00    +0.138 A 
ATOM     23  C   UNL     1      -2.473  -6.611   1.294  0.00  0.00    +0.071 A 
ATOM     24  C   UNL     1      -3.173  -6.003   0.237  0.00  0.00    +0.089 A 
ATOM     25  N   UNL     1      -3.534  -4.812   0.623  0.00  0.00    -0.083 NA
ATOM     26  O   UNL     1      -3.076  -4.627   1.950  0.00  0.00    -0.359 OA
BRANCH  24  27
ATOM     27  C   UNL     1      -3.455  -6.621  -1.109  0.00  0.00    +0.069 C 
ATOM     28  C   UNL     1      -2.230  -6.472  -2.053  0.00  0.00    +0.040 C 
ATOM     29  C   UNL     1      -2.420  -7.702  -2.976  0.00  0.00    +0.160 C 
ATOM     30  O   UNL     1      -2.935  -8.736  -2.122  0.00  0.00    -0.379 OA
ATOM     31  C   UNL     1      -3.599  -8.153  -0.990  0.00  0.00    +0.169 C 
ENDBRANCH  24  27
ENDBRANCH  21  22
ENDBRANCH   1  21
TORSDOF 9
