REMARK  Name = ZINC16072361
REMARK  10 active torsions:
REMARK  status: ('A' for Active; 'I' for Inactive)
REMARK    1  A    between atoms: C_1  and  C_2
REMARK    2  A    between atoms: C_5  and  N_8
REMARK    3  A    between atoms: N_8  and  S_9
REMARK    4  A    between atoms: S_9  and  C_12
REMARK    5  A    between atoms: C_15  and  C_18
REMARK    6  A    between atoms: N_20  and  N_21
REMARK    7  A    between atoms: C_22  and  C_24
REMARK    8  A    between atoms: C_24  and  C_26
REMARK    9  A    between atoms: C_24  and  O_27
REMARK   10  A    between atoms: O_27  and  C_28
REMARK                            x       y       z     vdW  Elec       q    Type
REMARK                         _______ _______ _______ _____ _____    ______ ____
ROOT
ATOM      1  C   UNL     1       0.898  -1.616   0.966  0.00  0.00    +0.109 A 
ATOM      2  C   UNL     1       2.280  -1.624   0.904  0.00  0.00    +0.029 A 
ATOM      3  C   UNL     1       3.025  -1.696   2.064  0.00  0.00    +0.015 A 
ATOM      4  C   UNL     1       2.380  -1.772   3.300  0.00  0.00    +0.038 A 
ATOM      5  C   UNL     1       0.986  -1.769   3.354  0.00  0.00    +0.015 A 
ATOM      6  C   UNL     1       0.253  -1.692   2.187  0.00  0.00    +0.029 A 
ENDROOT
BRANCH   4   7
ATOM      7  C   UNL     1       3.172  -1.854   4.546  0.00  0.00    +0.260 C 
ATOM      8  O   UNL     1       2.608  -1.920   5.621  0.00  0.00    -0.269 OA
ATOM      9  N   UNL     1       4.518  -1.856   4.490  0.00  0.00    -0.230 N 
ATOM     10  H   UNL     1       4.968  -1.804   3.632  0.00  0.00    +0.173 HD
BRANCH   9  11
ATOM     11  N   UNL     1       5.268  -1.934   5.671  0.00  0.00    -0.231 N 
ATOM     12  C   UNL     1       6.615  -1.936   5.615  0.00  0.00    +0.270 C 
ATOM     13  O   UNL     1       7.178  -1.871   4.543  0.00  0.00    -0.270 OA
ATOM     14  H   UNL     1       4.818  -1.987   6.529  0.00  0.00    +0.173 HD
BRANCH  12  15
ATOM     15  C   UNL     1       7.421  -2.020   6.885  0.00  0.00    +0.257 C 
ATOM     16  C   UNL     1       7.174  -3.372   7.558  0.00  0.00    +0.062 C 
BRANCH  15  17
ATOM     17  O   UNL     1       8.811  -1.889   6.577  0.00  0.00    -0.477 OA
BRANCH  17  18
ATOM     18  C   UNL     1       9.623  -1.439   7.569  0.00  0.00    +0.157 A 
ATOM     19  C   UNL     1       9.115  -1.231   8.842  0.00  0.00    +0.048 A 
ATOM     20  C   UNL     1       9.943  -0.774   9.850  0.00  0.00    +0.004 A 
ATOM     21  C   UNL     1      11.278  -0.525   9.591  0.00  0.00    +0.003 A 
ATOM     22  C   UNL     1      11.789  -0.733   8.323  0.00  0.00    +0.042 A 
ATOM     23  C   UNL     1      10.966  -1.194   7.312  0.00  0.00    +0.165 A 
ATOM     24  F   UNL     1      11.466  -1.401   6.074  0.00  0.00    -0.202 F 
ENDBRANCH  17  18
ENDBRANCH  15  17
ENDBRANCH  12  15
ENDBRANCH   9  11
ENDBRANCH   4   7
BRANCH   1  25
ATOM     25  S   UNL     1      -0.045  -1.517  -0.519  0.00  0.00    +0.072 S 
ATOM     26  O   UNL     1      -1.354  -1.968  -0.200  0.00  0.00    -0.150 OA
ATOM     27  O   UNL     1       0.740  -2.119  -1.540  0.00  0.00    -0.150 OA
BRANCH  25  28
ATOM     28  N   UNL     1      -0.178   0.087  -0.908  0.00  0.00    -0.216 N 
ATOM     29  H   UNL     1       0.209   0.420  -1.733  0.00  0.00    +0.174 HD
BRANCH  28  34
ATOM     30  C   UNL     1      -2.880   3.639   2.590  0.00  0.00    +0.044 C 
ATOM     31  C   UNL     1      -2.162   2.695   1.660  0.00  0.00    -0.050 A 
ATOM     32  C   UNL     1      -0.947   3.061   1.109  0.00  0.00    +0.005 A 
ATOM     33  C   UNL     1      -0.287   2.198   0.257  0.00  0.00    +0.025 A 
ATOM     34  C   UNL     1      -0.844   0.962  -0.047  0.00  0.00    +0.048 A 
ATOM     35  C   UNL     1      -2.066   0.600   0.505  0.00  0.00    +0.025 A 
ATOM     36  C   UNL     1      -2.719   1.466   1.360  0.00  0.00    +0.005 A 
ENDBRANCH  28  34
ENDBRANCH  25  28
ENDBRANCH   1  25
TORSDOF 8
