REMARK  Name = ZINC22819497
REMARK  9 active torsions:
REMARK  status: ('A' for Active; 'I' for Inactive)
REMARK    1  A    between atoms: C_1  and  C_2
REMARK    2  A    between atoms: C_2  and  O_3
REMARK    3  A    between atoms: O_3  and  C_4
REMARK    4  A    between atoms: C_4  and  C_6
REMARK    5  A    between atoms: C_7  and  C_35
REMARK    6  A    between atoms: C_14  and  C_15
REMARK    7  A    between atoms: C_18  and  N_20
REMARK    8  A    between atoms: N_23  and  C_26
REMARK    9  A    between atoms: C_28  and  C_30
REMARK                            x       y       z     vdW  Elec       q    Type
REMARK                         _______ _______ _______ _____ _____    ______ ____
ROOT
ATOM      1  C   UNL     1       0.237  -0.015  -0.208  0.00  0.00    +0.085 C 
ATOM      2  C   UNL     1       1.442  -0.579   0.108  0.00  0.00    +0.053 C 
ATOM      3  N   UNL     1       2.508   0.181   0.321  0.00  0.00    -0.228 NA
ATOM      4  C   UNL     1       2.518   1.490   0.254  0.00  0.00    +0.178 A 
ATOM      5  N   UNL     1       1.415   2.252  -0.050  0.00  0.00    -0.274 N 
ATOM      6  C   UNL     1       1.557   3.583  -0.086  0.00  0.00    +0.268 A 
ATOM      7  O   UNL     1       0.613   4.308  -0.350  0.00  0.00    -0.266 OA
ATOM      8  C   UNL     1       2.836   4.126   0.189  0.00  0.00    +0.084 A 
ATOM      9  C   UNL     1       3.239   5.445   0.214  0.00  0.00    +0.067 C 
ATOM     10  S   UNL     1       3.785   2.646   0.494  0.00  0.00    -0.046 S 
ATOM     11  C   UNL     1       0.161   1.492  -0.307  0.00  0.00    +0.168 C 
ATOM     12  C   UNL     1       1.560  -2.077   0.216  0.00  0.00    +0.066 C 
ENDROOT
BRANCH   9  13
ATOM     13  C   UNL     1       2.288   6.473   0.098  0.00  0.00    +0.131 A 
ATOM     14  C   UNL     1       2.537   7.832   0.212  0.00  0.00    +0.051 A 
ATOM     15  C   UNL     1       1.315   8.481   0.027  0.00  0.00    +0.066 A 
ATOM     16  C   UNL     1       0.374   7.515  -0.190  0.00  0.00    +0.189 A 
ATOM     17  O   UNL     1       0.968   6.313  -0.151  0.00  0.00    -0.442 OA
BRANCH  16  18
ATOM     18  N   UNL     1      -0.969   7.740  -0.419  0.00  0.00    -0.305 N 
ATOM     19  C   UNL     1      -1.566   8.521   0.673  0.00  0.00    +0.089 C 
ATOM     20  C   UNL     1      -3.031   8.816   0.344  0.00  0.00    -0.060 C 
ATOM     21  N   UNL     1      -3.752   7.550   0.150  0.00  0.00    +0.380 N 
ATOM     22  C   UNL     1      -3.155   6.769  -0.942  0.00  0.00    -0.060 C 
ATOM     23  C   UNL     1      -1.689   6.474  -0.613  0.00  0.00    +0.089 C 
ATOM     24  C   UNL     1      -5.180   7.789  -0.093  0.00  0.00    -0.096 C 
ATOM     25  H   UNL     1      -3.662   6.963   1.076  0.00  0.00    -0.082 HD
ENDBRANCH  16  18
ENDBRANCH   9  13
BRANCH  11  26
ATOM     26  C   UNL     1      -0.318   1.842  -1.692  0.00  0.00    +0.017 A 
ATOM     27  C   UNL     1      -1.564   2.185  -2.103  0.00  0.00    +0.013 A 
ATOM     28  C   UNL     1      -1.773   2.473  -3.439  0.00  0.00    +0.008 A 
ATOM     29  C   UNL     1      -0.730   2.392  -4.300  0.00  0.00    +0.045 A 
ATOM     30  S   UNL     1       0.605   1.906  -3.219  0.00  0.00    -0.099 S 
ENDBRANCH  11  26
BRANCH   1  31
ATOM     31  C   UNL     1      -0.896  -0.812  -0.435  0.00  0.00    +0.339 C 
ATOM     32  O   UNL     1      -0.788  -2.024  -0.484  0.00  0.00    -0.245 OA
BRANCH  31  33
ATOM     33  O   UNL     1      -2.106  -0.234  -0.600  0.00  0.00    -0.462 OA
BRANCH  33  35
ATOM     34  C   UNL     1      -4.491  -0.277  -0.989  0.00  0.00    +0.048 C 
ATOM     35  C   UNL     1      -3.216  -1.106  -0.828  0.00  0.00    +0.229 C 
ENDBRANCH  33  35
ENDBRANCH  31  33
ENDBRANCH   1  31
TORSDOF 6
