REMARK  Name = ZINC07738587
REMARK  9 active torsions:
REMARK  status: ('A' for Active; 'I' for Inactive)
REMARK    1  A    between atoms: C_1  and  C_2
REMARK    2  A    between atoms: C_2  and  O_3
REMARK    3  A    between atoms: O_3  and  C_4
REMARK    4  A    between atoms: C_4  and  C_6
REMARK    5  A    between atoms: C_7  and  C_27
REMARK    6  A    between atoms: C_13  and  C_17
REMARK    7  A    between atoms: C_17  and  C_19
REMARK    8  A    between atoms: C_17  and  N_52
REMARK    9  A    between atoms: C_20  and  N_52
REMARK                            x       y       z     vdW  Elec       q    Type
REMARK                         _______ _______ _______ _____ _____    ______ ____
ROOT
ATOM      1  C   UNL     1       2.402   4.418  -1.326  0.00  0.00    +0.102 A 
ATOM      2  C   UNL     1       2.850   3.131  -1.243  0.00  0.00    -0.015 A 
ATOM      3  C   UNL     1       1.954   2.101  -0.950  0.00  0.00    +0.076 A 
ATOM      4  C   UNL     1       2.210   0.649  -0.812  0.00  0.00    +0.260 A 
ATOM      5  O   UNL     1       3.331   0.196  -0.958  0.00  0.00    -0.267 OA
ATOM      6  N   UNL     1       1.171  -0.157  -0.522  0.00  0.00    -0.312 N 
ATOM      7  H   UNL     1       1.326  -1.141  -0.426  0.00  0.00    +0.170 HD
ATOM      8  C   UNL     1      -0.081   0.336  -0.359  0.00  0.00    +0.097 A 
ATOM      9  N   UNL     1      -0.341   1.611  -0.473  0.00  0.00    -0.228 NA
ATOM     10  C   UNL     1       0.609   2.492  -0.757  0.00  0.00    +0.116 A 
ATOM     11  S   UNL     1       0.658   4.251  -0.990  0.00  0.00    -0.062 S 
ATOM     12  C   UNL     1       4.308   2.823  -1.467  0.00  0.00    +0.046 C 
ENDROOT
BRANCH   1  13
ATOM     13  C   UNL     1       3.164   5.634  -1.618  0.00  0.00    +0.346 C 
ATOM     14  O   UNL     1       4.361   5.567  -1.826  0.00  0.00    -0.244 OA
BRANCH  13  15
ATOM     15  O   UNL     1       2.539   6.829  -1.657  0.00  0.00    -0.461 OA
BRANCH  15  17
ATOM     16  C   UNL     1       2.480   9.245  -1.954  0.00  0.00    +0.048 C 
ATOM     17  C   UNL     1       3.357   7.992  -1.953  0.00  0.00    +0.229 C 
ENDBRANCH  15  17
ENDBRANCH  13  15
ENDBRANCH   1  13
BRANCH   8  18
ATOM     18  C   UNL     1      -1.206  -0.613  -0.035  0.00  0.00    -0.007 C 
ATOM     19  C   UNL     1      -1.263  -1.715  -1.095  0.00  0.00    -0.006 C 
BRANCH  18  20
ATOM     20  N   UNL     1      -2.485   0.121  -0.031  0.00  0.00    +0.387 N 
ATOM     21  H   UNL     1      -3.248  -0.526  -0.260  0.00  0.00    -0.085 HD
ATOM     22  H   UNL     1      -2.448   0.870  -0.732  0.00  0.00    -0.085 HD
BRANCH  20  23
ATOM     23  C   UNL     1      -2.731   0.712   1.298  0.00  0.00    -0.071 C 
ATOM     24  C   UNL     1      -3.392  -0.348   2.202  0.00  0.00    -0.016 C 
ATOM     25  C   UNL     1      -3.188   0.053   3.638  0.00  0.00    -0.002 C 
ATOM     26  C   UNL     1      -4.376   0.858   4.200  0.00  0.00    -0.000 C 
ATOM     27  C   UNL     1      -4.920   1.896   3.200  0.00  0.00    -0.000 C 
ATOM     28  C   UNL     1      -3.823   2.621   2.469  0.00  0.00    -0.002 C 
ATOM     29  C   UNL     1      -3.562   1.896   1.133  0.00  0.00    -0.016 C 
ENDBRANCH  20  23
ENDBRANCH  18  20
ENDBRANCH   8  18
TORSDOF 6
