REMARK  Name = ZINC31809517
REMARK  6 active torsions:
REMARK  status: ('A' for Active; 'I' for Inactive)
REMARK    1  A    between atoms: C_1  and  C_2
REMARK    2  A    between atoms: C_22  and  C_24
REMARK    3  A    between atoms: C_29  and  O_30
REMARK    4  A    between atoms: O_30  and  C_31
REMARK    5  A    between atoms: C_31  and  C_32
REMARK    6  A    between atoms: C_31  and  C_33
REMARK                            x       y       z     vdW  Elec       q    Type
REMARK                         _______ _______ _______ _____ _____    ______ ____
ROOT
ATOM      1  C   UNL     1       0.211   1.178  -0.067  0.00  0.00    +0.068 C 
ATOM      2  C   UNL     1       0.530  -0.277  -0.298  0.00  0.00    +0.067 A 
ATOM      3  C   UNL     1       0.574  -0.918  -1.556  0.00  0.00    +0.033 A 
ATOM      4  C   UNL     1       0.892  -2.214  -1.348  0.00  0.00    +0.135 A 
ATOM      5  N   UNL     1       1.046  -2.377   0.013  0.00  0.00    -0.197 N 
ATOM      6  N   UNL     1       0.816  -1.146   0.628  0.00  0.00    -0.168 NA
ATOM      7  C   UNL     1       1.379  -3.564   0.661  0.00  0.00    +0.187 A 
ATOM      8  C   UNL     1       0.712  -3.954   1.833  0.00  0.00    +0.152 A 
ATOM      9  C   UNL     1       1.092  -5.164   2.442  0.00  0.00    +0.163 A 
ATOM     10  N   UNL     1       0.292  -5.296   3.549  0.00  0.00    -0.329 N 
ATOM     11  H   UNL     1       0.308  -6.030   4.184  0.00  0.00    +0.168 HD
ATOM     12  C   UNL     1      -0.528  -4.209   3.593  0.00  0.00    +0.198 A 
ATOM     13  N   UNL     1      -0.280  -3.423   2.586  0.00  0.00    -0.231 NA
ATOM     14  N   UNL     1       2.060  -5.887   1.892  0.00  0.00    -0.216 NA
ATOM     15  C   UNL     1       2.658  -5.481   0.792  0.00  0.00    +0.226 A 
ATOM     16  N   UNL     1       2.331  -4.356   0.182  0.00  0.00    -0.214 NA
ATOM     17  N   UNL     1       1.059  -3.267  -2.212  0.00  0.00    -0.269 N 
ATOM     18  C   UNL     1       1.028  -3.409  -3.503  0.00  0.00    +0.228 C 
ATOM     19  O   UNL     1       1.335  -4.512  -3.903  0.00  0.00    -0.275 OA
ATOM     20  C   UNL     1       0.678  -2.439  -4.563  0.00  0.00    +0.166 C 
ATOM     21  S   UNL     1       1.271  -0.777  -4.216  0.00  0.00    -0.138 S 
ATOM     22  C   UNL     1       0.299  -0.183  -2.830  0.00  0.00    +0.115 C 
ATOM     23  H   UNL     1       1.243  -4.101  -1.751  0.00  0.00    +0.156 HD
ENDROOT
BRANCH  22  24
ATOM     24  C   UNL     1       0.599   1.279  -2.620  0.00  0.00    +0.012 A 
ATOM     25  C   UNL     1       1.887   1.685  -2.330  0.00  0.00    +0.008 A 
ATOM     26  C   UNL     1       2.163   3.026  -2.137  0.00  0.00    +0.001 A 
ATOM     27  C   UNL     1       1.151   3.964  -2.234  0.00  0.00    +0.004 A 
ATOM     28  C   UNL     1      -0.138   3.562  -2.524  0.00  0.00    +0.046 A 
ATOM     29  C   UNL     1      -0.417   2.218  -2.723  0.00  0.00    +0.125 A 
BRANCH  29  30
ATOM     30  O   UNL     1      -1.683   1.821  -3.014  0.00  0.00    -0.489 OA
BRANCH  30  31
ATOM     31  C   UNL     1      -2.669   2.847  -3.153  0.00  0.00    +0.167 C 
ATOM     32  C   UNL     1      -3.824   2.331  -4.013  0.00  0.00    +0.051 C 
ATOM     33  C   UNL     1      -3.197   3.237  -1.770  0.00  0.00    +0.051 C 
ENDBRANCH  30  31
ENDBRANCH  29  30
ENDBRANCH  22  24
TORSDOF 3
