REMARK  Name = ZINC34791210
REMARK  16 active torsions:
REMARK  status: ('A' for Active; 'I' for Inactive)
REMARK    1  A    between atoms: C_1  and  C_2
REMARK    2  A    between atoms: C_2  and  N_3
REMARK    3  A    between atoms: C_6  and  C_11
REMARK    4  A    between atoms: C_15  and  O_17
REMARK    5  A    between atoms: O_17  and  C_18
REMARK    6  A    between atoms: N_26  and  C_28
REMARK    7  A    between atoms: C_28  and  C_30
REMARK    8  A    between atoms: C_28  and  C_34
REMARK    9  A    between atoms: C_30  and  C_31
REMARK   10  A    between atoms: C_31  and  C_32
REMARK   11  A    between atoms: C_31  and  C_33
REMARK   12  A    between atoms: N_36  and  C_37
REMARK   13  A    between atoms: C_37  and  C_38
REMARK   14  A    between atoms: C_38  and  C_39
REMARK   15  A    between atoms: C_39  and  C_40
REMARK   16  A    between atoms: C_39  and  C_41
REMARK                            x       y       z     vdW  Elec       q    Type
REMARK                         _______ _______ _______ _____ _____    ______ ____
ROOT
ATOM      1  N   UNL     1       0.367   0.944  -2.058  0.00  0.00    -0.257 N 
ATOM      2  C   UNL     1      -0.273   0.150  -2.967  0.00  0.00    +0.042 C 
ATOM      3  C   UNL     1       0.419  -0.592  -3.856  0.00  0.00    +0.058 C 
ATOM      4  C   UNL     1       1.932  -0.514  -3.813  0.00  0.00    +0.142 C 
ATOM      5  N   UNL     1       2.525   0.371  -2.796  0.00  0.00    -0.288 N 
ATOM      6  C   UNL     1       1.699   1.055  -1.979  0.00  0.00    +0.307 C 
ATOM      7  O   UNL     1       2.179   1.791  -1.139  0.00  0.00    -0.252 OA
ATOM      8  C   UNL     1      -0.464  -1.320  -4.679  0.00  0.00    +0.247 C 
ATOM      9  O   UNL     1      -0.112  -2.073  -5.569  0.00  0.00    -0.270 OA
ATOM     10  N   UNL     1      -1.746  -1.076  -4.353  0.00  0.00    -0.281 N 
ATOM     11  C   UNL     1      -1.736  -0.120  -3.236  0.00  0.00    +0.160 C 
ATOM     12  H   UNL     1       3.487   0.464  -2.719  0.00  0.00    +0.151 HD
ENDROOT
BRANCH   4  13
ATOM     13  C   UNL     1       2.413  -0.055  -5.165  0.00  0.00    -0.019 A 
ATOM     14  C   UNL     1       2.373   1.288  -5.493  0.00  0.00    +0.006 A 
ATOM     15  C   UNL     1       2.814   1.713  -6.732  0.00  0.00    +0.004 A 
ATOM     16  C   UNL     1       3.294   0.796  -7.648  0.00  0.00    +0.046 A 
ATOM     17  C   UNL     1       3.335  -0.552  -7.321  0.00  0.00    +0.129 A 
ATOM     18  C   UNL     1       2.897  -0.975  -6.074  0.00  0.00    +0.052 A 
BRANCH  17  19
ATOM     19  O   UNL     1       3.807  -1.456  -8.219  0.00  0.00    -0.456 OA
BRANCH  19  20
ATOM     20  C   UNL     1       3.907  -2.753  -7.827  0.00  0.00    +0.128 A 
ATOM     21  C   UNL     1       2.773  -3.551  -7.770  0.00  0.00    +0.046 A 
ATOM     22  C   UNL     1       2.877  -4.869  -7.371  0.00  0.00    +0.004 A 
ATOM     23  C   UNL     1       4.110  -5.393  -7.027  0.00  0.00    +0.000 A 
ATOM     24  C   UNL     1       5.241  -4.600  -7.082  0.00  0.00    +0.004 A 
ATOM     25  C   UNL     1       5.143  -3.283  -7.487  0.00  0.00    +0.046 A 
ENDBRANCH  19  20
ENDBRANCH  17  19
ENDBRANCH   4  13
BRANCH   1  27
ATOM     26  C   UNL     1      -0.769   3.086  -1.738  0.00  0.00    +0.025 C 
ATOM     27  C   UNL     1      -0.450   1.722  -1.124  0.00  0.00    +0.111 C 
ENDBRANCH   1  27
BRANCH  10  28
ATOM     28  C   UNL     1      -2.930  -1.654  -4.992  0.00  0.00    +0.163 C 
BRANCH  28  29
ATOM     29  C   UNL     1      -3.034  -1.150  -6.408  0.00  0.00    +0.234 C 
ATOM     30  O   UNL     1      -2.201  -0.383  -6.841  0.00  0.00    -0.274 OA
ATOM     31  N   UNL     1      -4.053  -1.551  -7.193  0.00  0.00    -0.314 N 
ATOM     32  H   UNL     1      -4.720  -2.165  -6.847  0.00  0.00    +0.149 HD
BRANCH  31  33
ATOM     33  C   UNL     1      -4.154  -1.060  -8.570  0.00  0.00    +0.104 C 
BRANCH  33  34
ATOM     34  C   UNL     1      -5.392  -1.664  -9.237  0.00  0.00    +0.022 C 
BRANCH  34  35
ATOM     35  C   UNL     1      -5.497  -1.152 -10.675  0.00  0.00    -0.016 C 
ATOM     36  C   UNL     1      -4.307  -1.666 -11.488  0.00  0.00    +0.007 C 
ATOM     37  C   UNL     1      -6.799  -1.656 -11.302  0.00  0.00    +0.007 C 
ENDBRANCH  34  35
ENDBRANCH  33  34
ENDBRANCH  31  33
ENDBRANCH  28  29
BRANCH  28  38
ATOM     38  C   UNL     1      -2.811  -3.180  -5.001  0.00  0.00    +0.035 C 
BRANCH  38  39
ATOM     39  C   UNL     1      -2.890  -3.706  -3.567  0.00  0.00    -0.015 C 
ATOM     40  C   UNL     1      -3.004  -5.232  -3.589  0.00  0.00    +0.007 C 
ATOM     41  C   UNL     1      -1.627  -3.301  -2.805  0.00  0.00    +0.007 C 
ENDBRANCH  38  39
ENDBRANCH  28  38
ENDBRANCH  10  28
TORSDOF 11
