REMARK  Name = ZINC20703281
REMARK  10 active torsions:
REMARK  status: ('A' for Active; 'I' for Inactive)
REMARK    1  A    between atoms: C_1  and  C_2
REMARK    2  A    between atoms: C_2  and  C_3
REMARK    3  A    between atoms: C_2  and  C_4
REMARK    4  A    between atoms: C_2  and  N_5
REMARK    5  A    between atoms: N_5  and  S_6
REMARK    6  A    between atoms: S_6  and  C_9
REMARK    7  A    between atoms: C_22  and  C_25
REMARK    8  A    between atoms: C_28  and  O_31
REMARK    9  A    between atoms: O_31  and  C_32
REMARK   10  A    between atoms: C_32  and  C_33
REMARK                            x       y       z     vdW  Elec       q    Type
REMARK                         _______ _______ _______ _____ _____    ______ ____
ROOT
ATOM      1  C   UNL     1       3.047  -3.673   0.911  0.00  0.00    +0.106 A 
ATOM      2  C   UNL     1       2.322  -4.694   1.497  0.00  0.00    +0.030 A 
ATOM      3  C   UNL     1       0.946  -4.707   1.407  0.00  0.00    +0.025 A 
ATOM      4  C   UNL     1       0.277  -3.695   0.728  0.00  0.00    +0.031 A 
ATOM      5  C   UNL     1       1.017  -2.658   0.149  0.00  0.00    -0.018 A 
ATOM      6  C   UNL     1       2.392  -2.658   0.238  0.00  0.00    +0.034 A 
ATOM      7  C   UNL     1       0.265  -1.578  -0.527  0.00  0.00    +0.049 C 
ATOM      8  C   UNL     1       0.864  -0.771  -1.621  0.00  0.00    -0.023 C 
ATOM      9  C   UNL     1      -0.102  -0.406  -2.456  0.00  0.00    -0.030 C 
ATOM     10  C   UNL     1      -1.441  -0.982  -1.990  0.00  0.00    +0.033 C 
ATOM     11  C   UNL     1      -0.988  -2.216  -1.198  0.00  0.00    +0.029 C 
ATOM     12  C   UNL     1      -1.875  -2.669  -0.053  0.00  0.00    +0.105 C 
ATOM     13  N   UNL     1      -1.120  -3.738   0.637  0.00  0.00    -0.336 N 
ATOM     14  H   UNL     1      -1.655  -4.586   1.089  0.00  0.00    +0.147 HD
ENDROOT
BRANCH  12  15
ATOM     15  C   UNL     1      -3.176  -3.212  -0.586  0.00  0.00    -0.027 A 
ATOM     16  C   UNL     1      -3.232  -4.499  -1.089  0.00  0.00    +0.009 A 
ATOM     17  C   UNL     1      -4.425  -5.000  -1.573  0.00  0.00    +0.046 A 
ATOM     18  C   UNL     1      -5.564  -4.208  -1.563  0.00  0.00    +0.121 A 
ATOM     19  C   UNL     1      -5.503  -2.916  -1.063  0.00  0.00    +0.046 A 
ATOM     20  C   UNL     1      -4.310  -2.421  -0.576  0.00  0.00    +0.009 A 
BRANCH  18  21
ATOM     21  O   UNL     1      -6.737  -4.698  -2.044  0.00  0.00    -0.487 OA
BRANCH  21  22
ATOM     22  C   UNL     1      -6.726  -6.037  -2.543  0.00  0.00    +0.264 C 
BRANCH  22  23
ATOM     23  C   UNL     1      -8.104  -6.403  -3.030  0.00  0.00    -0.010 A 
ATOM     24  C   UNL     1      -9.011  -6.986  -2.164  0.00  0.00    +0.007 A 
ATOM     25  C   UNL     1     -10.276  -7.318  -2.609  0.00  0.00    +0.000 A 
ATOM     26  C   UNL     1     -10.633  -7.076  -3.922  0.00  0.00    +0.000 A 
ATOM     27  C   UNL     1      -9.725  -6.498  -4.790  0.00  0.00    +0.000 A 
ATOM     28  C   UNL     1      -8.460  -6.162  -4.344  0.00  0.00    +0.007 A 
ENDBRANCH  22  23
ENDBRANCH  21  22
ENDBRANCH  18  21
ENDBRANCH  12  15
BRANCH   1  29
ATOM     29  S   UNL     1       4.806  -3.665   1.021  0.00  0.00    +0.059 S 
ATOM     30  O   UNL     1       5.197  -2.308   1.180  0.00  0.00    -0.153 OA
ATOM     31  O   UNL     1       5.159  -4.674   1.957  0.00  0.00    -0.153 OA
BRANCH  29  32
ATOM     32  N   UNL     1       5.391  -4.157  -0.448  0.00  0.00    -0.185 NA
ATOM     33  H   UNL     1       6.083  -3.502  -0.998  0.00  0.00    +0.149 HD
BRANCH  32  35
ATOM     34  C   UNL     1       3.662  -5.814  -0.945  0.00  0.00    +0.029 C 
ATOM     35  C   UNL     1       5.165  -5.531  -0.903  0.00  0.00    +0.032 C 
ATOM     36  C   UNL     1       5.756  -5.708  -2.303  0.00  0.00    +0.029 C 
ATOM     37  C   UNL     1       5.841  -6.506   0.063  0.00  0.00    +0.029 C 
ENDBRANCH  32  35
ENDBRANCH  29  32
ENDBRANCH   1  29
TORSDOF 7
