REMARK  Name = ZINC65182606
REMARK  10 active torsions:
REMARK  status: ('A' for Active; 'I' for Inactive)
REMARK    1  A    between atoms: C_1  and  C_2
REMARK    2  A    between atoms: C_2  and  C_3
REMARK    3  A    between atoms: C_6  and  C_9
REMARK    4  A    between atoms: N_11  and  C_12
REMARK    5  A    between atoms: N_11  and  C_13
REMARK    6  A    between atoms: C_13  and  C_14
REMARK    7  A    between atoms: C_14  and  C_15
REMARK    8  A    between atoms: C_18  and  C_21
REMARK    9  A    between atoms: C_23  and  C_32
REMARK   10  A    between atoms: C_26  and  C_31
REMARK                            x       y       z     vdW  Elec       q    Type
REMARK                         _______ _______ _______ _____ _____    ______ ____
ROOT
ATOM      1  C   UNL     1       5.612  -0.944  -8.008  0.00  0.00    +0.139 C 
ATOM      2  N   UNL     1       6.011  -2.071  -8.473  0.00  0.00    -0.072 NA
ATOM      3  O   UNL     1       6.649  -1.907  -9.726  0.00  0.00    -0.367 OA
ATOM      4  C   UNL     1       6.609  -0.501 -10.017  0.00  0.00    +0.318 C 
ATOM      5  N   UNL     1       5.914   0.090  -8.863  0.00  0.00    -0.291 N 
ATOM      6  H   UNL     1       5.709   1.029  -8.729  0.00  0.00    +0.151 HD
ENDROOT
BRANCH   4   7
ATOM      7  C   UNL     1       5.822  -0.243 -11.303  0.00  0.00    +0.168 C 
ATOM      8  C   UNL     1       6.479  -0.950 -12.468  0.00  0.00    -0.036 C 
ATOM      9  C   UNL     1       5.562  -1.825 -12.941  0.00  0.00    -0.001 A 
ATOM     10  C   UNL     1       5.588  -2.791 -14.046  0.00  0.00    +0.013 A 
ATOM     11  C   UNL     1       4.490  -3.545 -14.283  0.00  0.00    -0.050 A 
ATOM     12  C   UNL     1       3.332  -3.427 -13.502  0.00  0.00    +0.005 A 
ATOM     13  C   UNL     1       3.233  -2.561 -12.471  0.00  0.00    +0.026 A 
ATOM     14  C   UNL     1       4.327  -1.719 -12.132  0.00  0.00    +0.043 A 
ATOM     15  N   UNL     1       4.474  -0.813 -11.194  0.00  0.00    -0.373 N 
ATOM     16  C   UNL     1       4.513  -4.538 -15.416  0.00  0.00    +0.044 C 
ATOM     17  C   UNL     1       7.873  -0.726 -12.994  0.00  0.00    +0.042 C 
ATOM     18  H   UNL     1       3.805  -0.561 -10.538  0.00  0.00    +0.160 HD
ENDBRANCH   4   7
BRANCH   1  19
ATOM     19  C   UNL     1       4.894  -0.775  -6.693  0.00  0.00    +0.094 C 
BRANCH  19  20
ATOM     20  C   UNL     1       4.735  -2.140  -6.020  0.00  0.00    +0.115 C 
BRANCH  20  23
ATOM     21  C   UNL     1       2.693  -2.047  -4.694  0.00  0.00    +0.246 C 
ATOM     22  O   UNL     1       2.064  -2.335  -5.694  0.00  0.00    -0.270 OA
ATOM     23  N   UNL     1       4.038  -1.976  -4.742  0.00  0.00    -0.300 N 
ATOM     24  C   UNL     1       4.803  -1.735  -3.517  0.00  0.00    +0.132 C 
BRANCH  21  28
ATOM     25  C   UNL     1       0.654  -1.266  -1.051  0.00  0.00    -0.048 A 
ATOM     26  C   UNL     1       1.844  -1.972  -1.036  0.00  0.00    +0.004 A 
ATOM     27  C   UNL     1       2.511  -2.230  -2.216  0.00  0.00    +0.013 A 
ATOM     28  C   UNL     1       1.984  -1.776  -3.426  0.00  0.00    +0.037 A 
ATOM     29  C   UNL     1       0.783  -1.064  -3.433  0.00  0.00    +0.013 A 
ATOM     30  C   UNL     1       0.123  -0.818  -2.247  0.00  0.00    +0.004 A 
BRANCH  25  32
ATOM     31  C   UNL     1      -1.040  -2.134   0.539  0.00  0.00    +0.009 C 
ATOM     32  C   UNL     1      -0.069  -0.989   0.242  0.00  0.00    +0.032 C 
ENDBRANCH  25  32
ENDBRANCH  21  28
ENDBRANCH  20  23
ENDBRANCH  19  20
ENDBRANCH   1  19
TORSDOF 6
