REMARK  Name = ZINC05535816
REMARK  7 active torsions:
REMARK  status: ('A' for Active; 'I' for Inactive)
REMARK    1  A    between atoms: C_1  and  N_2
REMARK    2  A    between atoms: C_6  and  C_8
REMARK    3  A    between atoms: C_8  and  S_9
REMARK    4  A    between atoms: S_9  and  C_10
REMARK    5  A    between atoms: C_13  and  C_18
REMARK    6  A    between atoms: N_14  and  C_15
REMARK    7  A    between atoms: C_15  and  C_16
REMARK                            x       y       z     vdW  Elec       q    Type
REMARK                         _______ _______ _______ _____ _____    ______ ____
ROOT
ATOM      1  C   UNL     1      -2.262   1.963  -2.335  0.00  0.00    +0.193 A 
ATOM      2  N   UNL     1      -3.072   1.220  -3.055  0.00  0.00    -0.122 NA
ATOM      3  N   UNL     1      -3.493   0.224  -2.361  0.00  0.00    -0.128 NA
ATOM      4  C   UNL     1      -2.975   0.267  -1.156  0.00  0.00    +0.167 A 
ATOM      5  N   UNL     1      -2.168   1.380  -1.103  0.00  0.00    -0.298 N 
ENDROOT
BRANCH   4   6
ATOM      6  C   UNL     1      -3.212  -0.699  -0.062  0.00  0.00    +0.038 A 
ATOM      7  C   UNL     1      -3.533  -0.243   1.218  0.00  0.00    +0.014 A 
ATOM      8  C   UNL     1      -3.759  -1.149   2.233  0.00  0.00    +0.021 A 
ATOM      9  C   UNL     1      -3.657  -2.508   1.988  0.00  0.00    +0.042 A 
ATOM     10  C   UNL     1      -3.334  -2.967   0.722  0.00  0.00    +0.040 A 
ATOM     11  C   UNL     1      -3.111  -2.071  -0.304  0.00  0.00    +0.053 A 
ATOM     12 CL   UNL     1      -2.705  -2.647  -1.890  0.00  0.00    -0.083 Cl
ATOM     13 CL   UNL     1      -3.936  -3.642   3.273  0.00  0.00    -0.083 Cl
ENDBRANCH   4   6
BRANCH   1  14
ATOM     14  S   UNL     1      -1.448   3.434  -2.860  0.00  0.00    -0.077 S 
BRANCH  14  15
ATOM     15  C   UNL     1      -2.063   3.544  -4.559  0.00  0.00    +0.173 C 
BRANCH  15  21
ATOM     16  C   UNL     1      -1.038   7.615  -9.025  0.00  0.00    +0.129 C 
ATOM     17  N   UNL     1      -1.602   6.429  -8.377  0.00  0.00    -0.302 N 
ATOM     18  C   UNL     1      -1.282   6.143  -7.099  0.00  0.00    +0.306 C 
ATOM     19  O   UNL     1      -0.525   6.868  -6.485  0.00  0.00    -0.252 OA
ATOM     20  N   UNL     1      -1.802   5.051  -6.503  0.00  0.00    -0.240 N 
ATOM     21  C   UNL     1      -1.482   4.764  -5.226  0.00  0.00    +0.231 C 
ATOM     22  O   UNL     1      -0.727   5.488  -4.613  0.00  0.00    -0.274 OA
ATOM     23  H   UNL     1      -2.207   5.850  -8.867  0.00  0.00    +0.150 HD
ATOM     24  H   UNL     1      -2.406   4.472  -6.993  0.00  0.00    +0.159 HD
ENDBRANCH  15  21
ENDBRANCH  14  15
ENDBRANCH   1  14
BRANCH   5  25
ATOM     25  C   UNL     1      -1.377   1.847   0.039  0.00  0.00    +0.152 C 
BRANCH  25  26
ATOM     26  C   UNL     1      -0.049   1.134   0.054  0.00  0.00    -0.013 C 
ATOM     27  C   UNL     1       1.065   1.824   0.063  0.00  0.00    +0.005 C 
ENDBRANCH  25  26
ENDBRANCH   5  25
TORSDOF 6
