REMARK  Name = ZINC64869277
REMARK  5 active torsions:
REMARK  status: ('A' for Active; 'I' for Inactive)
REMARK    1  A    between atoms: C_3  and  O_12
REMARK    2  A    between atoms: O_12  and  C_13
REMARK    3  A    between atoms: C_13  and  C_15
REMARK    4  A    between atoms: C_18  and  S_21
REMARK    5  A    between atoms: S_21  and  C_24
REMARK                            x       y       z     vdW  Elec       q    Type
REMARK                         _______ _______ _______ _____ _____    ______ ____
ROOT
ATOM      1  C   UNL     1       3.462   3.461  -0.117  0.00  0.00    +0.344 C 
ATOM      2  O   UNL     1       2.378   4.011  -0.102  0.00  0.00    -0.245 OA
ENDROOT
BRANCH   1   3
ATOM      3  C   UNL     1       4.696   4.263  -0.241  0.00  0.00    +0.060 A 
ATOM      4  C   UNL     1       5.942   3.634  -0.265  0.00  0.00    +0.017 A 
ATOM      5  C   UNL     1       7.090   4.389  -0.381  0.00  0.00    +0.028 A 
ATOM      6  C   UNL     1       7.009   5.768  -0.474  0.00  0.00    +0.089 A 
ATOM      7  C   UNL     1       5.777   6.398  -0.451  0.00  0.00    +0.028 A 
ATOM      8  C   UNL     1       4.621   5.654  -0.340  0.00  0.00    +0.017 A 
BRANCH   6   9
ATOM      9  S   UNL     1       8.481   6.725  -0.621  0.00  0.00    -0.000 S 
ATOM     10  O   UNL     1       8.141   7.997  -0.087  0.00  0.00    -0.169 OA
ATOM     11  O   UNL     1       9.492   5.931  -0.015  0.00  0.00    -0.169 OA
BRANCH   9  12
ATOM     12  C   UNL     1       8.776   6.855  -2.406  0.00  0.00    +0.136 C 
ATOM     13  C   UNL     1       8.899   5.447  -3.026  0.00  0.00    +0.026 C 
ATOM     14  C   UNL     1       9.995   5.603  -4.109  0.00  0.00    +0.002 C 
ATOM     15  C   UNL     1      11.002   6.571  -3.439  0.00  0.00    +0.002 C 
ATOM     16  C   UNL     1      10.113   7.569  -2.670  0.00  0.00    +0.026 C 
ENDBRANCH   9  12
ENDBRANCH   6   9
ENDBRANCH   1   3
BRANCH   1  17
ATOM     17  O   UNL     1       3.537   2.119  -0.021  0.00  0.00    -0.422 OA
BRANCH  17  20
ATOM     18  C   UNL     1       0.452   0.635  -1.221  0.00  0.00    +0.015 A 
ATOM     19  C   UNL     1       1.620   1.341  -1.196  0.00  0.00    +0.047 A 
ATOM     20  C   UNL     1       2.377   1.413  -0.029  0.00  0.00    +0.135 A 
ATOM     21  C   UNL     1       1.957   0.770   1.123  0.00  0.00    +0.093 A 
ATOM     22  C   UNL     1       0.773   0.048   1.117  0.00  0.00    +0.143 A 
ATOM     23  C   UNL     1       0.012  -0.021  -0.066  0.00  0.00    +0.018 A 
ATOM     24  C   UNL     1      -1.236  -0.786  -0.062  0.00  0.00    +0.018 A 
ATOM     25  C   UNL     1      -1.609  -1.401   1.090  0.00  0.00    +0.092 A 
ATOM     26  C   UNL     1      -0.799  -1.289   2.239  0.00  0.00    +0.337 A 
ATOM     27  O   UNL     1      -1.145  -1.845   3.266  0.00  0.00    -0.245 OA
ATOM     28  O   UNL     1       0.345  -0.587   2.229  0.00  0.00    -0.422 OA
ENDBRANCH  17  20
ENDBRANCH   1  17
TORSDOF 5
