REMARK  Name = ZINC02033792
REMARK  12 active torsions:
REMARK  status: ('A' for Active; 'I' for Inactive)
REMARK    1  A    between atoms: C_1  and  C_2
REMARK    2  A    between atoms: N_8  and  C_12
REMARK    3  A    between atoms: C_14  and  O_30
REMARK    4  A    between atoms: C_16  and  O_26
REMARK    5  A    between atoms: C_18  and  C_21
REMARK    6  A    between atoms: C_21  and  O_22
REMARK    7  A    between atoms: O_22  and  C_23
REMARK    8  A    between atoms: C_23  and  C_25
REMARK    9  A    between atoms: O_26  and  C_27
REMARK   10  A    between atoms: C_27  and  C_29
REMARK   11  A    between atoms: O_30  and  C_31
REMARK   12  A    between atoms: C_31  and  C_33
REMARK                            x       y       z     vdW  Elec       q    Type
REMARK                         _______ _______ _______ _____ _____    ______ ____
ROOT
ATOM      1  C   UNL     1       3.546   2.205  -0.019  0.00  0.00    +0.268 C 
ATOM      2  C   UNL     1       3.690   2.968  -1.354  0.00  0.00    +0.269 C 
ATOM      3  C   UNL     1       5.202   2.886  -1.671  0.00  0.00    +0.253 C 
ATOM      4  C   UNL     1       5.791   2.086  -0.488  0.00  0.00    +0.203 C 
ATOM      5  O   UNL     1       4.682   1.314   0.024  0.00  0.00    -0.342 OA
ENDROOT
BRANCH   1  13
ATOM      6  C   UNL     1      -3.655  -0.753   0.606  0.00  0.00    +0.109 C 
ATOM      7  C   UNL     1      -2.349  -0.003   0.570  0.00  0.00    +0.215 C 
ATOM      8  O   UNL     1      -2.295   1.141   0.968  0.00  0.00    -0.276 OA
ATOM      9  N   UNL     1      -1.240  -0.604   0.094  0.00  0.00    -0.270 N 
ATOM     10  C   UNL     1      -0.042   0.084   0.061  0.00  0.00    +0.132 A 
ATOM     11  C   UNL     1       1.119  -0.540  -0.436  0.00  0.00    +0.062 A 
ATOM     12  C   UNL     1       2.281   0.157  -0.458  0.00  0.00    +0.097 A 
ATOM     13  N   UNL     1       2.297   1.440  -0.001  0.00  0.00    -0.269 N 
ATOM     14  C   UNL     1       1.171   2.008   0.467  0.00  0.00    +0.352 A 
ATOM     15  O   UNL     1       1.202   3.158   0.873  0.00  0.00    -0.244 OA
ATOM     16  N   UNL     1       0.021   1.335   0.495  0.00  0.00    -0.178 NA
ATOM     17  H   UNL     1      -1.038  -1.414   0.644  0.00  0.00    +0.156 HD
ENDBRANCH   1  13
BRANCH   4  18
ATOM     18  C   UNL     1       6.906   1.159  -0.974  0.00  0.00    +0.267 C 
BRANCH  18  19
ATOM     19  O   UNL     1       7.474   0.449   0.158  0.00  0.00    -0.462 OA
BRANCH  19  20
ATOM     20  C   UNL     1       8.472  -0.411  -0.100  0.00  0.00    +0.304 C 
ATOM     21  O   UNL     1       8.858  -0.566  -1.234  0.00  0.00    -0.251 OA
ATOM     22  C   UNL     1       9.111  -1.183   1.026  0.00  0.00    +0.136 C 
ENDBRANCH  19  20
ENDBRANCH  18  19
ENDBRANCH   4  18
BRANCH   3  23
ATOM     23  O   UNL     1       5.782   4.216  -1.725  0.00  0.00    -0.455 OA
BRANCH  23  24
ATOM     24  C   UNL     1       6.880   4.372  -2.481  0.00  0.00    +0.304 C 
ATOM     25  O   UNL     1       7.341   3.429  -3.079  0.00  0.00    -0.251 OA
ATOM     26  C   UNL     1       7.537   5.724  -2.585  0.00  0.00    +0.136 C 
ENDBRANCH  23  24
ENDBRANCH   3  23
BRANCH   2  27
ATOM     27  O   UNL     1       2.916   2.319  -2.397  0.00  0.00    -0.453 OA
BRANCH  27  28
ATOM     28  C   UNL     1       2.499   3.088  -3.415  0.00  0.00    +0.304 C 
ATOM     29  O   UNL     1       2.836   4.247  -3.474  0.00  0.00    -0.251 OA
ATOM     30  C   UNL     1       1.612   2.506  -4.485  0.00  0.00    +0.136 C 
ENDBRANCH  27  28
ENDBRANCH   2  27
TORSDOF 8
