REMARK  Name = ZINC15670697
REMARK  6 active torsions:
REMARK  status: ('A' for Active; 'I' for Inactive)
REMARK    1  A    between atoms: C_1  and  N_2
REMARK    2  A    between atoms: C_3  and  O_24
REMARK    3  A    between atoms: C_4  and  C_11
REMARK    4  A    between atoms: N_7  and  C_10
REMARK    5  A    between atoms: N_13  and  C_23
REMARK    6  A    between atoms: C_14  and  C_17
REMARK                            x       y       z     vdW  Elec       q    Type
REMARK                         _______ _______ _______ _____ _____    ______ ____
ROOT
ATOM      1  C   UNL     1       2.451  -2.809  -0.036  0.00  0.00    +0.157 C 
ATOM      2  N   UNL     1       1.188  -2.067  -0.020  0.00  0.00    -0.267 N 
ATOM      3  C   UNL     1       1.206  -0.697  -0.013  0.00  0.00    +0.211 A 
ATOM      4  C   UNL     1       0.002  -0.004   0.002  0.00  0.00    +0.122 A 
ATOM      5  C   UNL     1      -1.209  -0.746   0.016  0.00  0.00    +0.269 A 
ATOM      6  O   UNL     1      -2.282  -0.170   0.034  0.00  0.00    -0.267 OA
ATOM      7  N   UNL     1      -1.158  -2.092   0.003  0.00  0.00    -0.263 N 
ATOM      8  C   UNL     1       0.022  -2.736  -0.011  0.00  0.00    +0.334 A 
ATOM      9  O   UNL     1       0.035  -3.952  -0.017  0.00  0.00    -0.246 OA
ATOM     10  C   UNL     1      -2.403  -2.864   0.011  0.00  0.00    +0.157 C 
ENDROOT
BRANCH   4  11
ATOM     11  C   UNL     1      -0.018   1.469   0.010  0.00  0.00    +0.079 C 
ATOM     12  N   UNL     1      -1.080   2.198   0.019  0.00  0.00    -0.188 NA
ATOM     13  N   UNL     1      -0.830   3.569   0.028  0.00  0.00    -0.251 N 
ATOM     14  C   UNL     1       0.625   3.787   0.015  0.00  0.00    +0.128 C 
ATOM     15  C   UNL     1       1.205   2.358   0.003  0.00  0.00    +0.086 C 
ATOM     16  C   UNL     1      -1.849   4.621   0.042  0.00  0.00    +0.152 C 
BRANCH  14  17
ATOM     17  C   UNL     1       1.039   4.537  -1.224  0.00  0.00    -0.025 A 
ATOM     18  C   UNL     1       0.372   4.324  -2.416  0.00  0.00    +0.005 A 
ATOM     19  C   UNL     1       0.748   5.016  -3.552  0.00  0.00    +0.000 A 
ATOM     20  C   UNL     1       1.798   5.914  -3.498  0.00  0.00    +0.000 A 
ATOM     21  C   UNL     1       2.468   6.124  -2.308  0.00  0.00    +0.000 A 
ATOM     22  C   UNL     1       2.089   5.435  -1.171  0.00  0.00    +0.005 A 
ENDBRANCH  14  17
ENDBRANCH   4  11
BRANCH   3  23
ATOM     23  O   UNL     1       2.378  -0.029  -0.022  0.00  0.00    -0.493 OA
ATOM     24  H   UNL     1       3.186  -0.561  -0.032  0.00  0.00    +0.294 HD
ENDBRANCH   3  23
TORSDOF 3
