REMARK  Name = ZINC45754642
REMARK  9 active torsions:
REMARK  status: ('A' for Active; 'I' for Inactive)
REMARK    1  A    between atoms: C_1  and  C_2
REMARK    2  A    between atoms: C_5  and  C_30
REMARK    3  A    between atoms: N_8  and  C_10
REMARK    4  A    between atoms: C_10  and  C_11
REMARK    5  A    between atoms: C_17  and  C_19
REMARK    6  A    between atoms: N_24  and  C_26
REMARK    7  A    between atoms: C_26  and  C_27
REMARK    8  A    between atoms: C_27  and  O_28
REMARK    9  A    between atoms: O_28  and  C_29
REMARK                            x       y       z     vdW  Elec       q    Type
REMARK                         _______ _______ _______ _____ _____    ______ ____
ROOT
ATOM      1  C   UNL     1       2.971  -2.034   2.241  0.00  0.00    +0.034 A 
ATOM      2  C   UNL     1       3.439  -0.905   2.828  0.00  0.00    +0.070 A 
ATOM      3  S   UNL     1       5.145  -0.940   2.304  0.00  0.00    -0.060 S 
ATOM      4  C   UNL     1       5.085  -2.365   1.410  0.00  0.00    +0.165 A 
ATOM      5  N   UNL     1       3.833  -2.747   1.539  0.00  0.00    -0.231 NA
ATOM      6  N   UNL     1       6.110  -2.988   0.710  0.00  0.00    -0.259 N 
ATOM      7  C   UNL     1       7.343  -2.446   0.696  0.00  0.00    +0.270 C 
ATOM      8  O   UNL     1       7.559  -1.411   1.296  0.00  0.00    -0.268 OA
ATOM      9  H   UNL     1       5.937  -3.814   0.231  0.00  0.00    +0.157 HD
ENDROOT
BRANCH   7  10
ATOM     10  C   UNL     1       8.434  -3.110  -0.049  0.00  0.00    +0.146 A 
ATOM     11  C   UNL     1       9.731  -2.541  -0.058  0.00  0.00    +0.040 A 
ATOM     12  C   UNL     1      10.711  -3.182  -0.756  0.00  0.00    +0.074 A 
ATOM     13  C   UNL     1      10.372  -4.376  -1.429  0.00  0.00    +0.267 A 
ATOM     14  O   UNL     1      11.217  -4.983  -2.066  0.00  0.00    -0.266 OA
ATOM     15  N   UNL     1       9.110  -4.840  -1.363  0.00  0.00    -0.227 N 
ATOM     16  N   UNL     1       8.198  -4.229  -0.697  0.00  0.00    -0.163 NA
BRANCH  15  17
ATOM     17  C   UNL     1       8.769  -6.080  -2.066  0.00  0.00    +0.175 C 
BRANCH  17  18
ATOM     18  C   UNL     1       8.992  -7.272  -1.133  0.00  0.00    +0.183 C 
BRANCH  18  19
ATOM     19  O   UNL     1       8.079  -7.196  -0.036  0.00  0.00    -0.381 OA
ATOM     20  C   UNL     1       8.204  -8.269   0.899  0.00  0.00    +0.194 C 
ENDBRANCH  18  19
ENDBRANCH  17  18
ENDBRANCH  15  17
ENDBRANCH   7  10
BRANCH   1  21
ATOM     21  C   UNL     1       1.534  -2.461   2.390  0.00  0.00    -0.022 C 
BRANCH  21  27
ATOM     22  C   UNL     1      -0.019   1.526   0.010  0.00  0.00    +0.005 C 
ATOM     23  C   UNL     1       0.002  -0.004   0.002  0.00  0.00    -0.031 C 
ATOM     24  C   UNL     1      -1.434  -0.535   0.015  0.00  0.00    +0.003 C 
ATOM     25  C   UNL     1      -1.402  -2.064   0.086  0.00  0.00    -0.031 C 
ATOM     26  C   UNL     1      -0.613  -2.496   1.324  0.00  0.00    -0.075 C 
ATOM     27  N   UNL     1       0.758  -1.980   1.239  0.00  0.00    +0.384 N 
ATOM     28  C   UNL     1       0.740  -0.512   1.242  0.00  0.00    -0.075 C 
ATOM     29  C   UNL     1      -2.832  -2.602   0.177  0.00  0.00    +0.005 C 
ATOM     30  H   UNL     1       1.188  -2.307   0.386  0.00  0.00    -0.081 HD
ENDBRANCH  21  27
ENDBRANCH   1  21
TORSDOF 6
